@<TRIPOS>MOLECULE
mol_data/opt/b3lyp/geoms/mol2/12hd12hd-12hd12hd-.out
 42 45 0 0 0
SMALL
GASTEIGER

@<TRIPOS>ATOM
      1 C           0.1302    1.7125   -0.1172 C.ar    1  LIG1        0.1146
      2 C           1.4929    1.7036   -0.0913 C.ar    1  LIG1        0.0812
      3 C           1.9007    3.0937   -0.0606 C.ar    1  LIG1        0.1211
      4 C           0.7317    3.8474   -0.0656 C.ar    1  LIG1        0.1907
      5 O          -0.3413    3.0225   -0.0957 O.2     1  LIG1       -0.4565
      6 H          -0.6221    0.9426   -0.1262 H       1  LIG1        0.1049
      7 N           2.3670    0.6282   -0.0232 N.pl3   1  LIG1       -0.3545
      8 H           1.9935   -0.2470   -0.3641 H       1  LIG1        0.1424
      9 H           3.2858    0.8139   -0.4039 H       1  LIG1        0.1424
     10 N           4.3048    4.0220   -0.0349 N.1     1  LIG1       -0.1907
     11 C           3.2180    3.5958   -0.0416 C.1     1  LIG1        0.1049
     12 C           0.4951    5.2425   -0.0571 C.ar    1  LIG1        0.1938
     13 C          -0.6560    6.0113   -0.0689 C.ar    1  LIG1        0.0925
     14 C          -0.2187    7.3826   -0.0761 C.ar    1  LIG1        0.1219
     15 C           1.1808    7.3572   -0.0621 C.ar    1  LIG1        0.1918
     16 O           1.6121    6.0763   -0.0483 O.2     1  LIG1       -0.4453
     17 N          -1.9531    5.5818   -0.0213 N.pl3   1  LIG1       -0.3539
     18 H          -2.6655    6.2256   -0.3312 H       1  LIG1        0.1425
     19 H          -2.1191    4.6087   -0.2307 H       1  LIG1        0.1425
     20 N          -1.7082    9.4842   -0.1299 N.1     1  LIG1       -0.1907
     21 C          -1.0361    8.5301   -0.1014 C.1     1  LIG1        0.1050
     22 C           2.1568    8.3681   -0.0599 C.ar    1  LIG1        0.1939
     23 C           3.5521    8.3502   -0.0573 C.ar    1  LIG1        0.0925
     24 C           3.9590    9.7340   -0.0569 C.ar    1  LIG1        0.1219
     25 C           2.7937   10.4976   -0.0592 C.ar    1  LIG1        0.1917
     26 O           1.7108    9.6896   -0.0610 O.2     1  LIG1       -0.4453
     27 N           4.3911    7.2961   -0.0614 N.pl3   1  LIG1       -0.3539
     28 H           4.0708    6.3374   -0.0417 H       1  LIG1        0.1425
     29 H           5.3856    7.4562   -0.0390 H       1  LIG1        0.1425
     30 N           6.4340   10.4516   -0.0523 N.1     1  LIG1       -0.1907
     31 C           5.3028   10.1703   -0.0545 C.1     1  LIG1        0.1050
     32 C           2.5360   11.8877   -0.0603 C.ar    1  LIG1        0.1928
     33 C           1.3507   12.6220   -0.0563 C.ar    1  LIG1        0.0917
     34 C           1.7741   14.0073   -0.0616 C.ar    1  LIG1        0.1107
     35 C           3.1466   14.0001   -0.0673 C.ar    1  LIG1        0.1119
     36 O           3.6220   12.7510   -0.0664 O.2     1  LIG1       -0.4566
     37 H           3.8715   14.7994   -0.0723 H       1  LIG1        0.1043
     38 N           0.0703   12.1993   -0.0418 N.pl3   1  LIG1       -0.3540
     39 H          -0.6764   12.8749   -0.0656 H       1  LIG1        0.1425
     40 H          -0.1852   11.2218   -0.0653 H       1  LIG1        0.1425
     41 N           0.1561   16.0180   -0.0629 N.1     1  LIG1       -0.1907
     42 C           0.9093   15.1303   -0.0619 C.1     1  LIG1        0.1042
@<TRIPOS>BOND
     1     9     7    1
     2     8     7    1
     3    18    17    1
     4    19    17    1
     5    20    21    3
     6     6     1    1
     7     1     5   ar
     8     1     2   ar
     9    21    14    1
    10     5     4   ar
    11     2     3   ar
    12     2     7    1
    13    14    13   ar
    14    14    15   ar
    15    37    35    1
    16    13    12   ar
    17    13    17    1
    18    35    36   ar
    19    35    34   ar
    20    36    32   ar
    21     4     3   ar
    22     4    12    1
    23    39    38    1
    24    40    38    1
    25    41    42    3
    26    15    22    1
    27    15    16   ar
    28    42    34    1
    29    34    33   ar
    30    27    23    1
    31    27    28    1
    32    27    29    1
    33    26    22   ar
    34    26    25   ar
    35     3    11    1
    36    32    25    1
    37    32    33   ar
    38    22    23   ar
    39    25    24   ar
    40    23    24   ar
    41    12    16   ar
    42    24    31    1
    43    33    38    1
    44    31    30    3
    45    11    10    3
