@<TRIPOS>MOLECULE
mol_data/opt/b3lyp/geoms/mol2/12hd12hd12hd12hd.out
 42 45 0 0 0
SMALL
GASTEIGER

@<TRIPOS>ATOM
      1 C           0.4444    1.7346    0.6324 C.ar    1  LIG1        0.1146
      2 C           1.7562    1.7168    0.2630 C.ar    1  LIG1        0.0812
      3 C           2.0793    3.0834   -0.0900 C.ar    1  LIG1        0.1211
      4 C           0.9232    3.8353    0.1169 C.ar    1  LIG1        0.1907
      5 O          -0.0601    3.0189    0.5518 O.2     1  LIG1       -0.4565
      6 H          -0.2451    0.9783    0.9675 H       1  LIG1        0.1049
      7 N           2.6649    0.6665    0.2650 N.pl3   1  LIG1       -0.3545
      8 H           2.2475   -0.2523    0.2052 H       1  LIG1        0.1424
      9 H           3.4211    0.7713   -0.3996 H       1  LIG1        0.1424
     10 N           4.3214    3.8832   -1.0765 N.1     1  LIG1       -0.1907
     11 C           3.3068    3.5211   -0.6241 C.1     1  LIG1        0.1049
     12 C           0.6092    5.2209   -0.0194 C.ar    1  LIG1        0.1938
     13 C           1.3498    6.3904   -0.1234 C.ar    1  LIG1        0.0925
     14 C           0.3807    7.4561   -0.2031 C.ar    1  LIG1        0.1219
     15 C          -0.8843    6.8718   -0.1116 C.ar    1  LIG1        0.1918
     16 O          -0.7473    5.5369   -0.0080 O.2     1  LIG1       -0.4453
     17 N           2.7003    6.5943   -0.0843 N.pl3   1  LIG1       -0.3539
     18 H           3.3227    5.8428   -0.3500 H       1  LIG1        0.1425
     19 H           3.0200    7.5132   -0.3549 H       1  LIG1        0.1425
     20 N           0.9693    9.9365   -0.5764 N.1     1  LIG1       -0.1907
     21 C           0.6980    8.8137   -0.4028 C.1     1  LIG1        0.1050
     22 C          -2.2104    7.3873   -0.1032 C.ar    1  LIG1        0.1939
     23 C          -2.7823    8.6468    0.0508 C.ar    1  LIG1        0.0925
     24 C          -4.2069    8.4341   -0.0182 C.ar    1  LIG1        0.1219
     25 C          -4.4126    7.0641   -0.1821 C.ar    1  LIG1        0.1917
     26 O          -3.2236    6.4402   -0.2357 O.2     1  LIG1       -0.4453
     27 N          -2.2121    9.8591    0.2919 N.pl3   1  LIG1       -0.3539
     28 H          -1.2386   10.0179    0.0719 H       1  LIG1        0.1425
     29 H          -2.8082   10.6696    0.2117 H       1  LIG1        0.1425
     30 N          -5.9605   10.3212    0.0414 N.1     1  LIG1       -0.1907
     31 C          -5.1711    9.4612    0.0176 C.1     1  LIG1        0.1050
     32 C          -5.5752    6.2473   -0.2955 C.ar    1  LIG1        0.1928
     33 C          -6.9391    6.4259   -0.0708 C.ar    1  LIG1        0.0917
     34 C          -7.5400    5.1402   -0.3569 C.ar    1  LIG1        0.1107
     35 C          -6.5191    4.2982   -0.7149 C.ar    1  LIG1        0.1119
     36 O          -5.3455    4.9314   -0.6859 O.2     1  LIG1       -0.4566
     37 H          -6.5099    3.2594   -1.0071 H       1  LIG1        0.1043
     38 N          -7.6388    7.4960    0.3902 N.pl3   1  LIG1       -0.3540
     39 H          -7.2488    8.4270    0.3497 H       1  LIG1        0.1425
     40 H          -8.6455    7.4403    0.3460 H       1  LIG1        0.1425
     41 N         -10.0713    4.6677   -0.1862 N.1     1  LIG1       -0.1907
     42 C          -8.9244    4.8492   -0.2699 C.1     1  LIG1        0.1042
@<TRIPOS>BOND
     1    10    11    3
     2    37    35    1
     3    35    36   ar
     4    35    34   ar
     5    36    32   ar
     6    11     3    1
     7    20    21    3
     8    21    14    1
     9     9     7    1
    10    34    42    1
    11    34    33   ar
    12    19    17    1
    13    18    17    1
    14    32    25    1
    15    32    33   ar
    16    42    41    3
    17    26    25   ar
    18    26    22   ar
    19    14    13   ar
    20    14    15   ar
    21    25    24   ar
    22    13    17    1
    23    13    12   ar
    24    15    22    1
    25    15    16   ar
    26    22    23   ar
    27     3     4   ar
    28     3     2   ar
    29    33    38    1
    30    12    16   ar
    31    12     4    1
    32    24    31    1
    33    24    23   ar
    34    31    30    3
    35    23    27    1
    36    28    27    1
    37     4     5   ar
    38     8     7    1
    39    29    27    1
    40     2     7    1
    41     2     1   ar
    42    40    38    1
    43    39    38    1
    44     5     1   ar
    45     1     6    1
