@<TRIPOS>MOLECULE
mol_data/opt/b3lyp/geoms/mol2/12hd12hd12hd12hd-.out
 42 45 0 0 0
SMALL
GASTEIGER

@<TRIPOS>ATOM
      1 C           0.2035    1.7464    0.3250 C.ar    1  LIG1        0.1146
      2 C           1.5352    1.7061    0.0402 C.ar    1  LIG1        0.0812
      3 C           1.9301    3.0824   -0.1785 C.ar    1  LIG1        0.1211
      4 C           0.7907    3.8634    0.0149 C.ar    1  LIG1        0.1907
      5 O          -0.2504    3.0547    0.3168 O.2     1  LIG1       -0.4565
      6 H          -0.5308    0.9942    0.5583 H       1  LIG1        0.1049
      7 N           2.4052    0.6248    0.0150 N.pl3   1  LIG1       -0.3545
      8 H           1.9641   -0.2706   -0.1450 H       1  LIG1        0.1424
      9 H           3.2107    0.7528   -0.5841 H       1  LIG1        0.1424
     10 N           4.2634    3.8583   -0.9479 N.1     1  LIG1       -0.1907
     11 C           3.2070    3.5081   -0.5922 C.1     1  LIG1        0.1049
     12 C           0.5302    5.2640   -0.0307 C.ar    1  LIG1        0.1938
     13 C           1.3041    6.4171   -0.0408 C.ar    1  LIG1        0.0925
     14 C           0.3691    7.5161   -0.0620 C.ar    1  LIG1        0.1219
     15 C          -0.9152    6.9664   -0.0433 C.ar    1  LIG1        0.1918
     16 O          -0.8186    5.6212   -0.0283 O.2     1  LIG1       -0.4453
     17 N           2.6565    6.5786    0.0388 N.pl3   1  LIG1       -0.3539
     18 H           3.2697    5.8218   -0.2318 H       1  LIG1        0.1425
     19 H           3.0132    7.5025   -0.1567 H       1  LIG1        0.1425
     20 N           1.0489    9.9992   -0.1605 N.1     1  LIG1       -0.1907
     21 C           0.7330    8.8757   -0.1103 C.1     1  LIG1        0.1050
     22 C          -2.2303    7.4964   -0.0440 C.ar    1  LIG1        0.1939
     23 C          -2.8186    8.7614   -0.0217 C.ar    1  LIG1        0.0925
     24 C          -4.2448    8.5366   -0.0400 C.ar    1  LIG1        0.1219
     25 C          -4.4361    7.1613   -0.0641 C.ar    1  LIG1        0.1917
     26 O          -3.2428    6.5330   -0.0665 O.2     1  LIG1       -0.4453
     27 N          -2.2610    9.9925    0.0403 N.pl3   1  LIG1       -0.3539
     28 H          -1.2669   10.1410   -0.0472 H       1  LIG1        0.1425
     29 H          -2.8630   10.7970   -0.0394 H       1  LIG1        0.1425
     30 N          -5.9516   10.4673   -0.0266 N.1     1  LIG1       -0.1907
     31 C          -5.2135    9.5653   -0.0317 C.1     1  LIG1        0.1050
     32 C          -5.5674    6.3112   -0.0886 C.ar    1  LIG1        0.1928
     33 C          -5.6606    4.9241   -0.0913 C.ar    1  LIG1        0.0917
     34 C          -7.0786    4.6448   -0.1375 C.ar    1  LIG1        0.1107
     35 C          -7.7160    5.8616   -0.1541 C.ar    1  LIG1        0.1119
     36 O          -6.8339    6.8678   -0.1240 O.2     1  LIG1       -0.4566
     37 H          -8.7610    6.1281   -0.1863 H       1  LIG1        0.1043
     38 N          -4.6669    4.0049   -0.0276 N.pl3   1  LIG1       -0.3540
     39 H          -4.8842    3.0329   -0.1769 H       1  LIG1        0.1425
     40 H          -3.7047    4.2991   -0.0965 H       1  LIG1        0.1425
     41 N          -8.0818    2.2674   -0.1873 N.1     1  LIG1       -0.1907
     42 C          -7.6603    3.3523   -0.1635 C.1     1  LIG1        0.1042
@<TRIPOS>BOND
     1    10    11    3
     2    11     3    1
     3     9     7    1
     4    18    17    1
     5    41    42    3
     6    37    35    1
     7     3     4   ar
     8     3     2   ar
     9    39    38    1
    10    42    34    1
    11    20    21    3
    12    19    17    1
    13    35    34   ar
    14    35    36   ar
    15     8     7    1
    16    34    33   ar
    17    36    32   ar
    18    21    14    1
    19    40    38    1
    20    33    32   ar
    21    33    38    1
    22    32    25    1
    23    26    25   ar
    24    26    22   ar
    25    25    24   ar
    26    14    15   ar
    27    14    13   ar
    28    28    27    1
    29    22    15    1
    30    22    23   ar
    31    15    16   ar
    32    13    12   ar
    33    13    17    1
    34    24    31    1
    35    24    23   ar
    36    29    27    1
    37    31    30    3
    38    12    16   ar
    39    12     4    1
    40    23    27    1
    41     4     5   ar
    42     7     2    1
    43     2     1   ar
    44     5     1   ar
    45     1     6    1
