@<TRIPOS>MOLECULE
mol_data/opt/b3lyp/geoms/mol2/12hd12hd.out
 22 23 0 0 0
SMALL
GASTEIGER

@<TRIPOS>ATOM
      1 C           0.1609    1.7760    0.1959 C.ar    1  LIG1        0.1146
      2 C           1.5085    1.7643   -0.0094 C.ar    1  LIG1        0.0812
      3 C           1.8859    3.1515   -0.1838 C.ar    1  LIG1        0.1211
      4 C           0.7223    3.9035   -0.0484 C.ar    1  LIG1        0.1907
      5 O          -0.3157    3.0731    0.1805 O.2     1  LIG1       -0.4565
      6 H          -0.5732    1.0071    0.3673 H       1  LIG1        0.1049
      7 N           2.3990    0.6991    0.0013 N.pl3   1  LIG1       -0.3545
      8 H           1.9827   -0.2011   -0.1948 H       1  LIG1        0.1424
      9 H           3.2325    0.8483   -0.5531 H       1  LIG1        0.1424
     10 N           4.2402    4.0049   -0.7931 N.1     1  LIG1       -0.1907
     11 C           3.1749    3.6171   -0.5122 C.1     1  LIG1        0.1049
     12 C           0.4434    5.3067   -0.0872 C.ar    1  LIG1        0.1928
     13 C           1.2035    6.4625    0.0387 C.ar    1  LIG1        0.0917
     14 C           0.2546    7.5520   -0.0618 C.ar    1  LIG1        0.1107
     15 C          -0.9827    6.9849   -0.2255 C.ar    1  LIG1        0.1119
     16 O          -0.8944    5.6521   -0.2461 O.2     1  LIG1       -0.4566
     17 H          -1.9656    7.4149   -0.3404 H       1  LIG1        0.1043
     18 N           2.5342    6.6344    0.2985 N.pl3   1  LIG1       -0.3540
     19 H           3.1883    5.9083    0.0383 H       1  LIG1        0.1425
     20 H           2.8883    7.5736    0.1864 H       1  LIG1        0.1425
     21 N           0.9011   10.0479    0.0583 N.1     1  LIG1       -0.1907
     22 C           0.5796    8.9302    0.0037 C.1     1  LIG1        0.1042
@<TRIPOS>BOND
     1    10    11    3
     2     9     7    1
     3    11     3    1
     4    17    15    1
     5    16    15   ar
     6    16    12   ar
     7    15    14   ar
     8     8     7    1
     9     3     4   ar
    10     3     2   ar
    11    12     4    1
    12    12    13   ar
    13    14    22    1
    14    14    13   ar
    15     4     5   ar
    16     2     7    1
    17     2     1   ar
    18    22    21    3
    19    19    18    1
    20    13    18    1
    21     5     1   ar
    22    20    18    1
    23     1     6    1
