@<TRIPOS>MOLECULE
mol_data/opt/b3lyp/geoms/mol2/12hd12hd12hd-12hd.out
 42 45 0 0 0
SMALL
GASTEIGER

@<TRIPOS>ATOM
      1 C           0.2497    1.7027    0.1770 C.ar    1  LIG1        0.1146
      2 C           1.5925    1.6887   -0.0520 C.ar    1  LIG1        0.0812
      3 C           1.9803    3.0770   -0.1978 C.ar    1  LIG1        0.1211
      4 C           0.8240    3.8373   -0.0228 C.ar    1  LIG1        0.1907
      5 O          -0.2194    3.0061    0.2014 O.2     1  LIG1       -0.4565
      6 H          -0.4855    0.9345    0.3466 H       1  LIG1        0.1049
      7 N           2.4757    0.6182   -0.0833 N.pl3   1  LIG1       -0.3545
      8 H           2.0522   -0.2741   -0.2985 H       1  LIG1        0.1424
      9 H           3.3043    0.7787   -0.6419 H       1  LIG1        0.1424
     10 N           4.3348    3.9118   -0.8283 N.1     1  LIG1       -0.1907
     11 C           3.2686    3.5339   -0.5353 C.1     1  LIG1        0.1049
     12 C           0.5427    5.2333   -0.0264 C.ar    1  LIG1        0.1938
     13 C           1.2907    6.4048    0.0220 C.ar    1  LIG1        0.0925
     14 C           0.3349    7.4854    0.0195 C.ar    1  LIG1        0.1219
     15 C          -0.9320    6.9073   -0.0152 C.ar    1  LIG1        0.1918
     16 O          -0.8191    5.5633   -0.0444 O.2     1  LIG1       -0.4453
     17 N           2.6369    6.5871    0.1378 N.pl3   1  LIG1       -0.3539
     18 H           3.2721    5.8465   -0.1271 H       1  LIG1        0.1425
     19 H           2.9825    7.5220   -0.0200 H       1  LIG1        0.1425
     20 N           0.8422   10.0111    0.0857 N.1     1  LIG1       -0.1907
     21 C           0.6195    8.8656    0.0583 C.1     1  LIG1        0.1050
     22 C          -2.2330    7.4453   -0.0347 C.ar    1  LIG1        0.1939
     23 C          -3.4905    6.8557   -0.0558 C.ar    1  LIG1        0.0925
     24 C          -4.4367    7.9402   -0.0855 C.ar    1  LIG1        0.1219
     25 C          -3.6914    9.1191   -0.0745 C.ar    1  LIG1        0.1917
     26 O          -2.3704    8.8298   -0.0427 O.2     1  LIG1       -0.4453
     27 N          -3.7938    5.5342   -0.0147 N.pl3   1  LIG1       -0.3539
     28 H          -4.7389    5.2459   -0.2135 H       1  LIG1        0.1425
     29 H          -3.0548    4.8583   -0.1315 H       1  LIG1        0.1425
     30 N          -6.9837    7.5571   -0.1637 N.1     1  LIG1       -0.1907
     31 C          -5.8396    7.7765   -0.1257 C.1     1  LIG1        0.1050
     32 C          -4.0293   10.4915   -0.0887 C.ar    1  LIG1        0.1928
     33 C          -3.2509   11.6485   -0.0876 C.ar    1  LIG1        0.0917
     34 C          -4.2067   12.7368   -0.1025 C.ar    1  LIG1        0.1107
     35 C          -5.4546   12.1655   -0.1124 C.ar    1  LIG1        0.1119
     36 O          -5.3742   10.8310   -0.1047 O.2     1  LIG1       -0.4566
     37 H          -6.4440   12.5959   -0.1245 H       1  LIG1        0.1043
     38 N          -1.9096   11.7897   -0.0897 N.pl3   1  LIG1       -0.3540
     39 H          -1.2773   11.0038   -0.0298 H       1  LIG1        0.1425
     40 H          -1.5080   12.7122   -0.0391 H       1  LIG1        0.1425
     41 N          -3.5599   15.2353   -0.1059 N.1     1  LIG1       -0.1907
     42 C          -3.8807   14.1163   -0.1052 C.1     1  LIG1        0.1042
@<TRIPOS>BOND
     1    10    11    3
     2     9     7    1
     3    11     3    1
     4     8     7    1
     5    28    27    1
     6     3     2   ar
     7     3     4   ar
     8    30    31    3
     9    29    27    1
    10    18    17    1
    11    31    24    1
    12    37    35    1
    13    35    36   ar
    14    35    34   ar
    15    41    42    3
    16    42    34    1
    17    36    32   ar
    18    34    33   ar
    19    38    33    1
    20    38    40    1
    21    38    39    1
    22    32    33   ar
    23    32    25    1
    24    24    25   ar
    25    24    23   ar
    26     7     2    1
    27    25    26   ar
    28    23    22   ar
    29    23    27    1
    30     2     1   ar
    31    16    12   ar
    32    16    15   ar
    33    26    22   ar
    34    22    15    1
    35    12     4    1
    36    12    13   ar
    37     4     5   ar
    38    19    17    1
    39    15    14   ar
    40    14    13   ar
    41    14    21    1
    42    13    17    1
    43    21    20    3
    44     1     5   ar
    45     1     6    1
