@<TRIPOS>MOLECULE
mol_data/opt/b3lyp/geoms/mol2/12hd12hd12hd.out
 32 34 0 0 0
SMALL
GASTEIGER

@<TRIPOS>ATOM
      1 C           0.2758    1.7136    0.3816 C.ar    1  LIG1        0.1146
      2 C           1.6082    1.7012    0.0941 C.ar    1  LIG1        0.0812
      3 C           1.9643    3.0821   -0.1569 C.ar    1  LIG1        0.1211
      4 C           0.8042    3.8342    0.0215 C.ar    1  LIG1        0.1907
      5 O          -0.2114    3.0064    0.3454 O.2     1  LIG1       -0.4565
      6 H          -0.4401    0.9477    0.6275 H       1  LIG1        0.1049
      7 N           2.5056    0.6416    0.0907 N.pl3   1  LIG1       -0.3545
      8 H           2.0851   -0.2671   -0.0488 H       1  LIG1        0.1424
      9 H           3.3039    0.7755   -0.5169 H       1  LIG1        0.1424
     10 N           4.2708    3.9147   -0.9488 N.1     1  LIG1       -0.1907
     11 C           3.2270    3.5369   -0.5847 C.1     1  LIG1        0.1049
     12 C           0.5104    5.2296   -0.0530 C.ar    1  LIG1        0.1938
     13 C           1.2637    6.3953   -0.0424 C.ar    1  LIG1        0.0925
     14 C           0.3069    7.4732   -0.1213 C.ar    1  LIG1        0.1219
     15 C          -0.9621    6.8973   -0.1443 C.ar    1  LIG1        0.1917
     16 O          -0.8415    5.5585   -0.1088 O.2     1  LIG1       -0.4453
     17 N           2.6102    6.5839    0.0927 N.pl3   1  LIG1       -0.3539
     18 H           3.2435    5.8419   -0.1744 H       1  LIG1        0.1425
     19 H           2.9524    7.5130   -0.1057 H       1  LIG1        0.1425
     20 N           0.9267    9.9677   -0.3046 N.1     1  LIG1       -0.1907
     21 C           0.6413    8.8388   -0.2177 C.1     1  LIG1        0.1050
     22 C          -2.2863    7.4266   -0.1918 C.ar    1  LIG1        0.1928
     23 C          -2.8596    8.6791    0.0124 C.ar    1  LIG1        0.0917
     24 C          -4.2824    8.4760   -0.1623 C.ar    1  LIG1        0.1107
     25 C          -4.4603    7.1457   -0.4419 C.ar    1  LIG1        0.1119
     26 O          -3.2909    6.5033   -0.4651 O.2     1  LIG1       -0.4566
     27 H          -5.3459    6.5624   -0.6413 H       1  LIG1        0.1043
     28 N          -2.3078    9.8675    0.3820 N.pl3   1  LIG1       -0.3540
     29 H          -1.3231   10.0420    0.2363 H       1  LIG1        0.1425
     30 H          -2.9030   10.6809    0.3274 H       1  LIG1        0.1425
     31 N          -6.0405   10.3544    0.0416 N.1     1  LIG1       -0.1907
     32 C          -5.2711    9.4858   -0.0541 C.1     1  LIG1        0.1042
@<TRIPOS>BOND
     1    10    11    3
     2    27    25    1
     3    11     3    1
     4     9     7    1
     5    26    25   ar
     6    26    22   ar
     7    25    24   ar
     8    20    21    3
     9    21    14    1
    10    22    15    1
    11    22    23   ar
    12    18    17    1
    13    24    32    1
    14    24    23   ar
    15     3     4   ar
    16     3     2   ar
    17    15    14   ar
    18    15    16   ar
    19    14    13   ar
    20    16    12   ar
    21    19    17    1
    22    32    31    3
    23    12    13   ar
    24    12     4    1
    25     8     7    1
    26    13    17    1
    27    23    28    1
    28     4     5   ar
    29     7     2    1
    30     2     1   ar
    31    29    28    1
    32    30    28    1
    33     5     1   ar
    34     1     6    1
