@<TRIPOS>MOLECULE
mol_data/opt/b3lyp/geoms/mol2/12hd4ea-12af-4ie6hh6ea4ea13il.out
 98 105 0 0 0
SMALL
GASTEIGER

@<TRIPOS>ATOM
      1 C           1.4932    1.5910    1.5121 C.ar    1  LIG1        0.1145
      2 C           2.5720    1.4922    0.6818 C.ar    1  LIG1        0.0811
      3 C           2.7713    2.8224    0.1473 C.ar    1  LIG1        0.1180
      4 C           1.7975    3.6359    0.7058 C.ar    1  LIG1        0.1551
      5 O           1.0226    2.8833    1.5250 O.2     1  LIG1       -0.4597
      6 H           0.9770    0.8908    2.1475 H       1  LIG1        0.1049
      7 N           3.3875    0.4023    0.4105 N.pl3   1  LIG1       -0.3545
      8 H           2.9369   -0.4985    0.4942 H       1  LIG1        0.1424
      9 H           3.9033    0.4827   -0.4570 H       1  LIG1        0.1424
     10 N           4.5060    3.2072   -1.7198 N.1     1  LIG1       -0.1907
     11 C           3.7192    3.1017   -0.8667 C.1     1  LIG1        0.1048
     12 C           2.3193    6.1020    0.4187 C.ar    1  LIG1        0.0360
     13 C           1.8356    7.4077    0.2515 C.ar    1  LIG1       -0.0350
     14 C           1.3953    5.0298    0.5481 C.ar    1  LIG1        0.0340
     15 C           0.4641    7.6920    0.2283 C.ar    1  LIG1        0.0186
     16 H           2.5604    8.2087    0.1601 H       1  LIG1        0.0637
     17 C           0.0213    5.3313    0.5519 C.ar    1  LIG1       -0.0492
     18 C          -0.4420    6.6275    0.3952 C.ar    1  LIG1       -0.0503
     19 H          -0.6875    4.5190    0.6676 H       1  LIG1        0.0625
     20 C           3.7319    5.9172    0.5146 C.1     1  LIG1       -0.0689
     21 C           4.9336    5.8198    0.6128 C.1     1  LIG1       -0.1139
     22 H           5.9902    5.6951    0.6723 H       1  LIG1        0.1232
     23 H          -1.5074    6.8261    0.3908 H       1  LIG1        0.0625
     24 C          -0.0062    9.0552    0.0425 C.ar    1  LIG1        0.1394
     25 C           0.6338   10.2490   -0.1831 C.ar    1  LIG1        0.0264
     26 C          -0.3863   11.2341   -0.2791 C.ar    1  LIG1        0.1632
     27 C          -1.5971   10.6059   -0.0828 C.ar    1  LIG1        0.1771
     28 O          -1.3570    9.2591    0.0902 O.2     1  LIG1       -0.4510
     29 H           1.6936   10.4185   -0.2972 H       1  LIG1        0.0692
     30 O          -0.1382   12.5423   -0.5651 O.3     1  LIG1       -0.5032
     31 H          -0.9540   12.9477   -0.8888 H       1  LIG1        0.2923
     32 C          -3.4460   12.1980    0.5607 C.ar    1  LIG1       -0.0390
     33 C          -4.7882   12.5643    0.4195 C.ar    1  LIG1       -0.0492
     34 C          -2.9891   11.0517   -0.1368 C.ar    1  LIG1        0.0250
     35 C          -5.7142   11.8397   -0.3414 C.ar    1  LIG1        0.0011
     36 H          -5.1491   13.4318    0.9645 H       1  LIG1        0.0627
     37 C          -3.9043   10.3082   -0.8943 C.ar    1  LIG1       -0.0347
     38 C          -5.2518   10.6768   -1.0088 C.ar    1  LIG1        0.0332
     39 H          -3.5573    9.4286   -1.4251 H       1  LIG1        0.0637
     40 C          -2.5596   12.9715    1.5091 C.3     1  LIG1       -0.0390
     41 H          -3.1525   13.6675    2.1069 H       1  LIG1        0.0278
     42 H          -1.7803   13.5508    1.0027 H       1  LIG1        0.0278
     43 H          -2.0372   12.2915    2.1901 H       1  LIG1        0.0278
     44 C          -6.1098    9.8850   -1.8354 C.1     1  LIG1       -0.0690
     45 C          -6.8164    9.1883   -2.5291 C.1     1  LIG1       -0.1139
     46 H          -7.4423    8.5928   -3.1529 H       1  LIG1        0.1232
     47 C          -8.2442   11.6062    0.0331 C.ar    1  LIG1        0.1247
     48 C          -7.1144   12.3362   -0.4270 C.ar    1  LIG1        0.0246
     49 C          -7.3496   13.6241   -0.9045 C.ar    1  LIG1       -0.0279
     50 C          -8.6345   14.1807   -0.9352 C.ar    1  LIG1        0.0517
     51 C          -9.6804   13.3756   -0.4398 C.ar    1  LIG1        0.0963
     52 N          -9.4698   12.1318    0.0133 N.ar    1  LIG1       -0.2299
     53 H          -6.5091   14.2073   -1.2737 H       1  LIG1        0.0644
     54 N          -8.1341   10.3498    0.6217 N.pl3   1  LIG1       -0.3426
     55 H          -9.0484    9.9323    0.7448 H       1  LIG1        0.1437
     56 H          -7.4810    9.7176    0.1788 H       1  LIG1        0.1437
     57 N          -8.8366   15.4930   -1.3970 N.pl3   1  LIG1       -0.3563
     58 H          -8.1321   15.7968   -2.0577 H       1  LIG1        0.1424
     59 H          -9.7642   15.6567   -1.7688 H       1  LIG1        0.1424
     60 C         -12.1770   13.1471   -0.9200 C.ar    1  LIG1        0.1230
     61 C         -11.0839   13.8693   -0.3788 C.ar    1  LIG1        0.0361
     62 C         -11.3932   15.0696    0.2725 C.ar    1  LIG1       -0.0478
     63 C         -12.7088   15.5025    0.3762 C.ar    1  LIG1       -0.0350
     64 C         -13.7269   14.7219   -0.1950 C.ar    1  LIG1        0.0736
     65 N         -13.4495   13.5670   -0.8229 N.ar    1  LIG1       -0.2377
     66 H         -10.5931   15.6533    0.7170 H       1  LIG1        0.0626
     67 C         -11.9904   11.9282   -1.6576 C.1     1  LIG1       -0.0491
     68 C         -11.8800   10.9210   -2.3167 C.1     1  LIG1       -0.1124
     69 H         -11.7766   10.0279   -2.8877 H       1  LIG1        0.1232
     70 H         -12.9434   16.4159    0.9056 H       1  LIG1        0.0639
     71 C         -15.6805   16.3944   -0.0732 C.ar    1  LIG1        0.0345
     72 C         -17.0671   16.6072    0.0259 C.ar    1  LIG1       -0.0366
     73 C         -15.1702   15.0700   -0.1038 C.ar    1  LIG1        0.0158
     74 C         -17.9812   15.5483    0.1092 C.ar    1  LIG1       -0.0001
     75 H         -17.4272   17.6282    0.0008 H       1  LIG1        0.0636
     76 C         -16.0968   14.0162   -0.0510 C.ar    1  LIG1       -0.0508
     77 C         -17.4599   14.2393    0.0656 C.ar    1  LIG1       -0.0519
     78 H         -15.7114   13.0039   -0.0895 H       1  LIG1        0.0625
     79 C         -14.8640   17.5634   -0.2102 C.1     1  LIG1       -0.0690
     80 C         -14.2450   18.5970   -0.3321 C.1     1  LIG1       -0.1139
     81 H         -13.6837   19.4954   -0.4453 H       1  LIG1        0.1232
     82 H         -18.1276   13.3878    0.1614 H       1  LIG1        0.0624
     83 C         -19.4180   15.7901    0.2160 C.ar    1  LIG1        0.0530
     84 C         -20.1451   16.8231    0.8084 C.ar    1  LIG1        0.0164
     85 C         -21.5223   16.4932    0.6371 C.ar    1  LIG1        0.1408
     86 C         -21.6132   15.2961   -0.0445 C.ar    1  LIG1        0.0446
     87 N         -20.3302   14.8702   -0.2732 N.ar    1  LIG1       -0.3574
     88 H         -20.0796   14.0861   -0.8533 H       1  LIG1        0.1655
     89 H         -22.4757   14.7288   -0.3580 H       1  LIG1        0.0844
     90 C         -19.6410   18.0080    1.5777 C.3     1  LIG1       -0.0342
     91 H         -20.3976   18.3256    2.3016 H       1  LIG1        0.0279
     92 H         -19.4258   18.8712    0.9339 H       1  LIG1        0.0279
     93 H         -18.7227   17.7750    2.1248 H       1  LIG1        0.0279
     94 O         -22.5853   17.2047    1.1382 O.3     1  LIG1       -0.4933
     95 C         -22.9750   18.3178    0.3362 C.3     1  LIG1        0.0789
     96 H         -23.8148   18.7938    0.8476 H       1  LIG1        0.0660
     97 H         -22.1609   19.0458    0.2273 H       1  LIG1        0.0660
     98 H         -23.2933   17.9957   -0.6641 H       1  LIG1        0.0660
@<TRIPOS>BOND
     1    46    45    1
     2    69    68    1
     3    45    44    3
     4    68    67    3
     5    58    57    1
     6    44    38    1
     7    59    57    1
     8    10    11    3
     9    67    60    1
    10    39    37    1
    11    57    50    1
    12    53    49    1
    13    38    37   ar
    14    38    35   ar
    15    50    49   ar
    16    50    51   ar
    17    60    65   ar
    18    60    61   ar
    19    49    48   ar
    20    37    34   ar
    21    31    30    1
    22    11     3    1
    23    88    87    1
    24    65    64   ar
    25    98    95    1
    26    30    26    1
    27     9     7    1
    28    81    80    1
    29    51    61    1
    30    51    52   ar
    31    48    35    1
    32    48    47   ar
    33    61    62   ar
    34    89    86    1
    35    35    33   ar
    36    80    79    3
    37    29    25    1
    38    26    25   ar
    39    26    27   ar
    40    87    86   ar
    41    87    83   ar
    42    79    71    1
    43    64    73    1
    44    64    63   ar
    45    25    24   ar
    46    34    27    1
    47    34    32   ar
    48    73    71   ar
    49    73    76   ar
    50    78    76    1
    51    27    28   ar
    52    71    72   ar
    53    76    77   ar
    54    86    85   ar
    55    75    72    1
    56    52    47   ar
    57    72    74   ar
    58    47    54    1
    59    24    28   ar
    60    24    15    1
    61    77    74   ar
    62    77    82    1
    63    74    83    1
    64     3     2   ar
    65     3     4   ar
    66    16    13    1
    67    56    54    1
    68    83    84   ar
    69    97    95    1
    70    15    13   ar
    71    15    18   ar
    72    13    12   ar
    73    62    63   ar
    74    62    66    1
    75    95    96    1
    76    95    94    1
    77    63    70    1
    78    23    18    1
    79    18    17   ar
    80     7     8    1
    81     7     2    1
    82    12    20    1
    83    12    14   ar
    84    33    32   ar
    85    33    36    1
    86    20    21    3
    87    14    17   ar
    88    14     4    1
    89    17    19    1
    90    32    40    1
    91    21    22    1
    92    54    55    1
    93    85    84   ar
    94    85    94    1
    95     2     1   ar
    96     4     5   ar
    97    84    90    1
    98    92    90    1
    99    42    40    1
   100    40    41    1
   101    40    43    1
   102     1     5   ar
   103     1     6    1
   104    90    93    1
   105    90    91    1
