@<TRIPOS>MOLECULE
mol_data/opt/b3lyp/geoms/mol2/12hd6ae13he13hi.out
 48 51 0 0 0
SMALL
GASTEIGER

@<TRIPOS>ATOM
      1 C          -0.1067    1.8305    0.5633 C.ar    1  LIG1        0.1145
      2 C           1.2438    1.6630    0.4688 C.ar    1  LIG1        0.0811
      3 C           1.7818    2.9845    0.2271 C.ar    1  LIG1        0.1180
      4 C           0.7059    3.8634    0.1953 C.ar    1  LIG1        0.1554
      5 O          -0.4320    3.1607    0.4012 O.2     1  LIG1       -0.4597
      6 H          -0.9294    1.1602    0.7474 H       1  LIG1        0.1049
      7 N           2.0097    0.5176    0.6374 N.pl3   1  LIG1       -0.3545
      8 H           1.5290   -0.3491    0.4390 H       1  LIG1        0.1424
      9 H           2.9136    0.5548    0.1836 H       1  LIG1        0.1424
     10 N           4.2994    3.4311   -0.1111 N.1     1  LIG1       -0.1907
     11 C           3.1561    3.2601    0.0448 C.1     1  LIG1        0.1048
     12 C          -0.6936    5.9104   -0.0004 C.ar    1  LIG1        0.0391
     13 C           0.5764    5.2918   -0.0049 C.ar    1  LIG1        0.0379
     14 C           1.6694    6.1296   -0.2618 C.ar    1  LIG1       -0.0320
     15 C           1.4926    7.5061   -0.4380 C.ar    1  LIG1        0.0528
     16 C           0.1790    8.0546   -0.2723 C.ar    1  LIG1        0.1043
     17 N          -0.8837    7.2112   -0.1219 N.ar    1  LIG1       -0.2515
     18 H           2.6688    5.7235   -0.3684 H       1  LIG1        0.0638
     19 H          -1.5867    5.3016    0.1142 H       1  LIG1        0.0837
     20 C           2.6120    8.2566   -0.9028 C.1     1  LIG1       -0.0674
     21 C           3.5874    8.8330   -1.3353 C.1     1  LIG1       -0.1138
     22 H           4.4360    9.3226   -1.7548 H       1  LIG1        0.1232
     23 C          -0.1824    9.4450   -0.2674 C.ar    1  LIG1        0.0888
     24 C           0.4529   10.6696    0.0235 C.ar    1  LIG1        0.0680
     25 C          -0.5551   11.6919   -0.0002 C.ar    1  LIG1        0.0727
     26 C          -1.7954   11.0699   -0.2611 C.ar    1  LIG1        0.0826
     27 N          -1.5421    9.7461   -0.4353 N.ar    1  LIG1       -0.3493
     28 H          -2.2185    8.9965   -0.3900 H       1  LIG1        0.1661
     29 N           1.7506   10.9224    0.3817 N.pl3   1  LIG1       -0.3553
     30 H           2.4676   10.3060    0.0223 H       1  LIG1        0.1424
     31 H           1.9961   11.9031    0.3955 H       1  LIG1        0.1424
     32 C          -0.2710   13.0683    0.1288 C.1     1  LIG1       -0.0656
     33 C           0.0325   14.2385    0.2559 C.1     1  LIG1       -0.1138
     34 H           0.2944   15.2693    0.3128 H       1  LIG1        0.1232
     35 C          -3.1244   11.5951   -0.4012 C.ar    1  LIG1        0.0853
     36 C          -3.7876   12.6810    0.1811 C.ar    1  LIG1        0.0546
     37 C          -5.1488   12.6520   -0.2665 C.ar    1  LIG1       -0.0118
     38 C          -5.2742   11.5596   -1.0975 C.ar    1  LIG1        0.0069
     39 N          -4.0798   10.8926   -1.1470 N.ar    1  LIG1       -0.3578
     40 H          -3.8243   10.2578   -1.8876 H       1  LIG1        0.1654
     41 H          -6.1324   11.2125   -1.6550 H       1  LIG1        0.0810
     42 N          -3.3036   13.5614    1.1418 N.pl3   1  LIG1       -0.3561
     43 H          -2.3062   13.7382    1.1019 H       1  LIG1        0.1424
     44 H          -3.8271   14.4251    1.1962 H       1  LIG1        0.1424
     45 C          -6.2236   13.6113    0.1465 C.3     1  LIG1       -0.0365
     46 H          -7.1707   13.3771   -0.3474 H       1  LIG1        0.0279
     47 H          -5.9709   14.6482   -0.1131 H       1  LIG1        0.0279
     48 H          -6.4006   13.5843    1.2292 H       1  LIG1        0.0279
@<TRIPOS>BOND
     1    40    39    1
     2    22    21    1
     3    41    38    1
     4    21    20    3
     5    39    38   ar
     6    39    35   ar
     7    38    37   ar
     8    20    15    1
     9    15    16   ar
    10    15    14   ar
    11    27    28    1
    12    27    23   ar
    13    27    26   ar
    14    35    26    1
    15    35    36   ar
    16    18    14    1
    17    46    45    1
    18    16    23    1
    19    16    17   ar
    20    23    24   ar
    21    37    45    1
    22    37    36   ar
    23    14    13   ar
    24    26    25   ar
    25    17    12   ar
    26    47    45    1
    27    10    11    3
    28    13    12   ar
    29    13     4    1
    30    12    19    1
    31    25    24   ar
    32    25    32    1
    33    30    29    1
    34    24    29    1
    35    11     3    1
    36    32    33    3
    37    45    48    1
    38    36    42    1
    39     9     7    1
    40     4     3   ar
    41     4     5   ar
    42     3     2   ar
    43    33    34    1
    44    29    31    1
    45     5     1   ar
    46     8     7    1
    47     2     1   ar
    48     2     7    1
    49     1     6    1
    50    43    42    1
    51    42    44    1
