@<TRIPOS>MOLECULE
mol_data/opt/b3lyp/geoms/mol2/12hd12hd12hd-12hd-.out
 42 45 0 0 0
SMALL
GASTEIGER

@<TRIPOS>ATOM
      1 C           0.1880    1.7138    0.1222 C.ar    1  LIG1        0.1146
      2 C           1.5392    1.6645   -0.0435 C.ar    1  LIG1        0.0812
      3 C           1.9735    3.0431   -0.1430 C.ar    1  LIG1        0.1211
      4 C           0.8327    3.8342   -0.0087 C.ar    1  LIG1        0.1907
      5 O          -0.2441    3.0301    0.1495 O.2     1  LIG1       -0.4565
      6 H          -0.5759    0.9648    0.2440 H       1  LIG1        0.1049
      7 N           2.3925    0.5697   -0.0539 N.pl3   1  LIG1       -0.3545
      8 H           1.9562   -0.3056   -0.3093 H       1  LIG1        0.1424
      9 H           3.2527    0.7180   -0.5659 H       1  LIG1        0.1424
     10 N           4.3833    3.8064   -0.6419 N.1     1  LIG1       -0.1907
     11 C           3.2910    3.4638   -0.4075 C.1     1  LIG1        0.1049
     12 C           0.5907    5.2373   -0.0004 C.ar    1  LIG1        0.1938
     13 C           1.3674    6.3880    0.0811 C.ar    1  LIG1        0.0925
     14 C           0.4420    7.4966    0.0645 C.ar    1  LIG1        0.1219
     15 C          -0.8351    6.9548   -0.0109 C.ar    1  LIG1        0.1918
     16 O          -0.7569    5.6058   -0.0515 O.2     1  LIG1       -0.4453
     17 N           2.7123    6.5386    0.2307 N.pl3   1  LIG1       -0.3539
     18 H           3.3421    5.7878   -0.0152 H       1  LIG1        0.1425
     19 H           3.0794    7.4717    0.1143 H       1  LIG1        0.1425
     20 N           1.2217    9.9508    0.1642 N.1     1  LIG1       -0.1907
     21 C           0.8257    8.8551    0.1206 C.1     1  LIG1        0.1050
     22 C          -2.1389    7.4989   -0.0617 C.ar    1  LIG1        0.1939
     23 C          -3.3827    6.8893   -0.1331 C.ar    1  LIG1        0.0925
     24 C          -4.3358    7.9661   -0.2011 C.ar    1  LIG1        0.1219
     25 C          -3.6072    9.1589   -0.1468 C.ar    1  LIG1        0.1917
     26 O          -2.2912    8.8754   -0.0633 O.2     1  LIG1       -0.4453
     27 N          -3.6731    5.5599   -0.1036 N.pl3   1  LIG1       -0.3539
     28 H          -4.5868    5.2615   -0.4075 H       1  LIG1        0.1425
     29 H          -2.9124    4.9068   -0.2186 H       1  LIG1        0.1425
     30 N          -6.8764    7.6573   -0.5020 N.1     1  LIG1       -0.1907
     31 C          -5.7267    7.8034   -0.3603 C.1     1  LIG1        0.1050
     32 C          -3.9627   10.5374   -0.1526 C.ar    1  LIG1        0.1928
     33 C          -5.1464   11.2608   -0.0109 C.ar    1  LIG1        0.0917
     34 C          -4.7491   12.6508   -0.0822 C.ar    1  LIG1        0.1107
     35 C          -3.3877   12.6644   -0.2477 C.ar    1  LIG1        0.1119
     36 O          -2.9004   11.4245   -0.2927 O.2     1  LIG1       -0.4566
     37 H          -2.6800   13.4732   -0.3466 H       1  LIG1        0.1043
     38 N          -6.4214   10.8545    0.2229 N.pl3   1  LIG1       -0.3540
     39 H          -7.1468   11.5534    0.1617 H       1  LIG1        0.1425
     40 H          -6.7077    9.9036    0.0383 H       1  LIG1        0.1425
     41 N          -6.4076   14.6210    0.0834 N.1     1  LIG1       -0.1907
     42 C          -5.6331   13.7549    0.0079 C.1     1  LIG1        0.1042
@<TRIPOS>BOND
     1    10    11    3
     2     9     7    1
     3    30    31    3
     4    28    27    1
     5    11     3    1
     6    31    24    1
     7    37    35    1
     8     8     7    1
     9    36    35   ar
    10    36    32   ar
    11    35    34   ar
    12    29    27    1
    13    24    25   ar
    14    24    23   ar
    15    32    25    1
    16    32    33   ar
    17    25    26   ar
    18     3     2   ar
    19     3     4   ar
    20    23    27    1
    21    23    22   ar
    22    34    33   ar
    23    34    42    1
    24    26    22   ar
    25    22    15    1
    26     7     2    1
    27    16    15   ar
    28    16    12   ar
    29     2     1   ar
    30    18    17    1
    31    15    14   ar
    32    33    38    1
    33     4    12    1
    34     4     5   ar
    35    12    13   ar
    36    42    41    3
    37    40    38    1
    38    14    13   ar
    39    14    21    1
    40    13    17    1
    41    19    17    1
    42    21    20    3
    43     1     5   ar
    44     1     6    1
    45    39    38    1
