@<TRIPOS>MOLECULE
mol_data/opt/b3lyp/geoms/mol2/12hd13id-12id-12ed.out
 45 48 0 0 0
SMALL
GASTEIGER

@<TRIPOS>ATOM
      1 C           0.3306    1.9342    0.9593 C.ar    1  LIG1        0.1145
      2 C           1.5149    1.7463    0.3080 C.ar    1  LIG1        0.0811
      3 C           1.8951    3.0499   -0.1983 C.ar    1  LIG1        0.1194
      4 C           0.9127    3.9408    0.2065 C.ar    1  LIG1        0.1703
      5 O          -0.0349    3.2646    0.9033 O.2     1  LIG1       -0.4582
      6 H          -0.3357    1.2820    1.4983 H       1  LIG1        0.1049
      7 N           2.2801    0.6004    0.1730 N.pl3   1  LIG1       -0.3545
      8 H           1.7715   -0.2705    0.2334 H       1  LIG1        0.1424
      9 H           2.9202    0.6133   -0.6108 H       1  LIG1        0.1424
     10 N           3.9317    3.3449   -1.7512 N.1     1  LIG1       -0.1907
     11 C           3.0105    3.2606   -1.0420 C.1     1  LIG1        0.1049
     12 C           0.6678    5.3495    0.0387 C.ar    1  LIG1        0.0882
     13 C           1.4940    6.4374   -0.2414 C.ar    1  LIG1       -0.0040
     14 C           0.6462    7.5879   -0.2483 C.ar    1  LIG1        0.0836
     15 C          -0.6655    7.1797    0.0503 C.ar    1  LIG1        0.1007
     16 N          -0.6187    5.8266    0.2126 N.ar    1  LIG1       -0.3481
     17 H          -1.4152    5.2489    0.4367 H       1  LIG1        0.1661
     18 C           2.9751    6.4581   -0.4634 C.3     1  LIG1       -0.0364
     19 H           3.3609    7.4724   -0.3368 H       1  LIG1        0.0279
     20 H           3.2461    6.1208   -1.4685 H       1  LIG1        0.0279
     21 H           3.4928    5.8051    0.2448 H       1  LIG1        0.0279
     22 N           1.4518    9.9622   -0.8681 N.1     1  LIG1       -0.1908
     23 C           1.0744    8.8988   -0.5787 C.1     1  LIG1        0.1017
     24 C          -1.9149    7.8862    0.1731 C.ar    1  LIG1        0.1573
     25 C          -2.2913    9.1653    0.5112 C.ar    1  LIG1        0.0149
     26 C          -3.7319    9.1553    0.4837 C.ar    1  LIG1        0.1041
     27 C          -4.1342    7.8757    0.1388 C.ar    1  LIG1        0.1894
     28 O          -3.0309    7.1029   -0.0447 O.2     1  LIG1       -0.4486
     29 C          -1.4447   10.3330    0.9115 C.3     1  LIG1       -0.0348
     30 H          -2.0252   11.0222    1.5297 H       1  LIG1        0.0279
     31 H          -1.0780   10.8860    0.0416 H       1  LIG1        0.0279
     32 H          -0.5689   10.0103    1.4789 H       1  LIG1        0.0279
     33 N          -5.1552   11.1761    1.2291 N.1     1  LIG1       -0.1907
     34 C          -4.5443   10.2522    0.8719 C.1     1  LIG1        0.1034
     35 C          -5.4019    7.2306   -0.0539 C.ar    1  LIG1        0.1876
     36 C          -6.6592    7.6676   -0.4318 C.ar    1  LIG1        0.0908
     37 C          -7.4894    6.4776   -0.4381 C.ar    1  LIG1        0.1055
     38 C          -6.6772    5.4356   -0.0881 C.ar    1  LIG1        0.1113
     39 O          -5.4213    5.8706    0.1448 O.2     1  LIG1       -0.4572
     40 H          -6.8560    4.3783    0.0280 H       1  LIG1        0.1043
     41 C          -7.0655    8.9672   -0.8010 C.1     1  LIG1       -0.0645
     42 C          -7.4314   10.0703   -1.1339 C.1     1  LIG1       -0.1138
     43 H          -7.7404   11.0537   -1.4059 H       1  LIG1        0.1232
     44 N          -9.9989    6.3335   -1.0323 N.1     1  LIG1       -0.1907
     45 C          -8.8693    6.4010   -0.7647 C.1     1  LIG1        0.1036
@<TRIPOS>BOND
     1    10    11    3
     2    20    18    1
     3    43    42    1
     4    42    41    3
     5    11     3    1
     6    44    45    3
     7    22    23    3
     8    41    36    1
     9    45    37    1
    10     9     7    1
    11    23    14    1
    12    18    19    1
    13    18    13    1
    14    18    21    1
    15    37    36   ar
    16    37    38   ar
    17    36    35   ar
    18    14    13   ar
    19    14    15   ar
    20    13    12   ar
    21     3     4   ar
    22     3     2   ar
    23    38    40    1
    24    38    39   ar
    25    35    27    1
    26    35    39   ar
    27    28    27   ar
    28    28    24   ar
    29    12     4    1
    30    12    16   ar
    31    31    29    1
    32    15    24    1
    33    15    16   ar
    34    27    26   ar
    35     7     8    1
    36     7     2    1
    37    24    25   ar
    38     4     5   ar
    39    16    17    1
    40     2     1   ar
    41    26    25   ar
    42    26    34    1
    43    25    29    1
    44    34    33    3
    45     5     1   ar
    46    29    32    1
    47    29    30    1
    48     1     6    1
