@<TRIPOS>MOLECULE
mol_data/opt/b3lyp/geoms/mol2/12hd12hd-12hd-12hd-.out
 42 45 0 0 0
SMALL
GASTEIGER

@<TRIPOS>ATOM
      1 C           0.1092    1.7213    0.0343 C.ar    1  LIG1        0.1146
      2 C           1.4721    1.7073    0.0472 C.ar    1  LIG1        0.0812
      3 C           1.8896    3.0956    0.0298 C.ar    1  LIG1        0.1211
      4 C           0.7263    3.8537    0.0139 C.ar    1  LIG1        0.1907
      5 O          -0.3526    3.0318    0.0182 O.2     1  LIG1       -0.4565
      6 H          -0.6473    0.9557    0.0570 H       1  LIG1        0.1049
      7 N           2.3447    0.6328    0.1362 N.pl3   1  LIG1       -0.3545
      8 H           1.9882   -0.2412   -0.2246 H       1  LIG1        0.1424
      9 H           3.2766    0.8293   -0.2060 H       1  LIG1        0.1424
     10 N           4.3687    3.7990   -0.0376 N.1     1  LIG1       -0.1907
     11 C           3.2349    3.5277   -0.0000 C.1     1  LIG1        0.1049
     12 C           0.4670    5.2491   -0.0204 C.ar    1  LIG1        0.1938
     13 C          -0.7036    5.9821   -0.0854 C.ar    1  LIG1        0.0925
     14 C          -0.2971    7.3630   -0.1425 C.ar    1  LIG1        0.1219
     15 C           1.1022    7.3763   -0.0930 C.ar    1  LIG1        0.1918
     16 O           1.5537    6.1061   -0.0184 O.2     1  LIG1       -0.4453
     17 N          -1.9949    5.5268   -0.0482 N.pl3   1  LIG1       -0.3539
     18 H          -2.7055    6.1349   -0.4282 H       1  LIG1        0.1425
     19 H          -2.1266    4.5421   -0.2274 H       1  LIG1        0.1425
     20 N          -1.8985    9.3631   -0.4152 N.1     1  LIG1       -0.1907
     21 C          -1.1699    8.4596   -0.2834 C.1     1  LIG1        0.1050
     22 C           2.0967    8.3896   -0.1000 C.ar    1  LIG1        0.1939
     23 C           2.1198    9.7813   -0.0440 C.ar    1  LIG1        0.0925
     24 C           3.5150   10.1457   -0.0821 C.ar    1  LIG1        0.1219
     25 C           4.2496    8.9585   -0.1367 C.ar    1  LIG1        0.1917
     26 O           3.4043    7.9165   -0.1509 O.2     1  LIG1       -0.4453
     27 N           1.1078   10.6794    0.0801 N.pl3   1  LIG1       -0.3539
     28 H           1.3266   11.6547   -0.0541 H       1  LIG1        0.1425
     29 H           0.1498   10.4108   -0.0937 H       1  LIG1        0.1425
     30 N           4.3804   12.5723   -0.1310 N.1     1  LIG1       -0.1907
     31 C           3.9959   11.4700   -0.1035 C.1     1  LIG1        0.1050
     32 C           5.6363    8.6394   -0.1731 C.ar    1  LIG1        0.1928
     33 C           6.8318    9.3427   -0.0312 C.ar    1  LIG1        0.0917
     34 C           7.8721    8.3422   -0.1437 C.ar    1  LIG1        0.1107
     35 C           7.2421    7.1371   -0.3312 C.ar    1  LIG1        0.1119
     36 O           5.9202    7.2900   -0.3530 O.2     1  LIG1       -0.4566
     37 H           7.6188    6.1337   -0.4583 H       1  LIG1        0.1043
     38 N           7.0727   10.6539    0.2219 N.pl3   1  LIG1       -0.3540
     39 H           8.0267   10.9758    0.1613 H       1  LIG1        0.1425
     40 H           6.3529   11.3533    0.1132 H       1  LIG1        0.1425
     41 N          10.3919    8.8804   -0.0035 N.1     1  LIG1       -0.1907
     42 C           9.2628    8.6036   -0.0683 C.1     1  LIG1        0.1042
@<TRIPOS>BOND
     1    37    35    1
     2    18    17    1
     3    20    21    3
     4    36    35   ar
     5    36    32   ar
     6    35    34   ar
     7    21    14    1
     8    19    17    1
     9     8     7    1
    10     9     7    1
    11    32    25    1
    12    32    33   ar
    13    26    25   ar
    14    26    22   ar
    15    34    42    1
    16    34    33   ar
    17    14    15   ar
    18    14    13   ar
    19    25    24   ar
    20    30    31    3
    21    31    24    1
    22    22    15    1
    23    22    23   ar
    24    29    27    1
    25    15    16   ar
    26    13    17    1
    27    13    12   ar
    28    24    23   ar
    29    42    41    3
    30    28    27    1
    31    23    27    1
    32    10    11    3
    33    33    38    1
    34    12    16   ar
    35    12     4    1
    36    11     3    1
    37     4     5   ar
    38     4     3   ar
    39     5     1   ar
    40     3     2   ar
    41     1     2   ar
    42     1     6    1
    43     2     7    1
    44    40    38    1
    45    39    38    1
