@<TRIPOS>MOLECULE
mol_data/opt/b3lyp/geoms/mol2/12he12ie13dl-6ld-.out
 52 55 0 0 0
SMALL
GASTEIGER

@<TRIPOS>ATOM
      1 C           0.4967    1.9302    1.4125 C.ar    1  LIG1        0.1145
      2 C           1.6231    1.7738    0.6566 C.ar    1  LIG1        0.0792
      3 C           1.8923    3.0705    0.0709 C.ar    1  LIG1        0.0940
      4 C           0.9053    3.9203    0.5467 C.ar    1  LIG1        0.1871
      5 O           0.0561    3.2313    1.3517 O.2     1  LIG1       -0.4567
      6 H          -0.0826    1.2625    2.0287 H       1  LIG1        0.1049
      7 N           2.4285    0.6551    0.4803 N.pl3   1  LIG1       -0.3546
      8 H           1.9497   -0.2314    0.5641 H       1  LIG1        0.1424
      9 H           2.9878    0.6984   -0.3627 H       1  LIG1        0.1424
     10 C           2.9122    3.3147   -0.8781 C.1     1  LIG1       -0.0639
     11 C           3.7938    3.4392   -1.7005 C.1     1  LIG1       -0.1137
     12 H           4.5629    3.5760   -2.4251 H       1  LIG1        0.1232
     13 C           0.6295    5.3197    0.3532 C.ar    1  LIG1        0.1760
     14 C           1.4162    6.4260    0.1436 C.ar    1  LIG1        0.0145
     15 C           0.5086    7.5425    0.0331 C.ar    1  LIG1        0.0755
     16 C          -0.7685    7.0385    0.2253 C.ar    1  LIG1        0.1688
     17 O          -0.6967    5.6855    0.4100 O.2     1  LIG1       -0.4486
     18 C           2.9069    6.5202    0.0775 C.3     1  LIG1       -0.0348
     19 H           3.2382    7.4809    0.4807 H       1  LIG1        0.0279
     20 H           3.2709    6.4499   -0.9532 H       1  LIG1        0.0279
     21 H           3.3796    5.7156    0.6445 H       1  LIG1        0.0279
     22 C           0.8990    8.8701   -0.2599 C.1     1  LIG1       -0.0655
     23 C           1.2809    9.9856   -0.5318 C.1     1  LIG1       -0.1138
     24 H           1.5729   10.9888   -0.7401 H       1  LIG1        0.1232
     25 C          -2.1071    7.5629    0.2151 C.ar    1  LIG1        0.1050
     26 C          -2.6549    8.8529    0.3965 C.ar    1  LIG1        0.1222
     27 C          -4.0720    8.7163    0.2609 C.ar    1  LIG1        0.1634
     28 C          -4.3646    7.3668    0.0219 C.ar    1  LIG1        0.0957
     29 N          -3.1479    6.7134    0.0111 N.ar    1  LIG1       -0.3476
     30 H          -3.0612    5.7209   -0.1558 H       1  LIG1        0.1661
     31 N          -1.4508   10.9880    1.2036 N.1     1  LIG1       -0.1907
     32 C          -1.9682   10.0170    0.8201 C.1     1  LIG1        0.1051
     33 O          -5.0368    9.6583    0.3779 O.3     1  LIG1       -0.4917
     34 C          -4.7356   11.0111    0.0039 C.3     1  LIG1        0.0789
     35 H          -5.7006   11.5122   -0.0813 H       1  LIG1        0.0660
     36 H          -4.1272   11.5076    0.7620 H       1  LIG1        0.0660
     37 H          -4.2172   11.0412   -0.9601 H       1  LIG1        0.0660
     38 C          -5.7611    5.3058   -0.4973 C.ar    1  LIG1        0.2240
     39 C          -5.6397    6.6960   -0.1881 C.ar    1  LIG1        0.0646
     40 C          -6.8520    7.3891   -0.0986 C.ar    1  LIG1       -0.0285
     41 C          -8.0716    6.7290   -0.3204 C.ar    1  LIG1        0.0707
     42 C          -8.0486    5.3649   -0.6232 C.ar    1  LIG1        0.0488
     43 N          -6.9067    4.6773   -0.7046 N.ar    1  LIG1       -0.2195
     44 H          -6.8440    8.4422    0.1458 H       1  LIG1        0.0639
     45 H          -8.9689    4.8160   -0.8014 H       1  LIG1        0.0844
     46 O          -4.6184    4.5783   -0.5822 O.3     1  LIG1       -0.4792
     47 C          -4.7392    3.1777   -0.8828 C.3     1  LIG1        0.0804
     48 H          -3.7164    2.8011   -0.8920 H       1  LIG1        0.0660
     49 H          -5.3309    2.6686   -0.1191 H       1  LIG1        0.0660
     50 H          -5.2138    3.0311   -1.8554 H       1  LIG1        0.0660
     51 N         -10.3289    8.0002   -0.1727 N.1     1  LIG1       -0.1908
     52 C          -9.3147    7.4336   -0.2366 C.1     1  LIG1        0.1007
@<TRIPOS>BOND
     1    12    11    1
     2    50    47    1
     3    11    10    3
     4    37    34    1
     5    20    18    1
     6    48    47    1
     7    47    46    1
     8    47    49    1
     9    10     3    1
    10    45    42    1
    11    24    23    1
    12    43    42   ar
    13    43    38   ar
    14    42    41   ar
    15    46    38    1
    16    23    22    3
    17    38    39   ar
    18     9     7    1
    19    41    52    1
    20    41    40   ar
    21    22    15    1
    22    52    51    3
    23    39    40   ar
    24    39    28    1
    25    30    29    1
    26    40    44    1
    27    35    34    1
    28    34    33    1
    29    34    36    1
    30    29    28   ar
    31    29    25   ar
    32    28    27   ar
    33    15    14   ar
    34    15    16   ar
    35     3     4   ar
    36     3     2   ar
    37    18    14    1
    38    18    19    1
    39    18    21    1
    40    14    13   ar
    41    25    16    1
    42    25    26   ar
    43    16    17   ar
    44    27    33    1
    45    27    26   ar
    46    13    17   ar
    47    13     4    1
    48    26    32    1
    49     7     8    1
    50     7     2    1
    51     4     5   ar
    52     2     1   ar
    53    32    31    3
    54     5     1   ar
    55     1     6    1
