@<TRIPOS>MOLECULE
mol_data/opt/b3lyp/geoms/mol2/12he4hd-13dd-12ld.out
 48 51 0 0 0
SMALL
GASTEIGER

@<TRIPOS>ATOM
      1 C           0.2898    1.4555    0.2959 C.ar    1  LIG1        0.1144
      2 C           1.5930    1.3680   -0.0971 C.ar    1  LIG1        0.0791
      3 C           2.0481    2.7340   -0.2598 C.ar    1  LIG1        0.0910
      4 C           0.9757    3.5530    0.0669 C.ar    1  LIG1        0.1537
      5 O          -0.0864    2.7737    0.3979 O.2     1  LIG1       -0.4597
      6 H          -0.4612    0.7264    0.5515 H       1  LIG1        0.1049
      7 N           2.3987    0.2490   -0.2647 N.pl3   1  LIG1       -0.3546
      8 H           1.9040   -0.5963   -0.5157 H       1  LIG1        0.1424
      9 H           3.1893    0.4118   -0.8757 H       1  LIG1        0.1424
     10 C           3.3269    3.0795   -0.7567 C.1     1  LIG1       -0.0640
     11 C           4.4389    3.3196   -1.1776 C.1     1  LIG1       -0.1137
     12 H           5.4015    3.5494   -1.5736 H       1  LIG1        0.1232
     13 C           1.6744    5.9771    0.4684 C.ar    1  LIG1        0.0361
     14 C           1.2878    7.3319    0.4653 C.ar    1  LIG1       -0.0300
     15 C           0.7218    4.9922    0.0717 C.ar    1  LIG1        0.0404
     16 C           0.0201    7.7731    0.0920 C.ar    1  LIG1        0.0187
     17 H           2.0246    8.0538    0.7932 H       1  LIG1        0.0643
     18 C          -0.5617    5.4284   -0.2690 C.ar    1  LIG1       -0.0312
     19 C          -0.9352    6.7764   -0.2724 C.ar    1  LIG1        0.0617
     20 H          -1.2998    4.6874   -0.5517 H       1  LIG1        0.0638
     21 N           2.9204    5.6591    0.9349 N.pl3   1  LIG1       -0.3574
     22 H           3.3439    4.7811    0.6734 H       1  LIG1        0.1423
     23 H           3.5736    6.4211    1.0418 H       1  LIG1        0.1423
     24 N          -3.3728    7.3620   -0.9323 N.1     1  LIG1       -0.1908
     25 C          -2.2739    7.0882   -0.6523 C.1     1  LIG1        0.0998
     26 C          -0.2636    9.2123    0.0880 C.ar    1  LIG1        0.0672
     27 C           0.6086   10.3113    0.0711 C.ar    1  LIG1        0.0950
     28 C          -0.1829   11.5089    0.0907 C.ar    1  LIG1        0.0980
     29 C          -1.5216   11.1099    0.1024 C.ar    1  LIG1        0.1051
     30 N          -1.5332    9.7407    0.1061 N.ar    1  LIG1       -0.3496
     31 H          -2.3872    9.1968    0.0717 H       1  LIG1        0.1661
     32 N           3.1896   10.2867   -0.0088 N.1     1  LIG1       -0.1908
     33 C           2.0253   10.2949    0.0234 C.1     1  LIG1        0.1026
     34 N           0.7726   13.9009    0.2524 N.1     1  LIG1       -0.1908
     35 C           0.3274   12.8289    0.1627 C.1     1  LIG1        0.1027
     36 C          -2.7532   11.8513    0.1264 C.ar    1  LIG1        0.1948
     37 C          -3.1122   13.1326   -0.2236 C.ar    1  LIG1        0.1845
     38 C          -4.5369   13.2327    0.0236 C.ar    1  LIG1        0.1317
     39 C          -4.9261   11.9990    0.4787 C.ar    1  LIG1        0.1137
     40 O          -3.8753   11.1603    0.5407 O.2     1  LIG1       -0.4563
     41 H          -5.8843   11.6043    0.7778 H       1  LIG1        0.1044
     42 O          -2.2817   14.0198   -0.7922 O.3     1  LIG1       -0.4901
     43 C          -2.2568   15.3584   -0.2575 C.3     1  LIG1        0.0790
     44 H          -1.4744   15.8750   -0.8109 H       1  LIG1        0.0660
     45 H          -3.2168   15.8597   -0.4056 H       1  LIG1        0.0660
     46 H          -1.9951   15.3384    0.8044 H       1  LIG1        0.0660
     47 N          -6.0914   15.2560   -0.3799 N.1     1  LIG1       -0.1906
     48 C          -5.3926   14.3436   -0.1976 C.1     1  LIG1        0.1060
@<TRIPOS>BOND
     1    12    11    1
     2    11    10    3
     3    24    25    3
     4     9     7    1
     5    44    43    1
     6    42    43    1
     7    42    37    1
     8    10     3    1
     9    25    19    1
    10    20    18    1
    11     8     7    1
    12    45    43    1
    13    47    48    3
    14    19    18   ar
    15    19    16   ar
    16    18    15   ar
    17     7     2    1
    18     3     2   ar
    19     3     4   ar
    20    43    46    1
    21    37    38   ar
    22    37    36   ar
    23    48    38    1
    24     2     1   ar
    25    32    33    3
    26    33    27    1
    27    38    39   ar
    28     4    15    1
    29     4     5   ar
    30    27    26   ar
    31    27    28   ar
    32    15    13   ar
    33    31    30    1
    34    26    16    1
    35    26    30   ar
    36    28    29   ar
    37    28    35    1
    38    16    14   ar
    39    29    30   ar
    40    29    36    1
    41    36    40   ar
    42    35    34    3
    43     1     5   ar
    44     1     6    1
    45    14    13   ar
    46    14    17    1
    47    13    21    1
    48    39    40   ar
    49    39    41    1
    50    22    21    1
    51    21    23    1
