@<TRIPOS>MOLECULE
mol_data/opt/b3lyp/geoms/mol2/12he6el13ei-13if4ie13ff12hd-12la-.out
 99 106 0 0 0
SMALL
GASTEIGER

@<TRIPOS>ATOM
      1 C           0.5395    1.7501    0.3929 C.ar    1  LIG1        0.1144
      2 C           1.8258    1.7372   -0.0647 C.ar    1  LIG1        0.0791
      3 C           2.1757    3.1212   -0.2952 C.ar    1  LIG1        0.0910
      4 C           1.0560    3.8721    0.0467 C.ar    1  LIG1        0.1547
      5 O           0.0736    3.0387    0.4619 O.2     1  LIG1       -0.4597
      6 H          -0.1458    0.9805    0.7076 H       1  LIG1        0.1049
      7 N           2.6981    0.6662   -0.2334 N.pl3   1  LIG1       -0.3546
      8 H           2.2485   -0.2092   -0.4662 H       1  LIG1        0.1424
      9 H           3.4547    0.8729   -0.8741 H       1  LIG1        0.1424
     10 C           3.4199    3.5383   -0.8238 C.1     1  LIG1       -0.0640
     11 C           4.5072    3.8163   -1.2837 C.1     1  LIG1       -0.1137
     12 H           5.4544    4.0777   -1.6953 H       1  LIG1        0.1232
     13 C          -0.4877    5.8847   -0.0677 C.ar    1  LIG1        0.1248
     14 C           0.8017    5.3039    0.0460 C.ar    1  LIG1        0.0558
     15 C           1.8899    6.1903    0.1466 C.ar    1  LIG1       -0.0044
     16 C           1.6919    7.5635    0.1555 C.ar    1  LIG1        0.1482
     17 C           0.3617    8.0625    0.1201 C.ar    1  LIG1        0.1312
     18 N          -0.6687    7.2149   -0.0179 N.ar    1  LIG1       -0.2325
     19 H           2.8902    5.7847    0.2100 H       1  LIG1        0.0663
     20 C          -1.6844    5.1230   -0.2779 C.1     1  LIG1       -0.0491
     21 C          -2.7247    4.5409   -0.4807 C.1     1  LIG1       -0.1124
     22 H          -3.6338    4.0123   -0.6491 H       1  LIG1        0.1232
     23 O           2.6821    8.4793    0.1850 O.3     1  LIG1       -0.4929
     24 C           4.0307    8.0418    0.2683 C.3     1  LIG1        0.0789
     25 H           4.6304    8.9516    0.2923 H       1  LIG1        0.0660
     26 H           4.2084    7.4633    1.1830 H       1  LIG1        0.0660
     27 H           4.3096    7.4364   -0.6028 H       1  LIG1        0.0660
     28 C          -0.0111    9.4741    0.1649 C.ar    1  LIG1        0.0849
     29 C           0.5877   10.7009    0.5272 C.ar    1  LIG1        0.0551
     30 C          -0.3941   11.7305    0.3473 C.ar    1  LIG1       -0.0077
     31 C          -1.5547   11.1175   -0.1194 C.ar    1  LIG1        0.0679
     32 N          -1.2986    9.7705   -0.2040 N.ar    1  LIG1       -0.3505
     33 H          -1.9245    9.0453   -0.5264 H       1  LIG1        0.1660
     34 C           1.8576   10.9829    1.0947 C.1     1  LIG1       -0.0672
     35 C           2.8871   11.3595    1.6121 C.1     1  LIG1       -0.1138
     36 H           3.7994   11.6625    2.0700 H       1  LIG1        0.1232
     37 C          -0.2102   13.1762    0.6917 C.3     1  LIG1       -0.0365
     38 H          -1.1757   13.6655    0.8435 H       1  LIG1        0.0279
     39 H           0.3211   13.7260   -0.0948 H       1  LIG1        0.0279
     40 H           0.3822   13.2796    1.6058 H       1  LIG1        0.0279
     41 C          -2.8655   11.6517   -0.4378 C.ar    1  LIG1        0.0701
     42 C          -3.2509   12.7830   -1.1507 C.ar    1  LIG1        0.0183
     43 C          -4.6724   12.7954   -1.1311 C.ar    1  LIG1        0.1455
     44 C          -5.1422   11.6986   -0.4221 C.ar    1  LIG1        0.0895
     45 N          -4.0127   10.9736   -0.0560 N.ar    1  LIG1       -0.3499
     46 H          -4.0260   10.3015    0.6970 H       1  LIG1        0.1661
     47 C          -2.3892   13.7413   -1.9144 C.3     1  LIG1       -0.0342
     48 H          -2.2520   14.6914   -1.3840 H       1  LIG1        0.0279
     49 H          -2.8487   13.9801   -2.8790 H       1  LIG1        0.0279
     50 H          -1.3988   13.3173   -2.0984 H       1  LIG1        0.0279
     51 O          -5.4057   13.7337   -1.8101 O.3     1  LIG1       -0.5044
     52 H          -6.2885   13.3721   -1.9679 H       1  LIG1        0.2922
     53 C          -7.5132   12.0532    0.3949 C.ar    1  LIG1       -0.0405
     54 C          -8.7873   11.5267    0.5906 C.ar    1  LIG1       -0.0478
     55 C          -6.5036   11.2212   -0.1598 C.ar    1  LIG1        0.0060
     56 C          -9.1416   10.1930    0.2952 C.ar    1  LIG1        0.0177
     57 H          -9.5463   12.1709    1.0162 H       1  LIG1        0.0627
     58 C          -6.8297    9.8894   -0.4408 C.ar    1  LIG1       -0.0362
     59 C          -8.1090    9.3542   -0.2239 C.ar    1  LIG1        0.0345
     60 H          -6.0711    9.2407   -0.8671 H       1  LIG1        0.0637
     61 C          -7.2213   13.4673    0.8399 C.3     1  LIG1       -0.0391
     62 H          -8.0807   13.8917    1.3640 H       1  LIG1        0.0278
     63 H          -6.9681   14.1315    0.0077 H       1  LIG1        0.0278
     64 H          -6.3591   13.4881    1.5155 H       1  LIG1        0.0278
     65 C          -8.2910    7.9773   -0.5676 C.1     1  LIG1       -0.0690
     66 C          -8.3980    6.8078   -0.8713 C.1     1  LIG1       -0.1139
     67 H          -8.5278    5.7830   -1.1323 H       1  LIG1        0.1232
     68 C         -10.5081    9.7600    0.5412 C.ar    1  LIG1        0.0940
     69 C         -11.6165   10.4765    1.0270 C.ar    1  LIG1        0.1849
     70 C         -12.7259    9.6149    1.0824 C.ar    1  LIG1        0.1879
     71 C         -12.3010    8.3609    0.6290 C.ar    1  LIG1        0.1302
     72 N         -10.9658    8.4765    0.3123 N.ar    1  LIG1       -0.3458
     73 H         -10.3914    7.7281   -0.0468 H       1  LIG1        0.1662
     74 O         -11.6562   11.7918    1.3941 O.3     1  LIG1       -0.5019
     75 H         -12.5649   11.9693    1.6803 H       1  LIG1        0.2924
     76 O         -13.9404   10.0342    1.5131 O.3     1  LIG1       -0.5018
     77 H         -14.5687    9.2676    1.4709 H       1  LIG1        0.2924
     78 C         -13.0228    7.1384    0.4824 C.ar    1  LIG1        0.1774
     79 C         -14.3226    6.7691    0.7261 C.ar    1  LIG1        0.0909
     80 C         -14.4374    5.3770    0.3601 C.ar    1  LIG1        0.1219
     81 C         -13.1819    4.9829   -0.0819 C.ar    1  LIG1        0.1934
     82 O         -12.3329    6.0527   -0.0049 O.2     1  LIG1       -0.4468
     83 N         -15.3398    7.6331    1.2374 N.pl3   1  LIG1       -0.3540
     84 H         -16.1289    7.6836    0.5939 H       1  LIG1        0.1425
     85 H         -15.7113    7.2746    2.1166 H       1  LIG1        0.1425
     86 N         -16.7120    4.1787    0.5461 N.1     1  LIG1       -0.1907
     87 C         -15.6555    4.6594    0.4428 C.1     1  LIG1        0.1050
     88 C         -12.6207    3.7637   -0.5694 C.ar    1  LIG1        0.2123
     89 C         -13.0967    2.4666   -0.6617 C.ar    1  LIG1        0.1687
     90 C         -12.0579    1.6792   -1.2481 C.ar    1  LIG1        0.0187
     91 C         -11.0238    2.5416   -1.4666 C.ar    1  LIG1        0.0964
     92 O         -11.3359    3.7979   -1.0667 O.2     1  LIG1       -0.4560
     93 H         -10.0385    2.4106   -1.8859 H       1  LIG1        0.1031
     94 O         -14.3217    2.1065   -0.2367 O.3     1  LIG1       -0.4912
     95 C         -14.7107    0.7505   -0.4307 C.3     1  LIG1        0.0790
     96 H         -15.7276    0.6766   -0.0462 H       1  LIG1        0.0660
     97 H         -14.7008    0.4840   -1.4944 H       1  LIG1        0.0660
     98 H         -14.0563    0.0673    0.1244 H       1  LIG1        0.0660
     99 H         -12.0742    0.6238   -1.4718 H       1  LIG1        0.0686
@<TRIPOS>BOND
     1    49    47    1
     2    50    47    1
     3    52    51    1
     4    47    48    1
     5    47    42    1
     6    93    91    1
     7    51    43    1
     8    12    11    1
     9    97    95    1
    10    99    90    1
    11    91    90   ar
    12    91    92   ar
    13    11    10    3
    14    90    89   ar
    15    42    43   ar
    16    42    41   ar
    17    67    66    1
    18    43    44   ar
    19    92    88   ar
    20     9     7    1
    21    66    65    3
    22    60    58    1
    23    10     3    1
    24    89    88   ar
    25    89    94    1
    26    22    21    1
    27    27    24    1
    28    88    81    1
    29    65    59    1
    30    33    32    1
    31    21    20    3
    32     8     7    1
    33    58    59   ar
    34    58    55   ar
    35    41    31    1
    36    41    45   ar
    37    95    94    1
    38    95    96    1
    39    95    98    1
    40    44    55    1
    41    44    45   ar
    42     3     2   ar
    43     3     4   ar
    44    20    13    1
    45     7     2    1
    46    59    56   ar
    47    32    31   ar
    48    32    28   ar
    49    55    53   ar
    50    31    30   ar
    51    39    37    1
    52    81    82   ar
    53    81    80   ar
    54    13    18   ar
    55    13    14   ar
    56     2     1   ar
    57    45    46    1
    58    73    72    1
    59    18    17   ar
    60    82    78   ar
    61    63    61    1
    62    14     4    1
    63    14    15   ar
    64     4     5   ar
    65    17    16   ar
    66    17    28    1
    67    15    16   ar
    68    15    19    1
    69    16    23    1
    70    28    29   ar
    71    23    24    1
    72    24    25    1
    73    24    26    1
    74    56    68    1
    75    56    54   ar
    76    72    68   ar
    77    72    71   ar
    78    30    29   ar
    79    30    37    1
    80    80    87    1
    81    80    79   ar
    82     1     5   ar
    83     1     6    1
    84    53    54   ar
    85    53    61    1
    86    87    86    3
    87    78    71    1
    88    78    79   ar
    89    29    34    1
    90    68    69   ar
    91    54    57    1
    92    84    83    1
    93    71    70   ar
    94    37    38    1
    95    37    40    1
    96    79    83    1
    97    61    62    1
    98    61    64    1
    99    69    70   ar
   100    69    74    1
   101    70    76    1
   102    34    35    3
   103    83    85    1
   104    74    75    1
   105    77    76    1
   106    35    36    1
