@<TRIPOS>MOLECULE
mol_data/opt/b3lyp/geoms/mol2/12hf12de-12da6ea12le-4hd-4ah6fi.out
 92 99 0 0 0
SMALL
GASTEIGER

@<TRIPOS>ATOM
      1 C           1.4853    2.4056   -0.4132 C.ar    1  LIG1        0.1171
      2 C           2.7721    2.6374   -0.8116 C.ar    1  LIG1        0.1057
      3 C           2.8998    4.0620   -0.8992 C.ar    1  LIG1        0.1870
      4 C           1.6706    4.6059   -0.5457 C.ar    1  LIG1        0.2140
      5 O           0.8025    3.5771   -0.2475 O.2     1  LIG1       -0.4541
      6 H           0.9318    1.5021   -0.2132 H       1  LIG1        0.1050
      7 N           3.8263    1.7580   -1.0347 N.pl3   1  LIG1       -0.3527
      8 H           3.5541    0.8548   -1.3989 H       1  LIG1        0.1425
      9 H           4.5652    2.1735   -1.5885 H       1  LIG1        0.1425
     10 O           4.0755    4.5864   -1.2898 O.3     1  LIG1       -0.5019
     11 H           4.0774    5.5583   -1.3281 H       1  LIG1        0.2924
     12 C           1.1460    5.9288   -0.4376 C.ar    1  LIG1        0.1929
     13 C           1.6739    7.1998   -0.6456 C.ar    1  LIG1        0.1167
     14 C           0.6178    8.1489   -0.3756 C.ar    1  LIG1        0.0916
     15 C          -0.4737    7.3891   -0.0030 C.ar    1  LIG1        0.1886
     16 O          -0.1472    6.0517   -0.0507 O.2     1  LIG1       -0.4458
     17 N           4.0836    7.6724   -1.4243 N.1     1  LIG1       -0.1907
     18 C           2.9858    7.4934   -1.0696 C.1     1  LIG1        0.1043
     19 C           0.7049    9.5489   -0.5321 C.1     1  LIG1       -0.0644
     20 C           0.7993   10.7444   -0.6862 C.1     1  LIG1       -0.1138
     21 H           0.8651   11.8029   -0.7931 H       1  LIG1        0.1232
     22 C          -1.8225    7.6882    0.3791 C.ar    1  LIG1        0.1891
     23 C          -2.4673    8.7719    0.9644 C.ar    1  LIG1        0.1011
     24 C          -3.8431    8.3997    1.0857 C.ar    1  LIG1        0.0024
     25 C          -3.9583    7.1258    0.5894 C.ar    1  LIG1        0.1398
     26 O          -2.7312    6.7047    0.1544 O.2     1  LIG1       -0.4503
     27 N          -1.4895   10.9718    1.8973 N.1     1  LIG1       -0.1907
     28 C          -1.9037    9.9769    1.4576 C.1     1  LIG1        0.1031
     29 H          -4.6195    9.0002    1.5342 H       1  LIG1        0.0668
     30 C          -4.9957    4.8083    0.3822 C.ar    1  LIG1        0.1246
     31 C          -5.0956    6.2268    0.4658 C.ar    1  LIG1        0.0511
     32 C          -6.3928    6.7701    0.4523 C.ar    1  LIG1       -0.0463
     33 C          -7.5019    5.9511    0.3626 C.ar    1  LIG1       -0.0318
     34 C          -7.2970    4.5597    0.2682 C.ar    1  LIG1        0.1111
     35 N          -6.0729    4.0132    0.2814 N.ar    1  LIG1       -0.2345
     36 H          -6.5210    7.8470    0.4995 H       1  LIG1        0.0626
     37 C          -3.7322    4.1340    0.4140 C.1     1  LIG1       -0.0491
     38 C          -2.6630    3.5714    0.4431 C.1     1  LIG1       -0.1124
     39 H          -1.6831    3.1513    0.4467 H       1  LIG1        0.1232
     40 H          -8.5058    6.3565    0.3573 H       1  LIG1        0.0640
     41 C          -8.4202    3.6422    0.1445 C.ar    1  LIG1        0.1964
     42 C          -9.7680    3.8140   -0.0662 C.ar    1  LIG1        0.1832
     43 C         -10.3673    2.5015   -0.1038 C.ar    1  LIG1        0.1127
     44 C          -9.3246    1.6057    0.1065 C.ar    1  LIG1        0.1566
     45 O          -8.1659    2.3006    0.2523 O.2     1  LIG1       -0.4482
     46 O         -10.4046    5.0097   -0.1756 O.3     1  LIG1       -0.4901
     47 C         -11.0081    5.2755   -1.4537 C.3     1  LIG1        0.0790
     48 H         -11.4756    6.2570   -1.3661 H       1  LIG1        0.0660
     49 H         -10.2472    5.2967   -2.2421 H       1  LIG1        0.0660
     50 H         -11.7680    4.5278   -1.6955 H       1  LIG1        0.0660
     51 C         -11.7325    2.2242   -0.3559 C.1     1  LIG1       -0.0622
     52 C         -12.9063    1.9995   -0.5594 C.1     1  LIG1       -0.1137
     53 H         -13.9343    1.8045   -0.7627 H       1  LIG1        0.1232
     54 C         -10.1182   -0.7393    0.7384 C.ar    1  LIG1        0.0360
     55 C          -9.8250   -2.1183    0.7377 C.ar    1  LIG1       -0.0314
     56 C          -9.1762    0.1519    0.1478 C.ar    1  LIG1        0.0405
     57 C          -8.6529   -2.6553    0.2161 C.ar    1  LIG1        0.0013
     58 H         -10.5346   -2.7898    1.2123 H       1  LIG1        0.0643
     59 C          -7.9886   -0.3853   -0.3669 C.ar    1  LIG1       -0.0313
     60 C          -7.7085   -1.7546   -0.3496 C.ar    1  LIG1        0.0602
     61 H          -7.2624    0.2909   -0.8025 H       1  LIG1        0.0638
     62 N         -11.2461   -0.3070    1.3903 N.pl3   1  LIG1       -0.3574
     63 H         -11.6684    0.5704    1.1235 H       1  LIG1        0.1423
     64 H         -11.9113   -1.0190    1.6522 H       1  LIG1        0.1423
     65 N          -5.4850   -2.5282   -1.4429 N.1     1  LIG1       -0.1908
     66 C          -6.4884   -2.1985   -0.9519 C.1     1  LIG1        0.0998
     67 C          -9.4861   -5.0026   -0.0688 C.ar    1  LIG1       -0.0533
     68 C          -9.2962   -6.3773    0.0040 C.ar    1  LIG1       -0.0515
     69 C          -8.4423   -4.1244    0.2634 C.ar    1  LIG1       -0.0148
     70 C          -8.0767   -6.9444    0.4090 C.ar    1  LIG1        0.0079
     71 H         -10.1212   -7.0417   -0.2328 H       1  LIG1        0.0624
     72 C          -7.2150   -4.6731    0.6522 C.ar    1  LIG1       -0.0327
     73 C          -7.0223   -6.0550    0.7136 C.ar    1  LIG1        0.0331
     74 H          -6.3876   -4.0196    0.9085 H       1  LIG1        0.0642
     75 H         -10.4416   -4.6066   -0.3967 H       1  LIG1        0.0624
     76 N          -5.7777   -6.5771    1.1504 N.pl3   1  LIG1       -0.3575
     77 H          -5.4300   -7.3177    0.5465 H       1  LIG1        0.1423
     78 H          -5.0650   -5.8632    1.2537 H       1  LIG1        0.1423
     79 C          -7.4505   -9.1292    1.6198 C.ar    1  LIG1        0.2203
     80 C          -7.9504   -8.4259    0.4835 C.ar    1  LIG1        0.0455
     81 C          -8.4504   -9.2109   -0.5631 C.ar    1  LIG1       -0.0445
     82 C          -8.4845  -10.6052   -0.4861 C.ar    1  LIG1       -0.0315
     83 C          -8.0040  -11.1603    0.7024 C.ar    1  LIG1        0.0343
     84 N          -7.4958  -10.4571    1.7161 N.ar    1  LIG1       -0.2207
     85 H          -8.8215   -8.7116   -1.4553 H       1  LIG1        0.0628
     86 H          -8.0231  -12.2416    0.8405 H       1  LIG1        0.0833
     87 O          -6.9369   -8.5057    2.6994 O.3     1  LIG1       -0.4920
     88 H          -6.4980   -7.6708    2.4170 H       1  LIG1        0.2937
     89 C          -9.0047  -11.4617   -1.6133 C.3     1  LIG1       -0.0383
     90 H          -9.0419  -12.5149   -1.3208 H       1  LIG1        0.0278
     91 H          -8.3687  -11.3893   -2.5035 H       1  LIG1        0.0278
     92 H         -10.0156  -11.1642   -1.9142 H       1  LIG1        0.0278
@<TRIPOS>BOND
     1    91    89    1
     2    49    47    1
     3    92    89    1
     4    50    47    1
     5    89    90    1
     6    89    82    1
     7     9     7    1
     8    85    81    1
     9    47    48    1
    10    47    46    1
    11    65    66    3
    12    17    18    3
    13     8     7    1
    14    11    10    1
    15    10     3    1
    16    18    13    1
    17     7     2    1
    18    66    60    1
    19     3     2   ar
    20     3     4   ar
    21     2     1   ar
    22    61    59    1
    23    21    20    1
    24    53    52    1
    25    20    19    3
    26    13    12   ar
    27    13    14   ar
    28    81    82   ar
    29    81    80   ar
    30    52    51    3
    31     4    12    1
    32     4     5   ar
    33    19    14    1
    34    82    83   ar
    35    12    16   ar
    36     1     5   ar
    37     1     6    1
    38    75    67    1
    39    14    15   ar
    40    59    60   ar
    41    59    56   ar
    42    51    43    1
    43    60    57   ar
    44    71    68    1
    45    46    42    1
    46    43    42   ar
    47    43    44   ar
    48    67    68   ar
    49    67    69   ar
    50    42    41   ar
    51    16    15   ar
    52    15    22    1
    53    68    70   ar
    54    44    56    1
    55    44    45   ar
    56    41    45   ar
    57    41    34    1
    58    56    54   ar
    59    26    22   ar
    60    26    25   ar
    61    57    69    1
    62    57    55   ar
    63    69    72   ar
    64    34    35   ar
    65    34    33   ar
    66    35    30   ar
    67    40    33    1
    68    33    32   ar
    69    22    23   ar
    70    30    37    1
    71    30    31   ar
    72    70    80    1
    73    70    73   ar
    74    37    38    3
    75    38    39    1
    76    32    31   ar
    77    32    36    1
    78    31    25    1
    79    80    79   ar
    80    77    76    1
    81    25    24   ar
    82    72    73   ar
    83    72    74    1
    84    83    86    1
    85    83    84   ar
    86    73    76    1
    87    55    54   ar
    88    55    58    1
    89    54    62    1
    90    23    24   ar
    91    23    28    1
    92    24    29    1
    93    63    62    1
    94    76    78    1
    95    62    64    1
    96    28    27    3
    97    79    84   ar
    98    79    87    1
    99    88    87    1
