@<TRIPOS>MOLECULE
mol_data/opt/b3lyp/geoms/mol2/12hf4ha-4ia13ie-4ff-12ai-6fa-12df.out
 91 98 0 0 0
SMALL
GASTEIGER

@<TRIPOS>ATOM
      1 C           2.6233    2.1091    2.4268 C.ar    1  LIG1        0.1169
      2 C           2.9641    1.7225    1.1622 C.ar    1  LIG1        0.1056
      3 C           2.5590    2.8014    0.3059 C.ar    1  LIG1        0.1838
      4 C           1.9807    3.7711    1.1036 C.ar    1  LIG1        0.1796
      5 O           2.0260    3.3421    2.4136 O.2     1  LIG1       -0.4572
      6 H           2.7221    1.6397    3.3925 H       1  LIG1        0.1050
      7 N           3.6421    0.5882    0.7051 N.pl3   1  LIG1       -0.3527
      8 H           3.4344   -0.2543    1.2258 H       1  LIG1        0.1425
      9 H           3.4927    0.4435   -0.2866 H       1  LIG1        0.1425
     10 O           2.7847    2.7667   -1.0268 O.3     1  LIG1       -0.5020
     11 H           2.2137    3.4642   -1.4379 H       1  LIG1        0.2924
     12 C           0.9373    5.5118   -0.3783 C.ar    1  LIG1        0.0360
     13 C           0.5675    6.8373   -0.6004 C.ar    1  LIG1       -0.0326
     14 C           1.4870    5.1179    0.8644 C.ar    1  LIG1        0.0416
     15 C           0.6815    7.8135    0.4003 C.ar    1  LIG1       -0.0159
     16 H           0.1323    7.1051   -1.5597 H       1  LIG1        0.0642
     17 C           1.5533    6.0909    1.8790 C.ar    1  LIG1       -0.0486
     18 C           1.1589    7.4037    1.6568 C.ar    1  LIG1       -0.0532
     19 H           1.9550    5.8006    2.8434 H       1  LIG1        0.0625
     20 N           0.7627    4.5265   -1.4031 N.pl3   1  LIG1       -0.3574
     21 H           0.1566    3.7742   -1.0770 H       1  LIG1        0.1423
     22 H           0.3500    4.9274   -2.2397 H       1  LIG1        0.1423
     23 H           1.2567    8.1344    2.4537 H       1  LIG1        0.0624
     24 C           0.7043   10.0092   -0.9051 C.ar    1  LIG1       -0.0421
     25 C           0.2410   11.3232   -1.0266 C.ar    1  LIG1       -0.0491
     26 C           0.2494    9.2199    0.1778 C.ar    1  LIG1       -0.0149
     27 C          -0.6502   11.9038   -0.1099 C.ar    1  LIG1       -0.0011
     28 H           0.5788   11.9124   -1.8730 H       1  LIG1        0.0627
     29 C          -0.6373    9.8018    1.1002 C.ar    1  LIG1       -0.0532
     30 C          -1.0799   11.1114    0.9693 C.ar    1  LIG1       -0.0520
     31 H          -0.9865    9.2022    1.9357 H       1  LIG1        0.0624
     32 C           1.6939    9.4965   -1.9293 C.3     1  LIG1       -0.0391
     33 H           2.2265   10.3299   -2.3954 H       1  LIG1        0.0278
     34 H           1.2016    8.9393   -2.7355 H       1  LIG1        0.0278
     35 H           2.4307    8.8258   -1.4804 H       1  LIG1        0.0278
     36 H          -1.7358   11.5296    1.7280 H       1  LIG1        0.0624
     37 C          -1.1213   13.2816   -0.2705 C.ar    1  LIG1        0.0511
     38 C          -0.5001   14.4319   -0.7452 C.ar    1  LIG1       -0.0092
     39 C          -1.4358   15.5101   -0.5997 C.ar    1  LIG1        0.0535
     40 C          -2.6101   14.9888   -0.0417 C.ar    1  LIG1        0.0664
     41 N          -2.3911   13.6465    0.1387 N.ar    1  LIG1       -0.3529
     42 H          -3.0602   13.0150    0.5499 H       1  LIG1        0.1659
     43 C           0.8933   14.5803   -1.2786 C.3     1  LIG1       -0.0365
     44 H           1.2622   15.5927   -1.0929 H       1  LIG1        0.0279
     45 H           0.9402   14.4188   -2.3633 H       1  LIG1        0.0279
     46 H           1.5813   13.8709   -0.8101 H       1  LIG1        0.0279
     47 C          -1.2051   16.8427   -1.0257 C.1     1  LIG1       -0.0673
     48 C          -0.9655   17.9612   -1.4241 C.1     1  LIG1       -0.1138
     49 H          -0.7681   18.9487   -1.7700 H       1  LIG1        0.1232
     50 C          -4.0624   16.7920    0.9561 C.ar    1  LIG1        0.1269
     51 C          -5.3311   17.3086    1.1972 C.ar    1  LIG1       -0.0053
     52 C          -3.9185   15.5794    0.2476 C.ar    1  LIG1        0.0444
     53 C          -6.5066   16.6543    0.7853 C.ar    1  LIG1        0.0621
     54 H          -5.4221   18.2548    1.7242 H       1  LIG1        0.0662
     55 C          -5.0917   14.9230   -0.1582 C.ar    1  LIG1       -0.0068
     56 C          -6.3636   15.4296    0.0976 C.ar    1  LIG1        0.1283
     57 H          -5.0004   14.0010   -0.7284 H       1  LIG1        0.0662
     58 O          -2.9304   17.4026    1.4084 O.3     1  LIG1       -0.5061
     59 H          -3.1560   18.2663    1.7767 H       1  LIG1        0.2922
     60 O          -7.4913   14.7568   -0.3030 O.3     1  LIG1       -0.5060
     61 H          -7.2343   13.9504   -0.7681 H       1  LIG1        0.2922
     62 C          -7.7959   17.2429    1.1108 C.ar    1  LIG1        0.1396
     63 C          -8.2069   18.1411    2.0643 C.ar    1  LIG1       -0.0122
     64 C          -9.6124   18.3361    1.9128 C.ar    1  LIG1       -0.0039
     65 C          -9.9932   17.5383    0.8500 C.ar    1  LIG1        0.1437
     66 O          -8.8847   16.8838    0.3649 O.2     1  LIG1       -0.4543
     67 H          -7.5873   18.5901    2.8278 H       1  LIG1        0.0658
     68 C         -10.4686   19.2019    2.7897 C.3     1  LIG1       -0.0361
     69 H         -11.4378   18.7373    2.9945 H       1  LIG1        0.0279
     70 H         -10.6623   20.1831    2.3391 H       1  LIG1        0.0279
     71 H          -9.9740   19.3791    3.7488 H       1  LIG1        0.0279
     72 C         -11.4633   16.0309   -0.5668 C.ar    1  LIG1        0.2239
     73 C         -11.2522   17.2280    0.1959 C.ar    1  LIG1        0.0788
     74 C         -12.3539   18.0895    0.3015 C.ar    1  LIG1       -0.0438
     75 C         -13.5777   17.7684   -0.2692 C.ar    1  LIG1       -0.0317
     76 C         -13.6750   16.5543   -0.9625 C.ar    1  LIG1        0.1112
     77 N         -12.6317   15.7200   -1.1064 N.ar    1  LIG1       -0.2093
     78 H         -12.2454   19.0322    0.8242 H       1  LIG1        0.0627
     79 O         -10.5028   15.1165   -0.7918 O.3     1  LIG1       -0.4919
     80 H          -9.6397   15.4127   -0.4518 H       1  LIG1        0.2938
     81 H         -14.4181   18.4445   -0.1821 H       1  LIG1        0.0640
     82 C         -14.9268   16.1238   -1.5832 C.ar    1  LIG1        0.1740
     83 C         -16.2058   16.6670   -1.6411 C.ar    1  LIG1        0.1402
     84 C         -16.9977   15.7469   -2.4117 C.ar    1  LIG1        0.1729
     85 C         -16.1662   14.7254   -2.7640 C.ar    1  LIG1        0.1353
     86 O         -14.9141   14.9558   -2.2618 O.2     1  LIG1       -0.4563
     87 H         -16.2970   13.8190   -3.3324 H       1  LIG1        0.1068
     88 N         -17.0733   18.8648   -0.6034 N.1     1  LIG1       -0.1906
     89 C         -16.6801   17.8730   -1.0708 C.1     1  LIG1        0.1067
     90 O         -18.3094   15.9595   -2.6723 O.3     1  LIG1       -0.5028
     91 H         -18.6571   15.2300   -3.2015 H       1  LIG1        0.2923
@<TRIPOS>BOND
     1    87    85    1
     2    91    90    1
     3    85    84   ar
     4    85    86   ar
     5    34    32    1
     6    90    84    1
     7    84    83   ar
     8    33    32    1
     9    45    43    1
    10    86    82   ar
    11    22    20    1
    12    32    35    1
    13    32    24    1
    14    28    25    1
    15    49    48    1
    16    83    82   ar
    17    83    89    1
    18    82    76    1
    19    16    13    1
    20    11    10    1
    21    48    47    3
    22    20    21    1
    23    20    12    1
    24    43    44    1
    25    43    46    1
    26    43    38    1
    27    77    76   ar
    28    77    72   ar
    29    89    88    3
    30    10     3    1
    31    25    24   ar
    32    25    27   ar
    33    47    39    1
    34    76    75   ar
    35    24    26   ar
    36    79    72    1
    37    79    80    1
    38    61    60    1
    39    38    39   ar
    40    38    37   ar
    41    57    55    1
    42    13    12   ar
    43    13    15   ar
    44    39    40   ar
    45    72    73   ar
    46    12    14   ar
    47    60    56    1
    48     9     7    1
    49    37    27    1
    50    37    41   ar
    51    75    81    1
    52    75    74   ar
    53    55    56   ar
    54    55    52   ar
    55    27    30   ar
    56    40    41   ar
    57    40    52    1
    58    56    53   ar
    59    41    42    1
    60    26    15    1
    61    26    29   ar
    62    73    74   ar
    63    73    65    1
    64    52    50   ar
    65    74    78    1
    66     3     4   ar
    67     3     2   ar
    68    66    65   ar
    69    66    62   ar
    70    15    18   ar
    71     7     2    1
    72     7     8    1
    73    53    62    1
    74    53    51   ar
    75    65    64   ar
    76    14     4    1
    77    14    17   ar
    78    50    51   ar
    79    50    58    1
    80    30    29   ar
    81    30    36    1
    82    29    31    1
    83     4     5   ar
    84    62    63   ar
    85     2     1   ar
    86    51    54    1
    87    58    59    1
    88    18    17   ar
    89    18    23    1
    90    17    19    1
    91    64    63   ar
    92    64    68    1
    93    63    67    1
    94    70    68    1
    95     5     1   ar
    96     1     6    1
    97    68    69    1
    98    68    71    1
