@<TRIPOS>MOLECULE
mol_data/opt/b3lyp/geoms/mol2/12hf4hh-6dd13hh.out
 49 52 0 0 0
SMALL
GASTEIGER

@<TRIPOS>ATOM
      1 C           0.5327    1.5401   -0.7499 C.ar    1  LIG1        0.1169
      2 C           1.4272    1.4913    0.2805 C.ar    1  LIG1        0.1056
      3 C           1.6638    2.8577    0.6530 C.ar    1  LIG1        0.1838
      4 C           0.9072    3.6550   -0.1865 C.ar    1  LIG1        0.1797
      5 O           0.2063    2.8356   -1.0494 O.2     1  LIG1       -0.4572
      6 H           0.0639    0.7802   -1.3547 H       1  LIG1        0.1050
      7 N           1.9862    0.4024    0.9562 N.pl3   1  LIG1       -0.3527
      8 H           2.1827   -0.3943    0.3640 H       1  LIG1        0.1425
      9 H           2.8123    0.6770    1.4749 H       1  LIG1        0.1425
     10 O           2.4858    3.1736    1.6737 O.3     1  LIG1       -0.5020
     11 H           2.6706    4.1493    1.5989 H       1  LIG1        0.2924
     12 C           1.5169    6.0638    0.2233 C.ar    1  LIG1        0.0361
     13 C           1.1451    7.4028    0.1828 C.ar    1  LIG1       -0.0308
     14 C           0.6218    5.0786   -0.2597 C.ar    1  LIG1        0.0433
     15 C          -0.0854    7.8282   -0.3344 C.ar    1  LIG1        0.0073
     16 H           1.8316    8.1534    0.5690 H       1  LIG1        0.0643
     17 C          -0.5812    5.5111   -0.8398 C.ar    1  LIG1       -0.0279
     18 C          -0.9520    6.8588   -0.8932 C.ar    1  LIG1        0.0332
     19 H          -1.2554    4.7612   -1.2397 H       1  LIG1        0.0644
     20 N           2.8032    5.6702    0.7414 N.pl3   1  LIG1       -0.3574
     21 H           3.4126    5.3547   -0.0136 H       1  LIG1        0.1423
     22 H           3.2638    6.4523    1.1979 H       1  LIG1        0.1423
     23 N          -2.1782    7.2284   -1.4432 N.pl3   1  LIG1       -0.3575
     24 H          -2.2114    8.1433   -1.8707 H       1  LIG1        0.1423
     25 H          -2.6210    6.5217   -2.0130 H       1  LIG1        0.1423
     26 C          -1.4775    9.8415    0.4171 C.ar    1  LIG1        0.1486
     27 C          -0.4206    9.2758   -0.3395 C.ar    1  LIG1        0.0211
     28 C           0.2988   10.1904   -1.1096 C.ar    1  LIG1       -0.0317
     29 C           0.0004   11.5595   -1.0987 C.ar    1  LIG1        0.0798
     30 C          -1.0256   12.0449   -0.2268 C.ar    1  LIG1        0.1077
     31 N          -1.7610   11.1409    0.4706 N.ar    1  LIG1       -0.2329
     32 H           1.0849    9.8296   -1.7651 H       1  LIG1        0.0638
     33 N          -2.9970    8.3796    1.9522 N.1     1  LIG1       -0.1893
     34 C          -2.3189    9.0103    1.2508 C.1     1  LIG1        0.1197
     35 N           1.1796   13.0323   -2.8726 N.1     1  LIG1       -0.1908
     36 C           0.6592   12.3832   -2.0558 C.1     1  LIG1        0.1014
     37 C          -1.4017   13.4135    0.0022 C.ar    1  LIG1        0.0890
     38 C          -0.8152   14.6938   -0.1604 C.ar    1  LIG1        0.0727
     39 C          -1.7143   15.6423    0.4170 C.ar    1  LIG1        0.0637
     40 C          -2.7983   14.9412    0.9211 C.ar    1  LIG1        0.0249
     41 N          -2.6144   13.6265    0.6666 N.ar    1  LIG1       -0.3563
     42 H          -3.1752   12.8477    0.9771 H       1  LIG1        0.1655
     43 H          -3.6848   15.3018    1.4238 H       1  LIG1        0.0826
     44 N           0.4142   15.0901   -0.6296 N.pl3   1  LIG1       -0.3549
     45 H           0.8149   14.6032   -1.4195 H       1  LIG1        0.1424
     46 H           0.4582   16.1015   -0.7035 H       1  LIG1        0.1424
     47 N          -1.4286   17.0386    0.4058 N.pl3   1  LIG1       -0.3554
     48 H          -2.2000   17.5855    0.0363 H       1  LIG1        0.1424
     49 H          -1.2095   17.3952    1.3320 H       1  LIG1        0.1424
@<TRIPOS>BOND
     1    35    36    3
     2    36    29    1
     3    25    23    1
     4    24    23    1
     5    32    28    1
     6    23    18    1
     7    45    44    1
     8     6     1    1
     9    19    17    1
    10    28    29   ar
    11    28    27   ar
    12    29    30   ar
    13     5     1   ar
    14     5     4   ar
    15    18    17   ar
    16    18    15   ar
    17    17    14   ar
    18     1     2   ar
    19    46    44    1
    20    44    38    1
    21    27    15    1
    22    27    26   ar
    23    15    13   ar
    24    14     4    1
    25    14    12   ar
    26    30    37    1
    27    30    31   ar
    28     4     3   ar
    29    38    37   ar
    30    38    39   ar
    31    21    20    1
    32    37    41   ar
    33    48    47    1
    34    13    12   ar
    35    13    16    1
    36    12    20    1
    37     2     3   ar
    38     2     7    1
    39     8     7    1
    40    47    39    1
    41    47    49    1
    42    39    40   ar
    43    26    31   ar
    44    26    34    1
    45     3    10    1
    46    41    40   ar
    47    41    42    1
    48    20    22    1
    49    40    43    1
    50     7     9    1
    51    34    33    3
    52    11    10    1
