@<TRIPOS>MOLECULE
mol_data/opt/b3lyp/geoms/mol2/12hf13ed6ia13ha6if13hl-12di-6fd.out
 94 101 0 0 0
SMALL
GASTEIGER

@<TRIPOS>ATOM
      1 C           1.1694    2.4997   -2.7193 C.ar    1  LIG1        0.1170
      2 C           2.4450    2.3105   -2.2691 C.ar    1  LIG1        0.1057
      3 C           2.6407    3.2795   -1.2274 C.ar    1  LIG1        0.1853
      4 C           1.4687    3.9947   -1.1076 C.ar    1  LIG1        0.1952
      5 O           0.5583    3.5169   -2.0276 O.2     1  LIG1       -0.4557
      6 H           0.5737    2.0146   -3.4753 H       1  LIG1        0.1050
      7 N           3.4033    1.3628   -2.6252 N.pl3   1  LIG1       -0.3527
      8 H           3.3777    1.0868   -3.5980 H       1  LIG1        0.1425
      9 H           4.3367    1.6443   -2.3510 H       1  LIG1        0.1425
     10 O           3.8304    3.3717   -0.5935 O.3     1  LIG1       -0.5020
     11 H           3.7914    4.0352    0.1203 H       1  LIG1        0.2924
     12 C           1.0120    5.0908   -0.3019 C.ar    1  LIG1        0.1031
     13 C           1.5826    5.8053    0.7564 C.ar    1  LIG1        0.0710
     14 C           0.6264    6.8174    1.1356 C.ar    1  LIG1        0.0931
     15 C          -0.4954    6.6922    0.3119 C.ar    1  LIG1        0.0675
     16 N          -0.2253    5.6421   -0.5354 N.ar    1  LIG1       -0.3496
     17 H          -0.8216    5.3305   -1.2859 H       1  LIG1        0.1661
     18 C           2.8336    5.5803    1.3749 C.1     1  LIG1       -0.0661
     19 C           3.9006    5.4126    1.9290 C.1     1  LIG1       -0.1138
     20 H           4.8233    5.2759    2.4449 H       1  LIG1        0.1232
     21 N           0.9617    8.5071    3.0586 N.1     1  LIG1       -0.1908
     22 C           0.8017    7.7435    2.1932 C.1     1  LIG1        0.1025
     23 C          -3.0059    6.9286   -0.0235 C.ar    1  LIG1        0.0481
     24 C          -1.7279    7.4796    0.2564 C.ar    1  LIG1        0.0207
     25 C          -1.6751    8.8629    0.5173 C.ar    1  LIG1       -0.0488
     26 C          -2.8176    9.6387    0.4593 C.ar    1  LIG1       -0.0336
     27 C          -4.0355    9.0196    0.1178 C.ar    1  LIG1        0.0892
     28 N          -4.1041    7.6839   -0.0940 N.ar    1  LIG1       -0.2497
     29 H          -0.7265    9.3240    0.7694 H       1  LIG1        0.0625
     30 C          -3.2418    5.4502   -0.2407 C.3     1  LIG1       -0.0217
     31 H          -2.6074    4.8290    0.3965 H       1  LIG1        0.0293
     32 H          -3.0630    5.1579   -1.2844 H       1  LIG1        0.0293
     33 H          -4.2887    5.2292   -0.0282 H       1  LIG1        0.0293
     34 H          -2.7825   10.6920    0.7087 H       1  LIG1        0.0640
     35 C          -5.2877    9.7317   -0.0017 C.ar    1  LIG1        0.0863
     36 C          -5.6373   11.0933   -0.0032 C.ar    1  LIG1        0.0523
     37 C          -7.0407   11.1614   -0.1353 C.ar    1  LIG1       -0.0150
     38 C          -7.5387    9.8558   -0.2226 C.ar    1  LIG1        0.0506
     39 N          -6.4611    9.0189   -0.1418 N.ar    1  LIG1       -0.3514
     40 H          -6.4365    8.0159   -0.2420 H       1  LIG1        0.1660
     41 N          -4.7623   12.1784    0.1510 N.pl3   1  LIG1       -0.3563
     42 H          -3.9311   12.1103   -0.4253 H       1  LIG1        0.1424
     43 H          -5.2181   13.0662   -0.0216 H       1  LIG1        0.1424
     44 H          -7.6357   12.0639   -0.1344 H       1  LIG1        0.0657
     45 C          -9.4430    8.1607    0.0095 C.ar    1  LIG1        0.0483
     46 C          -8.9249    9.4249   -0.3988 C.ar    1  LIG1        0.0229
     47 C          -9.8262   10.3163   -0.9895 C.ar    1  LIG1       -0.0072
     48 C         -11.1761   10.0026   -1.1676 C.ar    1  LIG1        0.1449
     49 C         -11.6018    8.7298   -0.7193 C.ar    1  LIG1        0.1305
     50 N         -10.7277    7.8653   -0.1603 N.ar    1  LIG1       -0.2460
     51 H          -9.4889   11.2798   -1.3545 H       1  LIG1        0.0662
     52 C          -8.6154    7.0834    0.6707 C.3     1  LIG1       -0.0217
     53 H          -7.9582    7.4858    1.4470 H       1  LIG1        0.0293
     54 H          -7.9885    6.5443   -0.0528 H       1  LIG1        0.0293
     55 H          -9.2854    6.3495    1.1210 H       1  LIG1        0.0293
     56 O         -11.9463   10.9238   -1.7675 O.3     1  LIG1       -0.5045
     57 H         -12.8995   10.6294   -1.8413 H       1  LIG1        0.2922
     58 C         -12.9651    8.1983   -0.8112 C.ar    1  LIG1        0.0937
     59 C         -14.2138    8.6866   -1.2257 C.ar    1  LIG1        0.0948
     60 C         -15.1503    7.6352   -1.0874 C.ar    1  LIG1        0.1695
     61 C         -14.4745    6.5170   -0.5800 C.ar    1  LIG1        0.1279
     62 N         -13.1599    6.9042   -0.4240 N.ar    1  LIG1       -0.3460
     63 H         -12.3725    6.3532   -0.1076 H       1  LIG1        0.1662
     64 N         -14.4693    9.9979   -1.7407 N.pl3   1  LIG1       -0.3534
     65 H         -15.0104    9.9454   -2.6018 H       1  LIG1        0.1425
     66 H         -15.0043   10.5658   -1.0857 H       1  LIG1        0.1425
     67 O         -16.4562    7.6608   -1.4685 O.3     1  LIG1       -0.4910
     68 C         -17.3526    8.3692   -0.6006 C.3     1  LIG1        0.0790
     69 H         -18.3577    8.1418   -0.9549 H       1  LIG1        0.0660
     70 H         -17.2499    8.0277    0.4346 H       1  LIG1        0.0660
     71 H         -17.1783    9.4517   -0.6445 H       1  LIG1        0.0660
     72 C         -14.9033    5.1936   -0.2607 C.ar    1  LIG1        0.1730
     73 C         -16.0977    4.4869   -0.2801 C.ar    1  LIG1        0.1025
     74 C         -15.8190    3.1444    0.1782 C.ar    1  LIG1        0.0135
     75 C         -14.4771    3.1001    0.4425 C.ar    1  LIG1        0.1451
     76 O         -13.9186    4.3508    0.1819 O.2     1  LIG1       -0.4515
     77 N         -18.5029    5.2338   -0.8388 N.1     1  LIG1       -0.1907
     78 C         -17.3977    4.9419   -0.6128 C.1     1  LIG1        0.1033
     79 C         -16.8472    2.0679    0.3424 C.3     1  LIG1       -0.0349
     80 H         -16.5662    1.3641    1.1297 H       1  LIG1        0.0279
     81 H         -16.9876    1.4992   -0.5845 H       1  LIG1        0.0279
     82 H         -17.8162    2.5039    0.5993 H       1  LIG1        0.0279
     83 C         -12.4174    2.3697    1.7261 C.ar    1  LIG1        0.2233
     84 C         -13.5688    2.0710    0.9324 C.ar    1  LIG1        0.0801
     85 C         -13.8042    0.7218    0.6621 C.ar    1  LIG1       -0.0271
     86 C         -12.9559   -0.2629    1.1884 C.ar    1  LIG1        0.0707
     87 C         -11.8678    0.1588    1.9677 C.ar    1  LIG1        0.0488
     88 N         -11.6075    1.4381    2.2197 N.ar    1  LIG1       -0.2196
     89 H         -14.6348    0.4310    0.0304 H       1  LIG1        0.0640
     90 H         -11.1859   -0.5720    2.3953 H       1  LIG1        0.0844
     91 O         -12.0641    3.6274    2.0440 O.3     1  LIG1       -0.4919
     92 H         -12.6669    4.2530    1.6132 H       1  LIG1        0.2937
     93 N         -13.3610   -2.7810    0.7197 N.1     1  LIG1       -0.1908
     94 C         -13.1799   -1.6507    0.9285 C.1     1  LIG1        0.1007
@<TRIPOS>BOND
     1     8     7    1
     2     6     1    1
     3     1     2   ar
     4     1     5   ar
     5     7     9    1
     6     7     2    1
     7    65    64    1
     8     2     3   ar
     9     5     4   ar
    10    57    56    1
    11    56    48    1
    12    64    59    1
    13    64    66    1
    14    67    60    1
    15    67    68    1
    16    51    47    1
    17    17    16    1
    18    32    30    1
    19     3     4   ar
    20     3    10    1
    21    59    60   ar
    22    59    58   ar
    23    48    47   ar
    24    48    49   ar
    25     4    12    1
    26    60    61   ar
    27    47    46   ar
    28    69    68    1
    29    77    78    3
    30    58    49    1
    31    58    62   ar
    32    49    50   ar
    33    71    68    1
    34    78    73    1
    35    68    70    1
    36    10    11    1
    37    81    79    1
    38    61    62   ar
    39    61    72    1
    40    16    12   ar
    41    16    15   ar
    42    42    41    1
    43    62    63    1
    44    46    38    1
    45    46    45   ar
    46    12    13   ar
    47    73    72   ar
    48    73    74   ar
    49    72    76   ar
    50    40    39    1
    51    30    33    1
    52    30    23    1
    53    30    31    1
    54    38    39   ar
    55    38    37   ar
    56    50    45   ar
    57    39    35   ar
    58    37    44    1
    59    37    36   ar
    60    28    23   ar
    61    28    27   ar
    62    54    52    1
    63    23    24   ar
    64    43    41    1
    65    36    35   ar
    66    36    41    1
    67    35    27    1
    68    45    52    1
    69    89    85    1
    70    27    26   ar
    71    74    79    1
    72    74    75   ar
    73    76    75   ar
    74    24    15    1
    75    24    25   ar
    76    15    14   ar
    77    79    82    1
    78    79    80    1
    79    75    84    1
    80    26    25   ar
    81    26    34    1
    82    25    29    1
    83    85    84   ar
    84    85    86   ar
    85    52    55    1
    86    52    53    1
    87    93    94    3
    88    13    14   ar
    89    13    18    1
    90    94    86    1
    91    84    83   ar
    92    14    22    1
    93    86    87   ar
    94    18    19    3
    95    92    91    1
    96    83    91    1
    97    83    88   ar
    98    19    20    1
    99    87    88   ar
   100    87    90    1
   101    22    21    3
