@<TRIPOS>MOLECULE
mol_data/opt/b3lyp/geoms/mol2/12hg12hg-12hg12hg-.out
 42 45 0 0 0
SMALL
GASTEIGER

@<TRIPOS>ATOM
      1 C           0.9523    1.4913   -0.0213 C.ar    1  LIG1        0.1144
      2 C           2.2519    1.7865    0.2845 C.ar    1  LIG1        0.0769
      3 C           2.3478    3.2226    0.2614 C.ar    1  LIG1        0.0745
      4 C           1.0944    3.6895   -0.0747 C.ar    1  LIG1        0.1865
      5 O           0.2367    2.6376   -0.2489 O.2     1  LIG1       -0.4567
      6 H           0.4048    0.5659   -0.1006 H       1  LIG1        0.1049
      7 N           3.2957    0.9319    0.6480 N.pl3   1  LIG1       -0.3547
      8 H           3.1697   -0.0210    0.3310 H       1  LIG1        0.1424
      9 H           4.2010    1.2855    0.3576 H       1  LIG1        0.1424
     10 S           3.8182    4.1037    0.6998 S.3     1  LIG1       -0.1371
     11 H           3.5654    5.1908   -0.0943 H       1  LIG1        0.1073
     12 C           0.5755    5.0140   -0.2877 C.ar    1  LIG1        0.1934
     13 C           1.1348    6.1702   -0.7901 C.ar    1  LIG1        0.0882
     14 C           0.1177    7.1783   -0.7386 C.ar    1  LIG1        0.0752
     15 C          -1.0021    6.5672   -0.2136 C.ar    1  LIG1        0.1875
     16 O          -0.7302    5.2509    0.0564 O.2     1  LIG1       -0.4455
     17 N           2.4488    6.3205   -1.2929 N.pl3   1  LIG1       -0.3541
     18 H           2.5797    5.8422   -2.1807 H       1  LIG1        0.1425
     19 H           2.6798    7.3029   -1.4142 H       1  LIG1        0.1425
     20 S           0.3184    8.8072   -1.3988 S.3     1  LIG1       -0.1371
     21 H          -0.5746    9.4072   -0.5458 H       1  LIG1        0.1073
     22 C          -2.3173    7.0567    0.0912 C.ar    1  LIG1        0.1935
     23 C          -2.7771    8.2861    0.5161 C.ar    1  LIG1        0.0882
     24 C          -4.2012    8.1753    0.6322 C.ar    1  LIG1        0.0752
     25 C          -4.5159    6.8809    0.2778 C.ar    1  LIG1        0.1875
     26 O          -3.3747    6.1958   -0.0497 O.2     1  LIG1       -0.4455
     27 N          -1.9873    9.4209    0.8155 N.pl3   1  LIG1       -0.3541
     28 H          -2.5680   10.2482    0.9244 H       1  LIG1        0.1425
     29 H          -1.4358    9.2953    1.6610 H       1  LIG1        0.1425
     30 S          -5.2380    9.4570    1.2771 S.3     1  LIG1       -0.1371
     31 H          -6.3463    9.1317    0.5435 H       1  LIG1        0.1073
     32 C          -5.7766    6.2008    0.1678 C.ar    1  LIG1        0.1924
     33 C          -7.0228    6.6281   -0.2309 C.ar    1  LIG1        0.0874
     34 C          -7.9055    5.5022   -0.0689 C.ar    1  LIG1        0.0640
     35 C          -7.1311    4.4779    0.3971 C.ar    1  LIG1        0.1077
     36 O          -5.8463    4.8722    0.5336 O.2     1  LIG1       -0.4568
     37 H          -7.3540    3.4541    0.6539 H       1  LIG1        0.1041
     38 N          -7.3675    7.9091   -0.7008 N.pl3   1  LIG1       -0.3541
     39 H          -6.8501    8.1719   -1.5351 H       1  LIG1        0.1425
     40 H          -8.3652    7.9708   -0.8851 H       1  LIG1        0.1425
     41 S          -9.6554    5.4837   -0.3616 S.3     1  LIG1       -0.1378
     42 H          -9.6289    5.1546   -1.6733 H       1  LIG1        0.1073
@<TRIPOS>BOND
     1    18    17    1
     2    42    41    1
     3    39    38    1
     4    19    17    1
     5    20    14    1
     6    20    21    1
     7    17    13    1
     8    40    38    1
     9    13    14   ar
    10    13    12   ar
    11    14    15   ar
    12    38    33    1
    13    41    34    1
    14    12     4    1
    15    12    16   ar
    16     5     4   ar
    17     5     1   ar
    18    33    34   ar
    19    33    32   ar
    20    15    16   ar
    21    15    22    1
    22     6     1    1
    23    11    10    1
    24     4     3   ar
    25    34    35   ar
    26    26    22   ar
    27    26    25   ar
    28     1     2   ar
    29    22    23   ar
    30    32    25    1
    31    32    36   ar
    32     3     2   ar
    33     3    10    1
    34    25    24   ar
    35     2     7    1
    36     8     7    1
    37     9     7    1
    38    35    36   ar
    39    35    37    1
    40    23    24   ar
    41    23    27    1
    42    31    30    1
    43    24    30    1
    44    27    28    1
    45    27    29    1
