@<TRIPOS>MOLECULE
mol_data/opt/b3lyp/geoms/mol2/12hg12hg-12hg-.out
 32 34 0 0 0
SMALL
GASTEIGER

@<TRIPOS>ATOM
      1 C           0.5512    1.7078   -1.0744 C.ar    1  LIG1        0.1144
      2 C           1.7034    1.7107   -0.3381 C.ar    1  LIG1        0.0769
      3 C           1.8225    3.0406    0.2022 C.ar    1  LIG1        0.0745
      4 C           0.7356    3.7494   -0.2642 C.ar    1  LIG1        0.1865
      5 O          -0.0438    2.9430   -1.0483 O.2     1  LIG1       -0.4567
      6 H           0.0358    0.9435   -1.6337 H       1  LIG1        0.1049
      7 N           2.5731    0.6582   -0.0449 N.pl3   1  LIG1       -0.3547
      8 H           2.5369   -0.1001   -0.7140 H       1  LIG1        0.1424
      9 H           3.5284    0.9717    0.0887 H       1  LIG1        0.1424
     10 S           3.0936    3.5130    1.3422 S.3     1  LIG1       -0.1371
     11 H           3.1811    4.8169    0.9521 H       1  LIG1        0.1073
     12 C           0.3560    5.1269   -0.1088 C.ar    1  LIG1        0.1934
     13 C           1.1074    6.2807   -0.0589 C.ar    1  LIG1        0.0882
     14 C           0.1964    7.3537    0.2106 C.ar    1  LIG1        0.0752
     15 C          -1.0610    6.7883    0.2494 C.ar    1  LIG1        0.1875
     16 O          -0.9754    5.4381    0.0422 O.2     1  LIG1       -0.4455
     17 N           2.5016    6.3845   -0.2193 N.pl3   1  LIG1       -0.3541
     18 H           2.8249    5.8952   -1.0489 H       1  LIG1        0.1425
     19 H           2.7972    7.3554   -0.2656 H       1  LIG1        0.1425
     20 S           0.6963    9.0266    0.5072 S.3     1  LIG1       -0.1371
     21 H          -0.3866    9.6146   -0.0846 H       1  LIG1        0.1073
     22 C          -2.3635    7.3786    0.3950 C.ar    1  LIG1        0.1924
     23 C          -2.8964    8.5621   -0.0617 C.ar    1  LIG1        0.0874
     24 C          -4.2338    8.6343    0.4671 C.ar    1  LIG1        0.0640
     25 C          -4.4176    7.4877    1.1869 C.ar    1  LIG1        0.1077
     26 O          -3.3131    6.7131    1.1462 O.2     1  LIG1       -0.4568
     27 H          -5.2571    7.1073    1.7478 H       1  LIG1        0.1041
     28 N          -2.2640    9.5144   -0.8806 N.pl3   1  LIG1       -0.3541
     29 H          -1.9541    9.1249   -1.7662 H       1  LIG1        0.1425
     30 H          -2.8727   10.3105   -1.0498 H       1  LIG1        0.1425
     31 S          -5.3778    9.9752    0.2632 S.3     1  LIG1       -0.1378
     32 H          -5.9686    9.5551   -0.8788 H       1  LIG1        0.1073
@<TRIPOS>BOND
     1    29    28    1
     2     6     1    1
     3     1     5   ar
     4     1     2   ar
     5    30    28    1
     6    18    17    1
     7     5     4   ar
     8    28    23    1
     9    32    31    1
    10     8     7    1
    11     2     7    1
    12     2     3   ar
    13    19    17    1
    14     4    12    1
    15     4     3   ar
    16    17    13    1
    17    12    13   ar
    18    12    16   ar
    19    21    20    1
    20    23    22   ar
    21    23    24   ar
    22    13    14   ar
    23     7     9    1
    24    16    15   ar
    25     3    10    1
    26    14    15   ar
    27    14    20    1
    28    15    22    1
    29    31    24    1
    30    22    26   ar
    31    24    25   ar
    32    11    10    1
    33    26    25   ar
    34    25    27    1
