@<TRIPOS>MOLECULE
mol_data/opt/b3lyp/geoms/mol2/12hg12hg12hg-12hg.out
 42 45 0 0 0
SMALL
GASTEIGER

@<TRIPOS>ATOM
      1 C           1.2084    1.9285   -1.8621 C.ar    1  LIG1        0.1144
      2 C           2.1777    1.8050   -0.9057 C.ar    1  LIG1        0.0769
      3 C           2.0880    2.9939   -0.0977 C.ar    1  LIG1        0.0745
      4 C           1.0764    3.7583   -0.6397 C.ar    1  LIG1        0.1865
      5 O           0.5366    3.1157   -1.7209 O.2     1  LIG1       -0.4567
      6 H           0.8765    1.2864   -2.6621 H       1  LIG1        0.1049
      7 N           3.0388    0.7365   -0.6461 N.pl3   1  LIG1       -0.3547
      8 H           3.2039    0.1413   -1.4477 H       1  LIG1        0.1424
      9 H           3.9170    1.0391   -0.2391 H       1  LIG1        0.1424
     10 S           3.0560    3.2481    1.3641 S.3     1  LIG1       -0.1371
     11 H           3.1326    4.6064    1.2691 H       1  LIG1        0.1073
     12 C           0.5785    5.0632   -0.3003 C.ar    1  LIG1        0.1934
     13 C           1.2220    6.1994    0.1400 C.ar    1  LIG1        0.0882
     14 C           0.2039    7.1719    0.4061 C.ar    1  LIG1        0.0752
     15 C          -0.9931    6.5812    0.0538 C.ar    1  LIG1        0.1875
     16 O          -0.7724    5.3046   -0.3896 O.2     1  LIG1       -0.4455
     17 N           2.6083    6.3661    0.3162 N.pl3   1  LIG1       -0.3541
     18 H           3.1327    6.0729   -0.5032 H       1  LIG1        0.1425
     19 H           2.8396    7.3308    0.5352 H       1  LIG1        0.1425
     20 S           0.5178    8.7517    1.1430 S.3     1  LIG1       -0.1371
     21 H          -0.4393    9.4413    0.4538 H       1  LIG1        0.1073
     22 C          -2.3313    7.0998    0.0196 C.ar    1  LIG1        0.1935
     23 C          -2.8158    8.3467   -0.3126 C.ar    1  LIG1        0.0882
     24 C          -4.2267    8.3195   -0.0637 C.ar    1  LIG1        0.0752
     25 C          -4.5172    7.0355    0.3485 C.ar    1  LIG1        0.1875
     26 O          -3.3752    6.2837    0.3877 O.2     1  LIG1       -0.4455
     27 N          -2.0673    9.4381   -0.7911 N.pl3   1  LIG1       -0.3541
     28 H          -1.4810    9.1782   -1.5793 H       1  LIG1        0.1425
     29 H          -2.6707   10.2089   -1.0632 H       1  LIG1        0.1425
     30 S          -5.2861    9.7311   -0.2050 S.3     1  LIG1       -0.1371
     31 H          -6.3824    9.0514   -0.6586 H       1  LIG1        0.1073
     32 C          -5.7688    6.3975    0.6537 C.ar    1  LIG1        0.1924
     33 C          -7.0240    6.5185    0.1033 C.ar    1  LIG1        0.0874
     34 C          -7.8890    5.6684    0.8796 C.ar    1  LIG1        0.0640
     35 C          -7.0949    5.0858    1.8265 C.ar    1  LIG1        0.1077
     36 O          -5.8161    5.4983    1.7009 O.2     1  LIG1       -0.4568
     37 H          -7.3014    4.3782    2.6144 H       1  LIG1        0.1041
     38 N          -7.3920    7.3124   -0.9973 N.pl3   1  LIG1       -0.3541
     39 H          -6.8734    7.0787   -1.8390 H       1  LIG1        0.1425
     40 H          -8.3896    7.2422   -1.1785 H       1  LIG1        0.1425
     41 S          -9.6405    5.4755    0.6716 S.3     1  LIG1       -0.1378
     42 H          -9.6192    4.4594   -0.2209 H       1  LIG1        0.1073
@<TRIPOS>BOND
     1     6     1    1
     2     1     5   ar
     3     1     2   ar
     4    39    38    1
     5     5     4   ar
     6    28    27    1
     7     8     7    1
     8    40    38    1
     9    29    27    1
    10    38    33    1
    11     2     7    1
    12     2     3   ar
    13    27    23    1
    14    31    30    1
    15     7     9    1
    16     4    12    1
    17     4     3   ar
    18    18    17    1
    19    16    12   ar
    20    16    15   ar
    21    23    24   ar
    22    23    22   ar
    23    12    13   ar
    24    42    41    1
    25    30    24    1
    26     3    10    1
    27    24    25   ar
    28    22    15    1
    29    22    26   ar
    30    15    14   ar
    31    33    32   ar
    32    33    34   ar
    33    13    17    1
    34    13    14   ar
    35    17    19    1
    36    25    26   ar
    37    25    32    1
    38    14    20    1
    39    21    20    1
    40    32    36   ar
    41    41    34    1
    42    34    35   ar
    43    11    10    1
    44    36    35   ar
    45    35    37    1
