@<TRIPOS>MOLECULE
mol_data/opt/b3lyp/geoms/mol2/12hg12hg-12hg-12hg-.out
 42 45 0 0 0
SMALL
GASTEIGER

@<TRIPOS>ATOM
      1 C           0.9517    1.4919    0.0040 C.ar    1  LIG1        0.1144
      2 C           2.2462    1.7865    0.3313 C.ar    1  LIG1        0.0769
      3 C           2.3421    3.2227    0.3132 C.ar    1  LIG1        0.0745
      4 C           1.0942    3.6902   -0.0422 C.ar    1  LIG1        0.1865
      5 O           0.2398    2.6385   -0.2327 O.2     1  LIG1       -0.4567
      6 H           0.4059    0.5665   -0.0862 H       1  LIG1        0.1049
      7 N           3.2843    0.9312    0.7096 N.pl3   1  LIG1       -0.3547
      8 H           3.1645   -0.0204    0.3863 H       1  LIG1        0.1424
      9 H           4.1940    1.2866    0.4357 H       1  LIG1        0.1424
     10 S           3.8051    4.1033    0.7768 S.3     1  LIG1       -0.1371
     11 H           3.5646    5.1918   -0.0192 H       1  LIG1        0.1073
     12 C           0.5785    5.0152   -0.2599 C.ar    1  LIG1        0.1934
     13 C           1.1455    6.1726   -0.7507 C.ar    1  LIG1        0.0882
     14 C           0.1277    7.1806   -0.7124 C.ar    1  LIG1        0.0752
     15 C          -1.0000    6.5682   -0.2064 C.ar    1  LIG1        0.1875
     16 O          -0.7324    5.2512    0.0644 O.2     1  LIG1       -0.4455
     17 N           2.4670    6.3241   -1.2326 N.pl3   1  LIG1       -0.3541
     18 H           2.6121    5.8479   -2.1193 H       1  LIG1        0.1425
     19 H           2.7001    7.3067   -1.3477 H       1  LIG1        0.1425
     20 S           0.3386    8.8114   -1.3646 S.3     1  LIG1       -0.1371
     21 H          -0.5678    9.4087   -0.5236 H       1  LIG1        0.1073
     22 C          -2.3200    7.0568    0.0786 C.ar    1  LIG1        0.1935
     23 C          -2.7869    8.2850    0.4992 C.ar    1  LIG1        0.0882
     24 C          -4.2127    8.1737    0.5923 C.ar    1  LIG1        0.0752
     25 C          -4.5214    6.8801    0.2294 C.ar    1  LIG1        0.1875
     26 O          -3.3749    6.1961   -0.0816 O.2     1  LIG1       -0.4455
     27 N          -2.0019    9.4191    0.8143 N.pl3   1  LIG1       -0.3541
     28 H          -2.5842   10.2465    0.9138 H       1  LIG1        0.1425
     29 H          -1.4663    9.2922    1.6697 H       1  LIG1        0.1425
     30 S          -5.2597    9.4536    1.2236 S.3     1  LIG1       -0.1371
     31 H          -6.3564    9.1295    0.4724 H       1  LIG1        0.1073
     32 C          -5.7799    6.2000    0.0974 C.ar    1  LIG1        0.1924
     33 C          -7.0199    6.6281   -0.3196 C.ar    1  LIG1        0.0874
     34 C          -7.9046    5.5015   -0.1746 C.ar    1  LIG1        0.0640
     35 C          -7.1373    4.4760    0.3005 C.ar    1  LIG1        0.1077
     36 O          -5.8550    4.8703    0.4584 O.2     1  LIG1       -0.4568
     37 H          -7.3639    3.4515    0.5508 H       1  LIG1        0.1041
     38 N          -7.3576    7.9102   -0.7912 N.pl3   1  LIG1       -0.3541
     39 H          -6.8268    8.1760   -1.6161 H       1  LIG1        0.1425
     40 H          -8.3523    7.9722   -0.9913 H       1  LIG1        0.1425
     41 S          -9.6498    5.4833   -0.4950 S.3     1  LIG1       -0.1378
     42 H          -9.6024    5.1591   -1.8073 H       1  LIG1        0.1073
@<TRIPOS>BOND
     1    18    17    1
     2    42    41    1
     3    39    38    1
     4    20    14    1
     5    20    21    1
     6    19    17    1
     7    17    13    1
     8    40    38    1
     9    38    33    1
    10    13    14   ar
    11    13    12   ar
    12    14    15   ar
    13    41    34    1
    14    33    34   ar
    15    33    32   ar
    16    12     4    1
    17    12    16   ar
    18     5     4   ar
    19     5     1   ar
    20    15    16   ar
    21    15    22    1
    22    34    35   ar
    23     6     1    1
    24    26    22   ar
    25    26    25   ar
    26     4     3   ar
    27    11    10    1
    28     1     2   ar
    29    22    23   ar
    30    32    25    1
    31    32    36   ar
    32    25    24   ar
    33    35    36   ar
    34    35    37    1
    35     3     2   ar
    36     3    10    1
    37     2     7    1
    38     8     7    1
    39     9     7    1
    40    31    30    1
    41    23    24   ar
    42    23    27    1
    43    24    30    1
    44    27    28    1
    45    27    29    1
