@<TRIPOS>MOLECULE
mol_data/opt/b3lyp/geoms/mol2/12hg12hg.out
 22 23 0 0 0
SMALL
GASTEIGER

@<TRIPOS>ATOM
      1 C           0.2011    1.7727   -0.5652 C.ar    1  LIG1        0.1144
      2 C           1.4967    1.7865   -0.1284 C.ar    1  LIG1        0.0769
      3 C           1.7689    3.1482    0.2549 C.ar    1  LIG1        0.0745
      4 C           0.6165    3.8604    0.0051 C.ar    1  LIG1        0.1865
      5 O          -0.3452    3.0293   -0.5003 O.2     1  LIG1       -0.4567
      6 H          -0.4496    0.9896   -0.9196 H       1  LIG1        0.1049
      7 N           2.3920    0.7272    0.0337 N.pl3   1  LIG1       -0.3547
      8 H           2.1821   -0.0769   -0.5438 H       1  LIG1        0.1424
      9 H           3.3566    1.0144   -0.0914 H       1  LIG1        0.1424
     10 S           3.2914    3.6673    0.9965 S.3     1  LIG1       -0.1371
     11 H           3.2884    4.9297    0.4777 H       1  LIG1        0.1073
     12 C           0.3108    5.2609    0.1330 C.ar    1  LIG1        0.1924
     13 C           1.0569    6.3953   -0.0872 C.ar    1  LIG1        0.0874
     14 C           0.2171    7.5083    0.2745 C.ar    1  LIG1        0.0640
     15 C          -0.9745    6.9708    0.6702 C.ar    1  LIG1        0.1077
     16 O          -0.9452    5.6236    0.5812 O.2     1  LIG1       -0.4568
     17 H          -1.8947    7.4152    1.0160 H       1  LIG1        0.1041
     18 N           2.3784    6.4609   -0.5630 N.pl3   1  LIG1       -0.3541
     19 H           2.4941    6.0071   -1.4643 H       1  LIG1        0.1425
     20 H           2.6994    7.4234   -0.6177 H       1  LIG1        0.1425
     21 S           0.6727    9.2232    0.2605 S.3     1  LIG1       -0.1378
     22 H           0.3302    9.5060   -1.0172 H       1  LIG1        0.1073
@<TRIPOS>BOND
     1    19    18    1
     2    22    21    1
     3     6     1    1
     4    20    18    1
     5     1     5   ar
     6     1     2   ar
     7    18    13    1
     8     8     7    1
     9     5     4   ar
    10     2     7    1
    11     2     3   ar
    12     9     7    1
    13    13    12   ar
    14    13    14   ar
    15     4    12    1
    16     4     3   ar
    17    12    16   ar
    18     3    10    1
    19    21    14    1
    20    14    15   ar
    21    11    10    1
    22    16    15   ar
    23    15    17    1
