@<TRIPOS>MOLECULE
mol_data/opt/b3lyp/geoms/mol2/12hg12hg-.out
 22 23 0 0 0
SMALL
GASTEIGER

@<TRIPOS>ATOM
      1 C           0.1975    1.7712   -0.5548 C.ar    1  LIG1        0.1144
      2 C           1.4965    1.7865   -0.1285 C.ar    1  LIG1        0.0769
      3 C           1.7714    3.1492    0.2491 C.ar    1  LIG1        0.0745
      4 C           0.6169    3.8605    0.0069 C.ar    1  LIG1        0.1865
      5 O          -0.3487    3.0278   -0.4886 O.2     1  LIG1       -0.4567
      6 H          -0.4558    0.9870   -0.9020 H       1  LIG1        0.1049
      7 N           2.3934    0.7278    0.0292 N.pl3   1  LIG1       -0.3547
      8 H           2.1791   -0.0778   -0.5446 H       1  LIG1        0.1424
      9 H           3.3569    1.0149   -0.1044 H       1  LIG1        0.1424
     10 S           3.2996    3.6706    0.9773 S.3     1  LIG1       -0.1371
     11 H           3.2921    4.9317    0.4554 H       1  LIG1        0.1073
     12 C           0.3117    5.2612    0.1336 C.ar    1  LIG1        0.1924
     13 C           1.0558    6.3952   -0.0954 C.ar    1  LIG1        0.0874
     14 C           0.2185    7.5089    0.2701 C.ar    1  LIG1        0.0640
     15 C          -0.9697    6.9721    0.6767 C.ar    1  LIG1        0.1077
     16 O          -0.9407    5.6247    0.5910 O.2     1  LIG1       -0.4568
     17 H          -1.8873    7.4172    1.0287 H       1  LIG1        0.1041
     18 N           2.3734    6.4599   -0.5820 N.pl3   1  LIG1       -0.3541
     19 H           2.4821    6.0037   -1.4829 H       1  LIG1        0.1425
     20 H           2.6937    7.4223   -0.6418 H       1  LIG1        0.1425
     21 S           0.6735    9.2239    0.2480 S.3     1  LIG1       -0.1378
     22 H           0.3206    9.5033   -1.0276 H       1  LIG1        0.1073
@<TRIPOS>BOND
     1    19    18    1
     2    22    21    1
     3     6     1    1
     4    20    18    1
     5    18    13    1
     6     1     5   ar
     7     1     2   ar
     8     8     7    1
     9     5     4   ar
    10     2     7    1
    11     2     3   ar
    12     9     7    1
    13    13    12   ar
    14    13    14   ar
    15     4    12    1
    16     4     3   ar
    17    12    16   ar
    18    21    14    1
    19     3    10    1
    20    14    15   ar
    21    11    10    1
    22    16    15   ar
    23    15    17    1
