@<TRIPOS>MOLECULE
mol_data/opt/b3lyp/geoms/mol2/12hg12hg12hg-.out
 32 34 0 0 0
SMALL
GASTEIGER

@<TRIPOS>ATOM
      1 C           0.5568    1.7054   -1.0740 C.ar    1  LIG1        0.1144
      2 C           1.7032    1.7091   -0.3288 C.ar    1  LIG1        0.0769
      3 C           1.8189    3.0398    0.2100 C.ar    1  LIG1        0.0745
      4 C           0.7360    3.7485   -0.2661 C.ar    1  LIG1        0.1865
      5 O          -0.0377    2.9410   -1.0548 O.2     1  LIG1       -0.4567
      6 H           0.0452    0.9404   -1.6357 H       1  LIG1        0.1049
      7 N           2.5700    0.6566   -0.0268 N.pl3   1  LIG1       -0.3547
      8 H           2.5388   -0.1027   -0.6951 H       1  LIG1        0.1424
      9 H           3.5243    0.9698    0.1138 H       1  LIG1        0.1424
     10 S           3.0814    3.5137    1.3589 S.3     1  LIG1       -0.1371
     11 H           3.1725    4.8168    0.9671 H       1  LIG1        0.1073
     12 C           0.3561    5.1265   -0.1164 C.ar    1  LIG1        0.1934
     13 C           1.1080    6.2799   -0.0627 C.ar    1  LIG1        0.0882
     14 C           0.1956    7.3539    0.1977 C.ar    1  LIG1        0.0752
     15 C          -1.0625    6.7895    0.2276 C.ar    1  LIG1        0.1875
     16 O          -0.9761    5.4388    0.0236 O.2     1  LIG1       -0.4455
     17 N           2.5034    6.3824   -0.2122 N.pl3   1  LIG1       -0.3541
     18 H           2.8330    5.8912   -1.0383 H       1  LIG1        0.1425
     19 H           2.8001    7.3530   -0.2580 H       1  LIG1        0.1425
     20 S           0.6943    9.0271    0.4951 S.3     1  LIG1       -0.1371
     21 H          -0.3836    9.6147   -0.1060 H       1  LIG1        0.1073
     22 C          -2.3657    7.3808    0.3622 C.ar    1  LIG1        0.1924
     23 C          -2.8943    8.5639   -0.1008 C.ar    1  LIG1        0.0874
     24 C          -4.2358    8.6377    0.4172 C.ar    1  LIG1        0.0640
     25 C          -4.4259    7.4925    1.1376 C.ar    1  LIG1        0.1077
     26 O          -3.3215    6.7173    1.1071 O.2     1  LIG1       -0.4568
     27 H          -5.2700    7.1136    1.6926 H       1  LIG1        0.1041
     28 N          -2.2549    9.5144   -0.9164 N.pl3   1  LIG1       -0.3541
     29 H          -1.9382    9.1232   -1.7988 H       1  LIG1        0.1425
     30 H          -2.8618   10.3106   -1.0918 H       1  LIG1        0.1425
     31 S          -5.3775    9.9788    0.2019 S.3     1  LIG1       -0.1378
     32 H          -5.9590    9.5574   -0.9444 H       1  LIG1        0.1073
@<TRIPOS>BOND
     1    29    28    1
     2     6     1    1
     3    30    28    1
     4     1     5   ar
     5     1     2   ar
     6     5     4   ar
     7    18    17    1
     8    32    31    1
     9    28    23    1
    10     8     7    1
    11     2     7    1
    12     2     3   ar
    13     4    12    1
    14     4     3   ar
    15    19    17    1
    16    17    13    1
    17    12    13   ar
    18    12    16   ar
    19    21    20    1
    20    23    22   ar
    21    23    24   ar
    22    13    14   ar
    23     7     9    1
    24    16    15   ar
    25    14    15   ar
    26    14    20    1
    27    31    24    1
    28     3    10    1
    29    15    22    1
    30    22    26   ar
    31    24    25   ar
    32    11    10    1
    33    26    25   ar
    34    25    27    1
