@<TRIPOS>MOLECULE
mol_data/opt/b3lyp/geoms/mol2/12hg12hg-12hg-12hg.out
 42 45 0 0 0
SMALL
GASTEIGER

@<TRIPOS>ATOM
      1 C           0.9532    1.4932    0.0082 C.ar    1  LIG1        0.1144
      2 C           2.2463    1.7878    0.3412 C.ar    1  LIG1        0.0769
      3 C           2.3414    3.2241    0.3266 C.ar    1  LIG1        0.0745
      4 C           1.0946    3.6917   -0.0323 C.ar    1  LIG1        0.1865
      5 O           0.2415    2.6399   -0.2285 O.2     1  LIG1       -0.4567
      6 H           0.4082    0.5677   -0.0860 H       1  LIG1        0.1049
      7 N           3.2834    0.9322    0.7213 N.pl3   1  LIG1       -0.3547
      8 H           3.1657   -0.0186    0.3951 H       1  LIG1        0.1424
      9 H           4.1941    1.2892    0.4526 H       1  LIG1        0.1424
     10 S           3.8021    4.1046    0.7979 S.3     1  LIG1       -0.1371
     11 H           3.5647    5.1942    0.0025 H       1  LIG1        0.1073
     12 C           0.5792    5.0169   -0.2495 C.ar    1  LIG1        0.1934
     13 C           1.1475    6.1754   -0.7360 C.ar    1  LIG1        0.0882
     14 C           0.1292    7.1830   -0.6997 C.ar    1  LIG1        0.0752
     15 C          -1.0002    6.5691   -0.1992 C.ar    1  LIG1        0.1875
     16 O          -0.7331    5.2518    0.0703 O.2     1  LIG1       -0.4455
     17 N           2.4708    6.3282   -1.2128 N.pl3   1  LIG1       -0.3541
     18 H           2.6191    5.8543   -2.1001 H       1  LIG1        0.1425
     19 H           2.7040    7.3112   -1.3247 H       1  LIG1        0.1425
     20 S           0.3420    8.8148   -1.3486 S.3     1  LIG1       -0.1371
     21 H          -0.5681    9.4105   -0.5106 H       1  LIG1        0.1073
     22 C          -2.3215    7.0567    0.0819 C.ar    1  LIG1        0.1935
     23 C          -2.7904    8.2840    0.5028 C.ar    1  LIG1        0.0882
     24 C          -4.2164    8.1719    0.5905 C.ar    1  LIG1        0.0752
     25 C          -4.5233    6.8789    0.2245 C.ar    1  LIG1        0.1875
     26 O          -3.3754    6.1958   -0.0833 O.2     1  LIG1       -0.4455
     27 N          -2.0072    9.4180    0.8224 N.pl3   1  LIG1       -0.3541
     28 H          -2.5904   10.2448    0.9220 H       1  LIG1        0.1425
     29 H          -1.4736    9.2897    1.6788 H       1  LIG1        0.1425
     30 S          -5.2663    9.4504    1.2202 S.3     1  LIG1       -0.1371
     31 H          -6.3602    9.1268    0.4646 H       1  LIG1        0.1073
     32 C          -5.7810    6.1984    0.0869 C.ar    1  LIG1        0.1924
     33 C          -7.0198    6.6265   -0.3333 C.ar    1  LIG1        0.0874
     34 C          -7.9044    5.4991   -0.1936 C.ar    1  LIG1        0.0640
     35 C          -7.1380    4.4731    0.2820 C.ar    1  LIG1        0.1077
     36 O          -5.8564    4.8679    0.4449 O.2     1  LIG1       -0.4568
     37 H          -7.3648    3.4480    0.5296 H       1  LIG1        0.1041
     38 N          -7.3567    7.9093   -0.8037 N.pl3   1  LIG1       -0.3541
     39 H          -6.8242    8.1764   -1.6271 H       1  LIG1        0.1425
     40 H          -8.3509    7.9713   -1.0061 H       1  LIG1        0.1425
     41 S          -9.6484    5.4805   -0.5198 S.3     1  LIG1       -0.1378
     42 H          -9.5965    5.1582   -1.8323 H       1  LIG1        0.1073
@<TRIPOS>BOND
     1    18    17    1
     2    42    41    1
     3    39    38    1
     4    20    14    1
     5    20    21    1
     6    19    17    1
     7    17    13    1
     8    40    38    1
     9    38    33    1
    10    13    14   ar
    11    13    12   ar
    12    14    15   ar
    13    41    34    1
    14    33    34   ar
    15    33    32   ar
    16    12     4    1
    17    12    16   ar
    18     5     4   ar
    19     5     1   ar
    20    15    16   ar
    21    15    22    1
    22    34    35   ar
    23     6     1    1
    24    26    22   ar
    25    26    25   ar
    26     4     3   ar
    27    11    10    1
    28     1     2   ar
    29    22    23   ar
    30    32    25    1
    31    32    36   ar
    32    25    24   ar
    33    35    36   ar
    34    35    37    1
    35     3     2   ar
    36     3    10    1
    37     2     7    1
    38     8     7    1
    39     9     7    1
    40    31    30    1
    41    23    24   ar
    42    23    27    1
    43    24    30    1
    44    27    28    1
    45    27    29    1
