@<TRIPOS>MOLECULE
mol_data/opt/b3lyp/geoms/mol2/12hg12hg12hg.out
 32 34 0 0 0
SMALL
GASTEIGER

@<TRIPOS>ATOM
      1 C           0.5538    1.7028   -1.0697 C.ar    1  LIG1        0.1144
      2 C           1.7014    1.7075   -0.3262 C.ar    1  LIG1        0.0769
      3 C           1.8184    3.0393    0.2097 C.ar    1  LIG1        0.0745
      4 C           0.7351    3.7474   -0.2663 C.ar    1  LIG1        0.1865
      5 O          -0.0402    2.9386   -1.0521 O.2     1  LIG1       -0.4567
      6 H           0.0411    0.9368   -1.6291 H       1  LIG1        0.1049
      7 N           2.5683    0.6554   -0.0236 N.pl3   1  LIG1       -0.3547
      8 H           2.5359   -0.1052   -0.6902 H       1  LIG1        0.1424
      9 H           3.5229    0.9685    0.1152 H       1  LIG1        0.1424
     10 S           3.0829    3.5152    1.3555 S.3     1  LIG1       -0.1371
     11 H           3.1738    4.8175    0.9607 H       1  LIG1        0.1073
     12 C           0.3559    5.1259   -0.1188 C.ar    1  LIG1        0.1934
     13 C           1.1081    6.2792   -0.0687 C.ar    1  LIG1        0.0882
     14 C           0.1964    7.3541    0.1906 C.ar    1  LIG1        0.0752
     15 C          -1.0618    6.7900    0.2237 C.ar    1  LIG1        0.1875
     16 O          -0.9761    5.4389    0.0226 O.2     1  LIG1       -0.4455
     17 N           2.5033    6.3811   -0.2207 N.pl3   1  LIG1       -0.3541
     18 H           2.8314    5.8887   -1.0467 H       1  LIG1        0.1425
     19 H           2.8003    7.3515   -0.2683 H       1  LIG1        0.1425
     20 S           0.6961    9.0276    0.4841 S.3     1  LIG1       -0.1371
     21 H          -0.3827    9.6145   -0.1163 H       1  LIG1        0.1073
     22 C          -2.3647    7.3819    0.3591 C.ar    1  LIG1        0.1924
     23 C          -2.8937    8.5642   -0.1054 C.ar    1  LIG1        0.0874
     24 C          -4.2344    8.6393    0.4143 C.ar    1  LIG1        0.0640
     25 C          -4.4239    7.4954    1.1370 C.ar    1  LIG1        0.1077
     26 O          -3.3196    6.7199    1.1064 O.2     1  LIG1       -0.4568
     27 H          -5.2673    7.1176    1.6937 H       1  LIG1        0.1041
     28 N          -2.2553    9.5130   -0.9238 N.pl3   1  LIG1       -0.3541
     29 H          -1.9400    9.1200   -1.8059 H       1  LIG1        0.1425
     30 H          -2.8620   10.3090   -1.0997 H       1  LIG1        0.1425
     31 S          -5.3760    9.9804    0.1984 S.3     1  LIG1       -0.1378
     32 H          -5.9596    9.5569   -0.9461 H       1  LIG1        0.1073
@<TRIPOS>BOND
     1    29    28    1
     2     6     1    1
     3    30    28    1
     4     1     5   ar
     5     1     2   ar
     6     5     4   ar
     7    18    17    1
     8    32    31    1
     9    28    23    1
    10     8     7    1
    11     2     7    1
    12     2     3   ar
    13    19    17    1
    14     4    12    1
    15     4     3   ar
    16    17    13    1
    17    12    13   ar
    18    12    16   ar
    19    21    20    1
    20    23    22   ar
    21    23    24   ar
    22    13    14   ar
    23     7     9    1
    24    16    15   ar
    25    14    15   ar
    26    14    20    1
    27    31    24    1
    28     3    10    1
    29    15    22    1
    30    22    26   ar
    31    24    25   ar
    32    11    10    1
    33    26    25   ar
    34    25    27    1
