@<TRIPOS>MOLECULE
mol_data/opt/b3lyp/geoms/mol2/12hg12hg-12hg.out
 32 34 0 0 0
SMALL
GASTEIGER

@<TRIPOS>ATOM
      1 C           0.5483    1.7026   -1.0594 C.ar    1  LIG1        0.1144
      2 C           1.7018    1.7089   -0.3253 C.ar    1  LIG1        0.0769
      3 C           1.8223    3.0412    0.2085 C.ar    1  LIG1        0.0745
      4 C           0.7346    3.7481   -0.2592 C.ar    1  LIG1        0.1865
      5 O          -0.0466    2.9381   -1.0378 O.2     1  LIG1       -0.4567
      6 H           0.0315    0.9359   -1.6140 H       1  LIG1        0.1049
      7 N           2.5720    0.6577   -0.0287 N.pl3   1  LIG1       -0.3547
      8 H           2.5347   -0.1037   -0.6942 H       1  LIG1        0.1424
      9 H           3.5275    0.9717    0.1018 H       1  LIG1        0.1424
     10 S           3.0957    3.5189    1.3439 S.3     1  LIG1       -0.1371
     11 H           3.1832    4.8206    0.9468 H       1  LIG1        0.1073
     12 C           0.3556    5.1264   -0.1096 C.ar    1  LIG1        0.1934
     13 C           1.1074    6.2802   -0.0666 C.ar    1  LIG1        0.0882
     14 C           0.1971    7.3547    0.1991 C.ar    1  LIG1        0.0752
     15 C          -1.0603    6.7898    0.2432 C.ar    1  LIG1        0.1875
     16 O          -0.9754    5.4386    0.0424 O.2     1  LIG1       -0.4455
     17 N           2.5013    6.3830   -0.2303 N.pl3   1  LIG1       -0.3541
     18 H           2.8228    5.8894   -1.0581 H       1  LIG1        0.1425
     19 H           2.7970    7.3535   -0.2822 H       1  LIG1        0.1425
     20 S           0.6982    9.0289    0.4870 S.3     1  LIG1       -0.1371
     21 H          -0.3860    9.6146   -0.1046 H       1  LIG1        0.1073
     22 C          -2.3626    7.3809    0.3888 C.ar    1  LIG1        0.1924
     23 C          -2.8962    8.5624   -0.0723 C.ar    1  LIG1        0.0874
     24 C          -4.2327    8.6368    0.4584 C.ar    1  LIG1        0.0640
     25 C          -4.4153    7.4935    1.1838 C.ar    1  LIG1        0.1077
     26 O          -3.3107    6.7188    1.1447 O.2     1  LIG1       -0.4568
     27 H          -5.2535    7.1157    1.7480 H       1  LIG1        0.1041
     28 N          -2.2654    9.5110   -0.8966 N.pl3   1  LIG1       -0.3541
     29 H          -1.9561    9.1172   -1.7806 H       1  LIG1        0.1425
     30 H          -2.8747   10.3059   -1.0691 H       1  LIG1        0.1425
     31 S          -5.3773    9.9767    0.2501 S.3     1  LIG1       -0.1378
     32 H          -5.9690    9.5518   -0.8896 H       1  LIG1        0.1073
@<TRIPOS>BOND
     1    29    28    1
     2     6     1    1
     3    30    28    1
     4     1     5   ar
     5     1     2   ar
     6    18    17    1
     7     5     4   ar
     8    28    23    1
     9    32    31    1
    10     8     7    1
    11     2     7    1
    12     2     3   ar
    13    19    17    1
    14     4    12    1
    15     4     3   ar
    16    17    13    1
    17    12    13   ar
    18    12    16   ar
    19    21    20    1
    20    23    22   ar
    21    23    24   ar
    22    13    14   ar
    23     7     9    1
    24    16    15   ar
    25    14    15   ar
    26    14    20    1
    27     3    10    1
    28    15    22    1
    29    31    24    1
    30    22    26   ar
    31    24    25   ar
    32    11    10    1
    33    26    25   ar
    34    25    27    1
