@<TRIPOS>MOLECULE
mol_data/opt/b3lyp/geoms/mol2/12hg12hg12hg-12hg-.out
 42 45 0 0 0
SMALL
GASTEIGER

@<TRIPOS>ATOM
      1 C           0.9498    1.4899   -0.0319 C.ar    1  LIG1        0.1144
      2 C           2.2443    1.7833    0.2967 C.ar    1  LIG1        0.0769
      3 C           2.3410    3.2195    0.2807 C.ar    1  LIG1        0.0745
      4 C           1.0936    3.6882   -0.0747 C.ar    1  LIG1        0.1865
      5 O           0.2387    2.6373   -0.2672 O.2     1  LIG1       -0.4567
      6 H           0.4036    0.5649   -0.1238 H       1  LIG1        0.1049
      7 N           3.2816    0.9268    0.6742 N.pl3   1  LIG1       -0.3547
      8 H           3.1607   -0.0246    0.3507 H       1  LIG1        0.1424
      9 H           4.1917    1.2814    0.4003 H       1  LIG1        0.1424
     10 S           3.8045    4.0984    0.7459 S.3     1  LIG1       -0.1371
     11 H           3.5647    5.1885   -0.0481 H       1  LIG1        0.1073
     12 C           0.5787    5.0138   -0.2904 C.ar    1  LIG1        0.1934
     13 C           1.1466    6.1715   -0.7796 C.ar    1  LIG1        0.0882
     14 C           0.1294    7.1802   -0.7399 C.ar    1  LIG1        0.0752
     15 C          -0.9987    6.5678   -0.2349 C.ar    1  LIG1        0.1875
     16 O          -0.7320    5.2502    0.0341 O.2     1  LIG1       -0.4455
     17 N           2.4683    6.3228   -1.2609 N.pl3   1  LIG1       -0.3541
     18 H           2.6134    5.8474   -2.1480 H       1  LIG1        0.1425
     19 H           2.7019    7.3055   -1.3750 H       1  LIG1        0.1425
     20 S           0.3415    8.8116   -1.3902 S.3     1  LIG1       -0.1371
     21 H          -0.5655    9.4083   -0.5495 H       1  LIG1        0.1073
     22 C          -2.3186    7.0568    0.0502 C.ar    1  LIG1        0.1935
     23 C          -2.7848    8.2848    0.4720 C.ar    1  LIG1        0.0882
     24 C          -4.2107    8.1744    0.5643 C.ar    1  LIG1        0.0752
     25 C          -4.5202    6.8815    0.1998 C.ar    1  LIG1        0.1875
     26 O          -3.3740    6.1970   -0.1114 O.2     1  LIG1       -0.4455
     27 N          -1.9991    9.4180    0.7887 N.pl3   1  LIG1       -0.3541
     28 H          -2.5809   10.2455    0.8901 H       1  LIG1        0.1425
     29 H          -1.4628    9.2892    1.6434 H       1  LIG1        0.1425
     30 S          -5.2571    9.4544    1.1968 S.3     1  LIG1       -0.1371
     31 H          -6.3538    9.1318    0.4449 H       1  LIG1        0.1073
     32 C          -5.7791    6.2024    0.0666 C.ar    1  LIG1        0.1924
     33 C          -7.0186    6.6319   -0.3501 C.ar    1  LIG1        0.0874
     34 C          -7.9042    5.5056   -0.2069 C.ar    1  LIG1        0.0640
     35 C          -7.1376    4.4791    0.2671 C.ar    1  LIG1        0.1077
     36 O          -5.8551    4.8722    0.4258 O.2     1  LIG1       -0.4568
     37 H          -7.3651    3.4544    0.5161 H       1  LIG1        0.1041
     38 N          -7.3554    7.9147   -0.8203 N.pl3   1  LIG1       -0.3541
     39 H          -6.8243    8.1811   -1.6448 H       1  LIG1        0.1425
     40 H          -8.3500    7.9776   -1.0205 H       1  LIG1        0.1425
     41 S          -9.6491    5.4893   -0.5278 S.3     1  LIG1       -0.1378
     42 H          -9.6018    5.1651   -1.8401 H       1  LIG1        0.1073
@<TRIPOS>BOND
     1    18    17    1
     2    42    41    1
     3    39    38    1
     4    20    14    1
     5    20    21    1
     6    19    17    1
     7    17    13    1
     8    40    38    1
     9    38    33    1
    10    13    14   ar
    11    13    12   ar
    12    14    15   ar
    13    41    34    1
    14    33    34   ar
    15    33    32   ar
    16    12     4    1
    17    12    16   ar
    18     5     4   ar
    19     5     1   ar
    20    15    16   ar
    21    15    22    1
    22    34    35   ar
    23     6     1    1
    24    26    22   ar
    25    26    25   ar
    26     4     3   ar
    27    11    10    1
    28     1     2   ar
    29    22    23   ar
    30    32    25    1
    31    32    36   ar
    32    25    24   ar
    33    35    36   ar
    34    35    37    1
    35     3     2   ar
    36     3    10    1
    37     2     7    1
    38     8     7    1
    39     9     7    1
    40    31    30    1
    41    23    24   ar
    42    23    27    1
    43    24    30    1
    44    27    28    1
    45    27    29    1
