@<TRIPOS>MOLECULE
mol_data/opt/b3lyp/geoms/mol2/12hg12hg12hg12hg-.out
 42 45 0 0 0
SMALL
GASTEIGER

@<TRIPOS>ATOM
      1 C           0.9512    1.4911   -0.0019 C.ar    1  LIG1        0.1144
      2 C           2.2467    1.7871    0.3200 C.ar    1  LIG1        0.0769
      3 C           2.3428    3.2232    0.2939 C.ar    1  LIG1        0.0745
      4 C           1.0941    3.6890   -0.0604 C.ar    1  LIG1        0.1865
      5 O           0.2388    2.6365   -0.2425 O.2     1  LIG1       -0.4567
      6 H           0.4050    0.5653   -0.0855 H       1  LIG1        0.1049
      7 N           3.2858    0.9337    0.6995 N.pl3   1  LIG1       -0.3547
      8 H           3.1642   -0.0200    0.3832 H       1  LIG1        0.1424
      9 H           4.1948    1.2868    0.4204 H       1  LIG1        0.1424
     10 S           3.8076    4.1060    0.7474 S.3     1  LIG1       -0.1371
     11 H           3.5647    5.1900   -0.0542 H       1  LIG1        0.1073
     12 C           0.5780    5.0130   -0.2832 C.ar    1  LIG1        0.1934
     13 C           1.1436    6.1673   -0.7828 C.ar    1  LIG1        0.0882
     14 C           0.1264    7.1760   -0.7464 C.ar    1  LIG1        0.0752
     15 C          -0.9997    6.5670   -0.2327 C.ar    1  LIG1        0.1875
     16 O          -0.7316    5.2514    0.0446 O.2     1  LIG1       -0.4455
     17 N           2.4636    6.3154   -1.2703 N.pl3   1  LIG1       -0.3541
     18 H           2.6049    5.8347   -2.1551 H       1  LIG1        0.1425
     19 H           2.6968    7.2973   -1.3914 H       1  LIG1        0.1425
     20 S           0.3356    8.8028   -1.4092 S.3     1  LIG1       -0.1371
     21 H          -0.5686    9.4053   -0.5694 H       1  LIG1        0.1073
     22 C          -2.3186    7.0577    0.0539 C.ar    1  LIG1        0.1935
     23 C          -2.7836    8.2886    0.4684 C.ar    1  LIG1        0.0882
     24 C          -4.2092    8.1785    0.5667 C.ar    1  LIG1        0.0752
     25 C          -4.5196    6.8829    0.2126 C.ar    1  LIG1        0.1875
     26 O          -3.3743    6.1965   -0.0977 O.2     1  LIG1       -0.4455
     27 N          -1.9971    9.4242    0.7743 N.pl3   1  LIG1       -0.3541
     28 H          -2.5785   10.2524    0.8715 H       1  LIG1        0.1425
     29 H          -1.4576    9.3016    1.6279 H       1  LIG1        0.1425
     30 S          -5.2532    9.4628    1.1941 S.3     1  LIG1       -0.1371
     31 H          -6.3533    9.1339    0.4499 H       1  LIG1        0.1073
     32 C          -5.7787    6.2026    0.0889 C.ar    1  LIG1        0.1924
     33 C          -7.0201    6.6286   -0.3258 C.ar    1  LIG1        0.0874
     34 C          -7.9046    5.5030   -0.1715 C.ar    1  LIG1        0.0640
     35 C          -7.1357    4.4800    0.3063 C.ar    1  LIG1        0.1077
     36 O          -5.8527    4.8747    0.4573 O.2     1  LIG1       -0.4568
     37 H          -7.3617    3.4569    0.5631 H       1  LIG1        0.1041
     38 N          -7.3593    7.9081   -0.8033 N.pl3   1  LIG1       -0.3541
     39 H          -6.8305    8.1697   -1.6308 H       1  LIG1        0.1425
     40 H          -8.3545    7.9687   -1.0014 H       1  LIG1        0.1425
     41 S          -9.6508    5.4836   -0.4857 S.3     1  LIG1       -0.1378
     42 H          -9.6082    5.1507   -1.7960 H       1  LIG1        0.1073
@<TRIPOS>BOND
     1    18    17    1
     2    42    41    1
     3    39    38    1
     4    20    14    1
     5    20    21    1
     6    19    17    1
     7    17    13    1
     8    40    38    1
     9    38    33    1
    10    13    14   ar
    11    13    12   ar
    12    14    15   ar
    13    41    34    1
    14    33    34   ar
    15    33    32   ar
    16    12     4    1
    17    12    16   ar
    18     5     4   ar
    19     5     1   ar
    20    15    16   ar
    21    15    22    1
    22    34    35   ar
    23    26    22   ar
    24    26    25   ar
    25     6     1    1
    26     4     3   ar
    27    11    10    1
    28     1     2   ar
    29    22    23   ar
    30    32    25    1
    31    32    36   ar
    32    25    24   ar
    33     3     2   ar
    34     3    10    1
    35    35    36   ar
    36    35    37    1
    37     2     7    1
    38     8     7    1
    39     9     7    1
    40    31    30    1
    41    23    24   ar
    42    23    27    1
    43    24    30    1
    44    27    28    1
    45    27    29    1
