@<TRIPOS>MOLECULE
mol_data/opt/b3lyp/geoms/mol2/12hg12hg12hg12hg.out
 42 45 0 0 0
SMALL
GASTEIGER

@<TRIPOS>ATOM
      1 C           0.9526    1.4927    0.0046 C.ar    1  LIG1        0.1144
      2 C           2.2474    1.7892    0.3291 C.ar    1  LIG1        0.0769
      3 C           2.3429    3.2253    0.3040 C.ar    1  LIG1        0.0745
      4 C           1.0946    3.6908   -0.0522 C.ar    1  LIG1        0.1865
      5 O           0.2401    2.6380   -0.2367 O.2     1  LIG1       -0.4567
      6 H           0.4068    0.5668   -0.0803 H       1  LIG1        0.1049
      7 N           3.2860    0.9359    0.7103 N.pl3   1  LIG1       -0.3547
      8 H           3.1656   -0.0176    0.3930 H       1  LIG1        0.1424
      9 H           4.1955    1.2898    0.4335 H       1  LIG1        0.1424
     10 S           3.8063    4.1084    0.7617 S.3     1  LIG1       -0.1371
     11 H           3.5652    5.1925   -0.0401 H       1  LIG1        0.1073
     12 C           0.5786    5.0146   -0.2761 C.ar    1  LIG1        0.1934
     13 C           1.1448    6.1695   -0.7737 C.ar    1  LIG1        0.0882
     14 C           0.1270    7.1776   -0.7394 C.ar    1  LIG1        0.0752
     15 C          -1.0001    6.5677   -0.2289 C.ar    1  LIG1        0.1875
     16 O          -0.7320    5.2522    0.0485 O.2     1  LIG1       -0.4455
     17 N           2.4659    6.3185   -1.2581 N.pl3   1  LIG1       -0.3541
     18 H           2.6094    5.8380   -2.1427 H       1  LIG1        0.1425
     19 H           2.6986    7.3006   -1.3785 H       1  LIG1        0.1425
     20 S           0.3371    8.8048   -1.4009 S.3     1  LIG1       -0.1371
     21 H          -0.5687    9.4068   -0.5627 H       1  LIG1        0.1073
     22 C          -2.3197    7.0578    0.0553 C.ar    1  LIG1        0.1935
     23 C          -2.7861    8.2882    0.4700 C.ar    1  LIG1        0.0882
     24 C          -4.2118    8.1772    0.5656 C.ar    1  LIG1        0.0752
     25 C          -4.5209    6.8817    0.2101 C.ar    1  LIG1        0.1875
     26 O          -3.3747    6.1961   -0.0987 O.2     1  LIG1       -0.4455
     27 N          -2.0010    9.4241    0.7777 N.pl3   1  LIG1       -0.3541
     28 H          -2.5834   10.2518    0.8747 H       1  LIG1        0.1425
     29 H          -1.4627    9.3015    1.6320 H       1  LIG1        0.1425
     30 S          -5.2579    9.4606    1.1916 S.3     1  LIG1       -0.1371
     31 H          -6.3559    9.1321    0.4441 H       1  LIG1        0.1073
     32 C          -5.7795    6.2008    0.0835 C.ar    1  LIG1        0.1924
     33 C          -7.0202    6.6265   -0.3337 C.ar    1  LIG1        0.0874
     34 C          -7.9045    5.5004   -0.1816 C.ar    1  LIG1        0.0640
     35 C          -7.1362    4.4776    0.2975 C.ar    1  LIG1        0.1077
     36 O          -5.8537    4.8729    0.4513 O.2     1  LIG1       -0.4568
     37 H          -7.3622    3.4543    0.5533 H       1  LIG1        0.1041
     38 N          -7.3590    7.9061   -0.8113 N.pl3   1  LIG1       -0.3541
     39 H          -6.8298    8.1676   -1.6386 H       1  LIG1        0.1425
     40 H          -8.3540    7.9668   -1.0100 H       1  LIG1        0.1425
     41 S          -9.6501    5.4803   -0.4991 S.3     1  LIG1       -0.1378
     42 H          -9.6049    5.1491   -1.8097 H       1  LIG1        0.1073
@<TRIPOS>BOND
     1    18    17    1
     2    42    41    1
     3    39    38    1
     4    20    14    1
     5    20    21    1
     6    19    17    1
     7    17    13    1
     8    40    38    1
     9    38    33    1
    10    13    14   ar
    11    13    12   ar
    12    14    15   ar
    13    41    34    1
    14    33    34   ar
    15    33    32   ar
    16    12     4    1
    17    12    16   ar
    18     5     4   ar
    19     5     1   ar
    20    15    16   ar
    21    15    22    1
    22    34    35   ar
    23    26    22   ar
    24    26    25   ar
    25     6     1    1
    26     4     3   ar
    27    11    10    1
    28     1     2   ar
    29    22    23   ar
    30    32    25    1
    31    32    36   ar
    32    25    24   ar
    33    35    36   ar
    34    35    37    1
    35     3     2   ar
    36     3    10    1
    37     2     7    1
    38     8     7    1
    39     9     7    1
    40    31    30    1
    41    23    24   ar
    42    23    27    1
    43    24    30    1
    44    27    28    1
    45    27    29    1
