@<TRIPOS>MOLECULE
mol_data/opt/b3lyp/geoms/mol2/12hg12hg-12hg12hg.out
 42 45 0 0 0
SMALL
GASTEIGER

@<TRIPOS>ATOM
      1 C           0.9521    1.4922    0.0024 C.ar    1  LIG1        0.1144
      2 C           2.2507    1.7886    0.3109 C.ar    1  LIG1        0.0769
      3 C           2.3464    3.2246    0.2831 C.ar    1  LIG1        0.0745
      4 C           1.0940    3.6902   -0.0585 C.ar    1  LIG1        0.1865
      5 O           0.2371    2.6375   -0.2315 O.2     1  LIG1       -0.4567
      6 H           0.4050    0.5664   -0.0750 H       1  LIG1        0.1049
      7 N           3.2938    0.9354    0.6805 N.pl3   1  LIG1       -0.3547
      8 H           3.1689   -0.0184    0.3659 H       1  LIG1        0.1424
      9 H           4.1997    1.2884    0.3912 H       1  LIG1        0.1424
     10 S           3.8154    4.1079    0.7222 S.3     1  LIG1       -0.1371
     11 H           3.5648    5.1914   -0.0775 H       1  LIG1        0.1073
     12 C           0.5756    5.0139   -0.2773 C.ar    1  LIG1        0.1934
     13 C           1.1362    6.1682   -0.7827 C.ar    1  LIG1        0.0882
     14 C           0.1193    7.1768   -0.7366 C.ar    1  LIG1        0.0752
     15 C          -1.0017    6.5677   -0.2118 C.ar    1  LIG1        0.1875
     16 O          -0.7307    5.2523    0.0633 O.2     1  LIG1       -0.4455
     17 N           2.4511    6.3163   -1.2833 N.pl3   1  LIG1       -0.3541
     18 H           2.5842    5.8344   -2.1688 H       1  LIG1        0.1425
     19 H           2.6829    7.2981   -1.4077 H       1  LIG1        0.1425
     20 S           0.3219    8.8034   -1.4018 S.3     1  LIG1       -0.1371
     21 H          -0.5740    9.4061   -0.5535 H       1  LIG1        0.1073
     22 C          -2.3177    7.0583    0.0880 C.ar    1  LIG1        0.1935
     23 C          -2.7789    8.2892    0.5070 C.ar    1  LIG1        0.0882
     24 C          -4.2033    8.1785    0.6201 C.ar    1  LIG1        0.0752
     25 C          -4.5168    6.8827    0.2698 C.ar    1  LIG1        0.1875
     26 O          -3.3746    6.1966   -0.0523 O.2     1  LIG1       -0.4455
     27 N          -1.9898    9.4254    0.8041 N.pl3   1  LIG1       -0.3541
     28 H          -2.5709   10.2531    0.9073 H       1  LIG1        0.1425
     29 H          -1.4415    9.3035    1.6521 H       1  LIG1        0.1425
     30 S          -5.2414    9.4626    1.2577 S.3     1  LIG1       -0.1371
     31 H          -6.3489    9.1328    0.5250 H       1  LIG1        0.1073
     32 C          -5.7768    6.2016    0.1595 C.ar    1  LIG1        0.1924
     33 C          -7.0227    6.6269   -0.2425 C.ar    1  LIG1        0.0874
     34 C          -7.9050    5.5010   -0.0784 C.ar    1  LIG1        0.0640
     35 C          -7.1308    4.4786    0.3921 C.ar    1  LIG1        0.1077
     36 O          -5.8465    4.8741    0.5294 O.2     1  LIG1       -0.4568
     37 H          -7.3535    3.4555    0.6517 H       1  LIG1        0.1041
     38 N          -7.3675    7.9059   -0.7170 N.pl3   1  LIG1       -0.3541
     39 H          -6.8479    8.1673   -1.5504 H       1  LIG1        0.1425
     40 H          -8.3648    7.9664   -0.9040 H       1  LIG1        0.1425
     41 S          -9.6544    5.4807   -0.3740 S.3     1  LIG1       -0.1378
     42 H          -9.6255    5.1482   -1.6847 H       1  LIG1        0.1073
@<TRIPOS>BOND
     1    18    17    1
     2    42    41    1
     3    39    38    1
     4    19    17    1
     5    20    14    1
     6    20    21    1
     7    17    13    1
     8    40    38    1
     9    13    14   ar
    10    13    12   ar
    11    14    15   ar
    12    38    33    1
    13    41    34    1
    14    12     4    1
    15    12    16   ar
    16    33    34   ar
    17    33    32   ar
    18     5     4   ar
    19     5     1   ar
    20    15    16   ar
    21    15    22    1
    22    34    35   ar
    23    11    10    1
    24     6     1    1
    25     4     3   ar
    26    26    22   ar
    27    26    25   ar
    28     1     2   ar
    29    22    23   ar
    30    32    25    1
    31    32    36   ar
    32    25    24   ar
    33     3     2   ar
    34     3    10    1
    35     2     7    1
    36     8     7    1
    37     9     7    1
    38    35    36   ar
    39    35    37    1
    40    23    24   ar
    41    23    27    1
    42    31    30    1
    43    24    30    1
    44    27    28    1
    45    27    29    1
