@<TRIPOS>MOLECULE
mol_data/opt/b3lyp/geoms/mol2/12hh12hh12hh.out
 35 37 0 0 0
SMALL
GASTEIGER

@<TRIPOS>ATOM
      1 C           0.4171    1.6279    0.1782 C.ar    1  LIG1        0.1152
      2 C           1.7359    1.7425   -0.1496 C.ar    1  LIG1        0.0846
      3 C           1.9944    3.1512   -0.2826 C.ar    1  LIG1        0.0951
      4 C           0.8068    3.7985   -0.0079 C.ar    1  LIG1        0.1939
      5 O          -0.1571    2.8705    0.2700 O.2     1  LIG1       -0.4560
      6 H          -0.2305    0.7896    0.3802 H       1  LIG1        0.1049
      7 N           2.7331    0.7531   -0.2764 N.pl3   1  LIG1       -0.3541
      8 H           2.3704   -0.1796   -0.1139 H       1  LIG1        0.1425
      9 H           3.1703    0.7709   -1.1937 H       1  LIG1        0.1425
     10 N           3.2415    3.7547   -0.6248 N.pl3   1  LIG1       -0.3535
     11 H           4.0052    3.1852   -0.2663 H       1  LIG1        0.1425
     12 H           3.3635    3.8289   -1.6335 H       1  LIG1        0.1425
     13 C           0.4319    5.1832    0.0501 C.ar    1  LIG1        0.1950
     14 C           1.1729    6.3413    0.2033 C.ar    1  LIG1        0.0959
     15 C           0.2303    7.4240    0.2032 C.ar    1  LIG1        0.0959
     16 C          -1.0188    6.8495    0.0501 C.ar    1  LIG1        0.1950
     17 O          -0.9065    5.4826   -0.0333 O.2     1  LIG1       -0.4447
     18 N           2.5402    6.4569    0.4396 N.pl3   1  LIG1       -0.3535
     19 H           3.0619    5.6351    0.1247 H       1  LIG1        0.1425
     20 H           2.9456    7.3160    0.0891 H       1  LIG1        0.1425
     21 N           0.5333    8.7623    0.4394 N.pl3   1  LIG1       -0.3535
     22 H           1.4400    9.0455    0.0890 H       1  LIG1        0.1425
     23 H          -0.2089    9.3923    0.1244 H       1  LIG1        0.1425
     24 C          -2.3387    7.4113   -0.0079 C.ar    1  LIG1        0.1939
     25 C          -2.8167    8.6766   -0.2825 C.ar    1  LIG1        0.0951
     26 C          -4.2476    8.6142   -0.1495 C.ar    1  LIG1        0.0846
     27 C          -4.5424    7.3236    0.1784 C.ar    1  LIG1        0.1152
     28 O          -3.3905    6.5841    0.2702 O.2     1  LIG1       -0.4560
     29 H          -5.4617    6.7974    0.3805 H       1  LIG1        0.1049
     30 N          -2.0478    9.8290   -0.6249 N.pl3   1  LIG1       -0.3535
     31 H          -1.9574    9.9395   -1.6336 H       1  LIG1        0.1425
     32 H          -2.5071   10.6637   -0.2665 H       1  LIG1        0.1425
     33 N          -5.0906    9.7378   -0.2764 N.pl3   1  LIG1       -0.3541
     34 H          -5.0129   10.1684   -1.1937 H       1  LIG1        0.1425
     35 H          -6.0643    9.5067   -0.1139 H       1  LIG1        0.1425
@<TRIPOS>BOND
     1    31    30    1
     2    12    10    1
     3    34    33    1
     4     9     7    1
     5    30    25    1
     6    30    32    1
     7    10     3    1
     8    10    11    1
     9     3     2   ar
    10     3     4   ar
    11    25    26   ar
    12    25    24   ar
    13     7     2    1
    14     7     8    1
    15    33    26    1
    16    33    35    1
    17     2     1   ar
    18    26    27   ar
    19    17    16   ar
    20    17    13   ar
    21     4    13    1
    22     4     5   ar
    23    24    16    1
    24    24    28   ar
    25    16    15   ar
    26    13    14   ar
    27    22    21    1
    28    20    18    1
    29    23    21    1
    30    19    18    1
    31     1     5   ar
    32     1     6    1
    33    27    28   ar
    34    27    29    1
    35    15    14   ar
    36    15    21    1
    37    14    18    1
