@<TRIPOS>MOLECULE
mol_data/opt/b3lyp/geoms/mol2/12hh12aa4li6he.out
 50 53 0 0 0
SMALL
GASTEIGER

@<TRIPOS>ATOM
      1 C           0.6747    1.5276    1.2381 C.ar    1  LIG1        0.1152
      2 C           1.9219    1.4988    0.6811 C.ar    1  LIG1        0.0846
      3 C           2.1465    2.8087    0.1376 C.ar    1  LIG1        0.0950
      4 C           1.0167    3.5449    0.4200 C.ar    1  LIG1        0.1920
      5 O           0.1027    2.7560    1.0824 O.2     1  LIG1       -0.4560
      6 H           0.0751    0.7816    1.7361 H       1  LIG1        0.1049
      7 N           2.8432    0.4415    0.5244 N.pl3   1  LIG1       -0.3541
      8 H           3.7164    0.6298    1.0104 H       1  LIG1        0.1425
      9 H           2.4752   -0.4428    0.8571 H       1  LIG1        0.1425
     10 N           3.3164    3.1928   -0.5213 N.pl3   1  LIG1       -0.3535
     11 H           3.7309    2.4041   -1.0098 H       1  LIG1        0.1425
     12 H           3.1687    3.9634   -1.1649 H       1  LIG1        0.1425
     13 C           0.6897    4.9110    0.1393 C.ar    1  LIG1        0.1725
     14 C           1.4686    6.0001   -0.1823 C.ar    1  LIG1       -0.0121
     15 C           0.5757    7.0849   -0.4047 C.ar    1  LIG1       -0.0150
     16 C          -0.6988    6.6107   -0.1975 C.ar    1  LIG1        0.1393
     17 O          -0.6266    5.2720    0.1290 O.2     1  LIG1       -0.4516
     18 H           2.5485    6.0296   -0.1970 H       1  LIG1        0.0657
     19 H           0.8312    8.0977   -0.6651 H       1  LIG1        0.0656
     20 C          -2.2788    8.5318   -0.5766 C.ar    1  LIG1        0.1313
     21 C          -3.5850    9.0184   -0.6007 C.ar    1  LIG1       -0.0112
     22 C          -2.0361    7.1793   -0.2336 C.ar    1  LIG1        0.0591
     23 C          -4.6836    8.2000   -0.2885 C.ar    1  LIG1       -0.0082
     24 H          -3.7771   10.0489   -0.8730 H       1  LIG1        0.0660
     25 C          -3.1490    6.3827    0.0847 C.ar    1  LIG1       -0.0441
     26 C          -4.4634    6.8539    0.0714 C.ar    1  LIG1       -0.0417
     27 H          -2.9659    5.3519    0.3672 H       1  LIG1        0.0629
     28 O          -1.1857    9.2961   -0.8783 O.3     1  LIG1       -0.4944
     29 C          -1.3808   10.6618   -1.2121 C.3     1  LIG1        0.0788
     30 H          -0.3865   11.0690   -1.4012 H       1  LIG1        0.0660
     31 H          -1.9939   10.7744   -2.1150 H       1  LIG1        0.0660
     32 H          -1.8478   11.2167   -0.3892 H       1  LIG1        0.0660
     33 C          -5.5976    5.9386    0.4721 C.3     1  LIG1       -0.0391
     34 H          -5.2121    4.9883    0.8502 H       1  LIG1        0.0278
     35 H          -6.2635    5.7252   -0.3712 H       1  LIG1        0.0278
     36 H          -6.2139    6.3896    1.2571 H       1  LIG1        0.0278
     37 C          -7.0052    8.4450   -1.3161 C.ar    1  LIG1        0.1240
     38 C          -6.0477    8.8047   -0.3257 C.ar    1  LIG1        0.0232
     39 C          -6.4199    9.7935    0.5758 C.ar    1  LIG1       -0.0339
     40 C          -7.6990   10.3826    0.5203 C.ar    1  LIG1        0.0435
     41 C          -8.5578    9.9266   -0.4922 C.ar    1  LIG1        0.0451
     42 N          -8.2267    8.9984   -1.3872 N.ar    1  LIG1       -0.2389
     43 H          -5.7176   10.1082    1.3414 H       1  LIG1        0.0637
     44 H          -9.5575   10.3467   -0.5794 H       1  LIG1        0.0843
     45 N          -6.7299    7.4786   -2.2559 N.pl3   1  LIG1       -0.3427
     46 H          -7.3664    7.4587   -3.0393 H       1  LIG1        0.1437
     47 H          -5.7605    7.2809   -2.4544 H       1  LIG1        0.1437
     48 C          -8.1072   11.3911    1.4412 C.1     1  LIG1       -0.0681
     49 C          -8.4563   12.2489    2.2213 C.1     1  LIG1       -0.1139
     50 H          -8.7659   13.0013    2.9086 H       1  LIG1        0.1232
@<TRIPOS>BOND
     1    46    45    1
     2    47    45    1
     3    45    37    1
     4    31    29    1
     5    30    29    1
     6    42    37   ar
     7    42    41   ar
     8    37    38   ar
     9    29    28    1
    10    29    32    1
    11    12    10    1
    12    11    10    1
    13    28    20    1
    14    24    21    1
    15    19    15    1
    16    21    20   ar
    17    21    23   ar
    18    44    41    1
    19    20    22   ar
    20    10     3    1
    21    41    40   ar
    22    15    16   ar
    23    15    14   ar
    24    35    33    1
    25    38    23    1
    26    38    39   ar
    27    23    26   ar
    28    22    16    1
    29    22    25   ar
    30    16    17   ar
    31    18    14    1
    32    14    13   ar
    33    26    25   ar
    34    26    33    1
    35    25    27    1
    36    17    13   ar
    37     3     4   ar
    38     3     2   ar
    39    13     4    1
    40     4     5   ar
    41    33    34    1
    42    33    36    1
    43    40    39   ar
    44    40    48    1
    45     7     2    1
    46     7     9    1
    47     7     8    1
    48    39    43    1
    49     2     1   ar
    50     5     1   ar
    51     1     6    1
    52    48    49    3
    53    49    50    1
