@<TRIPOS>MOLECULE
mol_data/opt/b3lyp/geoms/mol2/12hh12hh12hh-12hh.out
 46 49 0 0 0
SMALL
GASTEIGER

@<TRIPOS>ATOM
      1 C           0.4146    1.7027   -0.9952 C.ar    1  LIG1        0.1152
      2 C           1.6748    1.7045   -0.4681 C.ar    1  LIG1        0.0846
      3 C           1.9399    3.0598   -0.0559 C.ar    1  LIG1        0.0951
      4 C           0.8166    3.7880   -0.4005 C.ar    1  LIG1        0.1939
      5 O          -0.1326    2.9472   -0.9611 O.2     1  LIG1       -0.4560
      6 H          -0.2080    0.9174   -1.3968 H       1  LIG1        0.1049
      7 N           2.5868    0.6377   -0.2573 N.pl3   1  LIG1       -0.3541
      8 H           2.1164   -0.2611   -0.2473 H       1  LIG1        0.1425
      9 H           3.2999    0.6044   -0.9824 H       1  LIG1        0.1425
     10 N           3.0556    3.4829    0.6324 N.pl3   1  LIG1       -0.3535
     11 H           3.8294    2.8356    0.6262 H       1  LIG1        0.1425
     12 H           3.2825    4.4719    0.5337 H       1  LIG1        0.1425
     13 C           0.5027    5.1766   -0.2646 C.ar    1  LIG1        0.1950
     14 C           1.2820    6.3053   -0.1263 C.ar    1  LIG1        0.0959
     15 C           0.3927    7.4151    0.0501 C.ar    1  LIG1        0.0959
     16 C          -0.8860    6.9047   -0.0186 C.ar    1  LIG1        0.1950
     17 O          -0.8235    5.5396   -0.2082 O.2     1  LIG1       -0.4447
     18 N           2.7048    6.3664   -0.1247 N.pl3   1  LIG1       -0.3535
     19 H           3.0789    6.4325   -1.0696 H       1  LIG1        0.1425
     20 H           2.9942    7.2036    0.3778 H       1  LIG1        0.1425
     21 N           0.8276    8.7318    0.3248 N.pl3   1  LIG1       -0.3535
     22 H           1.2251    9.1890   -0.4922 H       1  LIG1        0.1425
     23 H           0.0708    9.3077    0.6779 H       1  LIG1        0.1425
     24 C          -2.1929    7.4669    0.0718 C.ar    1  LIG1        0.1950
     25 C          -3.4398    6.8967    0.2337 C.ar    1  LIG1        0.0959
     26 C          -4.3840    7.9768    0.2435 C.ar    1  LIG1        0.0959
     27 C          -3.6580    9.1399    0.1087 C.ar    1  LIG1        0.1950
     28 O          -2.3139    8.8476    0.0132 O.2     1  LIG1       -0.4447
     29 N          -3.7390    5.5605    0.4387 N.pl3   1  LIG1       -0.3535
     30 H          -4.7066    5.3053    0.3158 H       1  LIG1        0.1425
     31 H          -3.0762    4.8989    0.0606 H       1  LIG1        0.1425
     32 N          -5.7725    7.8173    0.4210 N.pl3   1  LIG1       -0.3535
     33 H          -6.2342    8.7157    0.5134 H       1  LIG1        0.1425
     34 H          -6.2005    7.3106   -0.3502 H       1  LIG1        0.1425
     35 C          -4.0238   10.5206    0.0331 C.ar    1  LIG1        0.1939
     36 C          -3.3295   11.6502   -0.3378 C.ar    1  LIG1        0.0951
     37 C          -4.2430   12.7545   -0.1998 C.ar    1  LIG1        0.0846
     38 C          -5.4270   12.2216    0.2242 C.ar    1  LIG1        0.1152
     39 O          -5.3127   10.8596    0.3732 O.2     1  LIG1       -0.4560
     40 H          -6.3862   12.6492    0.4650 H       1  LIG1        0.1049
     41 N          -1.9850   11.7751   -0.7444 N.pl3   1  LIG1       -0.3535
     42 H          -1.5303   10.8683   -0.7589 H       1  LIG1        0.1425
     43 H          -1.9138   12.1842   -1.6733 H       1  LIG1        0.1425
     44 N          -3.9209   14.1039   -0.4164 N.pl3   1  LIG1       -0.3541
     45 H          -2.9448   14.2296   -0.6526 H       1  LIG1        0.1425
     46 H          -4.5152   14.5767   -1.0855 H       1  LIG1        0.1425
@<TRIPOS>BOND
     1    43    41    1
     2     6     1    1
     3    46    44    1
     4    19    18    1
     5     1     5   ar
     6     1     2   ar
     7     9     7    1
     8     5     4   ar
     9    42    41    1
    10    41    36    1
    11    45    44    1
    12    22    21    1
    13     2     7    1
    14     2     3   ar
    15    44    37    1
    16     4    13    1
    17     4     3   ar
    18    34    32    1
    19    36    37   ar
    20    36    35   ar
    21    13    17   ar
    22    13    14   ar
    23     7     8    1
    24    17    16   ar
    25    37    38   ar
    26    14    18    1
    27    14    15   ar
    28    18    20    1
    29     3    10    1
    30    16    15   ar
    31    16    24    1
    32    28    24   ar
    33    28    27   ar
    34    35    27    1
    35    35    39   ar
    36    15    21    1
    37    31    29    1
    38    24    25   ar
    39    27    26   ar
    40    38    39   ar
    41    38    40    1
    42    25    26   ar
    43    25    29    1
    44    26    32    1
    45    30    29    1
    46    21    23    1
    47    32    33    1
    48    12    10    1
    49    11    10    1
