@<TRIPOS>MOLECULE
mol_data/opt/b3lyp/geoms/mol2/12hh12hh-4hh12hh.out
 49 52 0 0 0
SMALL
GASTEIGER

@<TRIPOS>ATOM
      1 C          -0.0928    1.6288   -0.0730 C.ar    1  LIG1        0.1152
      2 C           1.2062    1.5813    0.3441 C.ar    1  LIG1        0.0846
      3 C           1.6859    2.9412    0.3396 C.ar    1  LIG1        0.0951
      4 C           0.6286    3.7203   -0.0757 C.ar    1  LIG1        0.1939
      5 O          -0.4637    2.9261   -0.3369 O.2     1  LIG1       -0.4560
      6 H          -0.8502    0.8767   -0.2204 H       1  LIG1        0.1049
      7 N           1.9471    0.4669    0.7700 N.pl3   1  LIG1       -0.3541
      8 H           2.0457   -0.2625    0.0748 H       1  LIG1        0.1425
      9 H           2.8532    0.7383    1.1325 H       1  LIG1        0.1425
     10 N           2.9707    3.3191    0.7690 N.pl3   1  LIG1       -0.3535
     11 H           3.7058    2.9131    0.1965 H       1  LIG1        0.1425
     12 H           3.0940    4.3262    0.7982 H       1  LIG1        0.1425
     13 C           0.4734    5.1312   -0.2526 C.ar    1  LIG1        0.1948
     14 C          -0.5826    5.9375   -0.6096 C.ar    1  LIG1        0.0958
     15 C          -0.0818    7.2793   -0.6271 C.ar    1  LIG1        0.0928
     16 C           1.2476    7.2307   -0.2614 C.ar    1  LIG1        0.1600
     17 O           1.5922    5.9006   -0.0483 O.2     1  LIG1       -0.4478
     18 N          -1.8918    5.5913   -0.9890 N.pl3   1  LIG1       -0.3535
     19 H          -2.0361    4.5882   -0.9459 H       1  LIG1        0.1425
     20 H          -2.5859    6.0540   -0.4078 H       1  LIG1        0.1425
     21 N          -0.8833    8.3810   -0.9523 N.pl3   1  LIG1       -0.3536
     22 H          -0.3396    9.1777   -1.2652 H       1  LIG1        0.1425
     23 H          -1.5683    8.1271   -1.6590 H       1  LIG1        0.1425
     24 C           3.6483    8.0195   -0.2748 C.ar    1  LIG1        0.0362
     25 C           4.5263    9.0924   -0.1190 C.ar    1  LIG1       -0.0279
     26 C           2.2610    8.2531   -0.0735 C.ar    1  LIG1        0.0415
     27 C           4.1134   10.3991    0.2073 C.ar    1  LIG1        0.0415
     28 H           5.5907    8.9010   -0.2275 H       1  LIG1        0.0644
     29 C           1.8541    9.5446    0.3119 C.ar    1  LIG1       -0.0279
     30 C           2.7323   10.6227    0.4562 C.ar    1  LIG1        0.0362
     31 H           0.8075    9.7046    0.5563 H       1  LIG1        0.0644
     32 N           4.1638    6.7416   -0.5705 N.pl3   1  LIG1       -0.3574
     33 H           3.4921    6.1191   -0.9986 H       1  LIG1        0.1423
     34 H           5.0272    6.7771   -1.0973 H       1  LIG1        0.1423
     35 N           2.2357   11.8532    0.8929 N.pl3   1  LIG1       -0.3574
     36 H           2.8707   12.6338    0.8174 H       1  LIG1        0.1423
     37 H           1.2941   12.0637    0.5955 H       1  LIG1        0.1423
     38 C           5.1144   11.4567    0.2208 C.ar    1  LIG1        0.1590
     39 C           6.2887   11.6223   -0.4804 C.ar    1  LIG1        0.0920
     40 C           6.8743   12.8578   -0.0388 C.ar    1  LIG1        0.0845
     41 C           6.0190   13.3783    0.8866 C.ar    1  LIG1        0.1150
     42 O           4.9415   12.5518    1.0539 O.2     1  LIG1       -0.4591
     43 H           6.0246   14.2833    1.4733 H       1  LIG1        0.1049
     44 N           6.8918   10.8018   -1.4467 N.pl3   1  LIG1       -0.3536
     45 H           6.2238   10.1820   -1.8924 H       1  LIG1        0.1425
     46 H           7.3551   11.3693   -2.1519 H       1  LIG1        0.1425
     47 N           8.0610   13.3763   -0.5950 N.pl3   1  LIG1       -0.3541
     48 H           8.3173   14.2719   -0.1949 H       1  LIG1        0.1425
     49 H           8.8393   12.7330   -0.4761 H       1  LIG1        0.1425
@<TRIPOS>BOND
     1    46    44    1
     2    45    44    1
     3    23    21    1
     4    44    39    1
     5    22    21    1
     6    34    32    1
     7    33    32    1
     8    18    19    1
     9    18    14    1
    10    18    20    1
    11    21    15    1
    12    15    14   ar
    13    15    16   ar
    14    14    13   ar
    15    47    49    1
    16    47    48    1
    17    47    40    1
    18    32    24    1
    19    39    40   ar
    20    39    38   ar
    21     5     4   ar
    22     5     1   ar
    23    24    25   ar
    24    24    26   ar
    25    16    26    1
    26    16    17   ar
    27    13     4    1
    28    13    17   ar
    29    28    25    1
    30     6     1    1
    31    25    27   ar
    32     4     3   ar
    33    26    29   ar
    34     1     2   ar
    35    40    41   ar
    36     8     7    1
    37    11    10    1
    38    27    38    1
    39    27    30   ar
    40    38    42   ar
    41    29    30   ar
    42    29    31    1
    43     3     2   ar
    44     3    10    1
    45     2     7    1
    46    30    35    1
    47    37    35    1
    48    10    12    1
    49     7     9    1
    50    36    35    1
    51    41    42   ar
    52    41    43    1
