@<TRIPOS>MOLECULE
mol_data/opt/b3lyp/geoms/mol2/12hh12hh12hh12hh-.out
 46 49 0 0 0
SMALL
GASTEIGER

@<TRIPOS>ATOM
      1 C           0.5531    1.7212    0.6001 C.ar    1  LIG1        0.1152
      2 C           1.8508    1.7881    0.1873 C.ar    1  LIG1        0.0846
      3 C           2.0937    3.1640   -0.1570 C.ar    1  LIG1        0.0951
      4 C           0.9180    3.8460    0.0898 C.ar    1  LIG1        0.1939
      5 O          -0.0228    2.9690    0.5491 O.2     1  LIG1       -0.4560
      6 H          -0.0775    0.9221    0.9552 H       1  LIG1        0.1049
      7 N           2.8432    0.7887    0.1524 N.pl3   1  LIG1       -0.3541
      8 H           2.4812   -0.1226    0.4096 H       1  LIG1        0.1425
      9 H           3.2790    0.7160   -0.7624 H       1  LIG1        0.1425
     10 N           3.3157    3.7161   -0.6515 N.pl3   1  LIG1       -0.3535
     11 H           4.1060    3.2710   -0.1887 H       1  LIG1        0.1425
     12 H           3.4249    3.5558   -1.6521 H       1  LIG1        0.1425
     13 C           0.5369    5.2227   -0.0226 C.ar    1  LIG1        0.1950
     14 C           1.2499    6.3978   -0.1683 C.ar    1  LIG1        0.0959
     15 C           0.2819    7.4519   -0.2325 C.ar    1  LIG1        0.0959
     16 C          -0.9642    6.8635   -0.0917 C.ar    1  LIG1        0.1950
     17 O          -0.8183    5.5149    0.0276 O.2     1  LIG1       -0.4447
     18 N           2.6263    6.5829   -0.1666 N.pl3   1  LIG1       -0.3535
     19 H           3.1423    5.7179   -0.3482 H       1  LIG1        0.1425
     20 H           2.9271    7.3482   -0.7582 H       1  LIG1        0.1425
     21 N           0.5522    8.8460   -0.4044 N.pl3   1  LIG1       -0.3535
     22 H           1.2920    9.1447    0.2288 H       1  LIG1        0.1425
     23 H           0.8642    9.0545   -1.3517 H       1  LIG1        0.1425
     24 C          -2.2950    7.3767   -0.0481 C.ar    1  LIG1        0.1950
     25 C          -2.8270    8.6514    0.0777 C.ar    1  LIG1        0.0959
     26 C          -4.2532    8.5027    0.0320 C.ar    1  LIG1        0.0959
     27 C          -4.5038    7.1520   -0.0825 C.ar    1  LIG1        0.1950
     28 O          -3.3290    6.4538   -0.1231 O.2     1  LIG1       -0.4447
     29 N          -2.1635    9.8328    0.2900 N.pl3   1  LIG1       -0.3535
     30 H          -1.1810    9.8535    0.0243 H       1  LIG1        0.1425
     31 H          -2.7071   10.6763    0.2061 H       1  LIG1        0.1425
     32 N          -5.1609    9.5785    0.1598 N.pl3   1  LIG1       -0.3535
     33 H          -5.1705   10.1597   -0.6760 H       1  LIG1        0.1425
     34 H          -6.1045    9.2340    0.3049 H       1  LIG1        0.1425
     35 C          -5.7035    6.3753   -0.1436 C.ar    1  LIG1        0.1939
     36 C          -5.9279    5.0186   -0.2297 C.ar    1  LIG1        0.0951
     37 C          -7.3584    4.8461   -0.2443 C.ar    1  LIG1        0.0846
     38 C          -7.8977    6.0987   -0.1737 C.ar    1  LIG1        0.1152
     39 O          -6.9036    7.0462   -0.1124 O.2     1  LIG1       -0.4560
     40 H          -8.9098    6.4675   -0.1448 H       1  LIG1        0.1049
     41 N          -5.0072    3.9550   -0.2302 N.pl3   1  LIG1       -0.3535
     42 H          -5.0342    3.4267   -1.0987 H       1  LIG1        0.1425
     43 H          -4.0580    4.2836   -0.0816 H       1  LIG1        0.1425
     44 N          -8.0177    3.6068   -0.2561 N.pl3   1  LIG1       -0.3541
     45 H          -8.6696    3.4854   -1.0210 H       1  LIG1        0.1425
     46 H          -7.3594    2.8375   -0.2227 H       1  LIG1        0.1425
@<TRIPOS>BOND
     1    12    10    1
     2    23    21    1
     3    42    41    1
     4    45    44    1
     5     9     7    1
     6    20    18    1
     7    33    32    1
     8    10    11    1
     9    10     3    1
    10    21    15    1
    11    21    22    1
    12    19    18    1
    13    44    37    1
    14    44    46    1
    15    37    36   ar
    16    37    38   ar
    17    15    14   ar
    18    15    16   ar
    19    41    36    1
    20    41    43    1
    21    36    35   ar
    22    38    40    1
    23    38    39   ar
    24    14    18    1
    25    14    13   ar
    26     3     4   ar
    27     3     2   ar
    28    35    39   ar
    29    35    27    1
    30    28    27   ar
    31    28    24   ar
    32    16    24    1
    33    16    17   ar
    34    27    26   ar
    35    24    25   ar
    36    13    17   ar
    37    13     4    1
    38    30    29    1
    39    26    25   ar
    40    26    32    1
    41    25    29    1
    42     4     5   ar
    43     7     2    1
    44     7     8    1
    45    32    34    1
    46     2     1   ar
    47    31    29    1
    48     5     1   ar
    49     1     6    1
