@<TRIPOS>MOLECULE
mol_data/opt/b3lyp/geoms/mol2/12hh12hh-12hh.out
 35 37 0 0 0
SMALL
GASTEIGER

@<TRIPOS>ATOM
      1 C           0.1933    1.7474   -0.4469 C.ar    1  LIG1        0.1152
      2 C           1.5249    1.7523   -0.1460 C.ar    1  LIG1        0.0846
      3 C           1.8947    3.1265    0.0515 C.ar    1  LIG1        0.0951
      4 C           0.7555    3.8685   -0.1589 C.ar    1  LIG1        0.1939
      5 O          -0.2976    3.0316   -0.4582 O.2     1  LIG1       -0.4560
      6 H          -0.5190    0.9621   -0.6425 H       1  LIG1        0.1049
      7 N           2.4253    0.6882    0.0503 N.pl3   1  LIG1       -0.3541
      8 H           2.0159   -0.2140   -0.1636 H       1  LIG1        0.1425
      9 H           3.2666    0.8075   -0.5073 H       1  LIG1        0.1425
     10 N           3.1960    3.5579    0.3617 N.pl3   1  LIG1       -0.3535
     11 H           3.1951    4.5079    0.7165 H       1  LIG1        0.1425
     12 H           3.6263    2.9397    1.0445 H       1  LIG1        0.1425
     13 C           0.5003    5.2731   -0.1296 C.ar    1  LIG1        0.1950
     14 C          -0.6507    6.0299   -0.1010 C.ar    1  LIG1        0.0959
     15 C          -0.2358    7.4042   -0.0896 C.ar    1  LIG1        0.0959
     16 C           1.1418    7.4027   -0.0905 C.ar    1  LIG1        0.1950
     17 O           1.6076    6.1067   -0.1047 O.2     1  LIG1       -0.4447
     18 N          -1.9624    5.5793   -0.0067 N.pl3   1  LIG1       -0.3535
     19 H          -2.6624    6.2704   -0.2329 H       1  LIG1        0.1425
     20 H          -2.1337    4.6777   -0.4292 H       1  LIG1        0.1425
     21 N          -1.1197    8.5011   -0.0311 N.pl3   1  LIG1       -0.3535
     22 H          -0.6093    9.3687    0.0969 H       1  LIG1        0.1425
     23 H          -1.6802    8.5816   -0.8763 H       1  LIG1        0.1425
     24 C           2.1273    8.4400   -0.0870 C.ar    1  LIG1        0.1939
     25 C           3.4882    8.4392   -0.2970 C.ar    1  LIG1        0.0951
     26 C           3.9149    9.8090   -0.1933 C.ar    1  LIG1        0.0846
     27 C           2.7969   10.5464    0.0678 C.ar    1  LIG1        0.1152
     28 O           1.6914    9.7263    0.1349 O.2     1  LIG1       -0.4560
     29 H           2.6203   11.5965    0.2342 H       1  LIG1        0.1049
     30 N           4.3527    7.3917   -0.6594 N.pl3   1  LIG1       -0.3535
     31 H           5.1283    7.2918   -0.0104 H       1  LIG1        0.1425
     32 H           3.8697    6.5056   -0.7555 H       1  LIG1        0.1425
     33 N           5.2597   10.1892   -0.3029 N.pl3   1  LIG1       -0.3541
     34 H           5.7214    9.6713   -1.0452 H       1  LIG1        0.1425
     35 H           5.3835   11.1834   -0.4523 H       1  LIG1        0.1425
@<TRIPOS>BOND
     1    34    33    1
     2    23    21    1
     3    32    30    1
     4    30    25    1
     5    30    31    1
     6     6     1    1
     7     9     7    1
     8     5     1   ar
     9     5     4   ar
    10    35    33    1
    11     1     2   ar
    12    20    18    1
    13    33    26    1
    14    25    26   ar
    15    25    24   ar
    16    19    18    1
    17    26    27   ar
    18     8     7    1
    19     4    13    1
    20     4     3   ar
    21     2     7    1
    22     2     3   ar
    23    13    17   ar
    24    13    14   ar
    25    17    16   ar
    26    14    15   ar
    27    14    18    1
    28    16    15   ar
    29    16    24    1
    30    15    21    1
    31    24    28   ar
    32    21    22    1
    33     3    10    1
    34    27    28   ar
    35    27    29    1
    36    10    11    1
    37    10    12    1
