@<TRIPOS>MOLECULE
mol_data/opt/b3lyp/geoms/mol2/12hh12hh-.out
 24 25 0 0 0
SMALL
GASTEIGER

@<TRIPOS>ATOM
      1 C           0.1303    1.8040   -0.0274 C.ar    1  LIG1        0.1152
      2 C           1.4948    1.7725   -0.0554 C.ar    1  LIG1        0.0846
      3 C           1.9310    3.1459   -0.0859 C.ar    1  LIG1        0.0951
      4 C           0.7918    3.9165   -0.0623 C.ar    1  LIG1        0.1939
      5 O          -0.3166    3.1066   -0.0287 O.2     1  LIG1       -0.4560
      6 H          -0.6293    1.0409    0.0116 H       1  LIG1        0.1049
      7 N           2.3536    0.6674    0.0073 N.pl3   1  LIG1       -0.3541
      8 H           2.1727   -0.0506   -0.6821 H       1  LIG1        0.1425
      9 H           3.3263    0.9484   -0.0063 H       1  LIG1        0.1425
     10 N           3.2877    3.5376   -0.0803 N.pl3   1  LIG1       -0.3535
     11 H           3.7405    3.3330   -0.9686 H       1  LIG1        0.1425
     12 H           3.3741    4.5338    0.0923 H       1  LIG1        0.1425
     13 C           0.5665    5.3335   -0.0623 C.ar    1  LIG1        0.1939
     14 C          -0.5728    6.1041   -0.0859 C.ar    1  LIG1        0.0951
     15 C          -0.1366    7.4775   -0.0555 C.ar    1  LIG1        0.0846
     16 C           1.2279    7.4460   -0.0275 C.ar    1  LIG1        0.1152
     17 O           1.6748    6.1434   -0.0288 O.2     1  LIG1       -0.4560
     18 H           1.9875    8.2091    0.0115 H       1  LIG1        0.1049
     19 N          -1.9295    5.7124   -0.0803 N.pl3   1  LIG1       -0.3535
     20 H          -2.3822    5.9170   -0.9686 H       1  LIG1        0.1425
     21 H          -2.0159    4.7162    0.0923 H       1  LIG1        0.1425
     22 N          -0.9954    8.5826    0.0071 N.pl3   1  LIG1       -0.3541
     23 H          -0.8144    9.3006   -0.6823 H       1  LIG1        0.1425
     24 H          -1.9680    8.3016   -0.0066 H       1  LIG1        0.1425
@<TRIPOS>BOND
     1    20    19    1
     2    11    10    1
     3    23    22    1
     4     8     7    1
     5    14    19    1
     6    14    13   ar
     7    14    15   ar
     8     3    10    1
     9     3     4   ar
    10     3     2   ar
    11    19    21    1
    12    10    12    1
    13    13     4    1
    14    13    17   ar
    15     4     5   ar
    16    15    16   ar
    17    15    22    1
    18     2     1   ar
    19     2     7    1
    20    17    16   ar
    21     5     1   ar
    22    16    18    1
    23     1     6    1
    24    24    22    1
    25     9     7    1
