@<TRIPOS>MOLECULE
mol_data/opt/b3lyp/geoms/mol2/12hh6aa4ia-4ll-.out
 49 52 0 0 0
SMALL
GASTEIGER

@<TRIPOS>ATOM
      1 C           1.5809    5.8316   -4.7618 C.ar    1  LIG1        0.1145
      2 C           2.8980    5.7034   -4.4362 C.ar    1  LIG1        0.0811
      3 C           2.9520    5.8467   -2.9962 C.ar    1  LIG1        0.1180
      4 C           1.6504    6.0379   -2.5466 C.ar    1  LIG1        0.1558
      5 O           0.8289    6.0296   -3.6246 O.2     1  LIG1       -0.4597
      6 H           1.0355    5.7855   -5.6896 H       1  LIG1        0.1049
      7 N           3.9921    5.4270   -5.2451 N.pl3   1  LIG1       -0.3545
      8 H           3.8896    5.7126   -6.2093 H       1  LIG1        0.1424
      9 H           4.8780    5.7304   -4.8608 H       1  LIG1        0.1424
     10 N           5.1750    5.8993   -1.6900 N.1     1  LIG1       -0.1907
     11 C           4.1577    5.8846   -2.2613 C.1     1  LIG1        0.1048
     12 C           1.4165    5.7105   -0.0323 C.ar    1  LIG1        0.0362
     13 C           0.6555    6.0122    1.1131 C.ar    1  LIG1       -0.0291
     14 C           1.0085    6.2897   -1.2594 C.ar    1  LIG1        0.0427
     15 C          -0.4654    6.8369    1.1013 C.ar    1  LIG1        0.0268
     16 H           0.9515    5.5528    2.0509 H       1  LIG1        0.0643
     17 C          -0.1312    7.1261   -1.2774 C.ar    1  LIG1       -0.0069
     18 C          -0.8643    7.4048   -0.1350 C.ar    1  LIG1        0.1286
     19 H          -0.4168    7.5595   -2.2259 H       1  LIG1        0.0662
     20 N           2.4429    4.7804    0.0867 N.pl3   1  LIG1       -0.3574
     21 H           3.2464    4.8844   -0.5153 H       1  LIG1        0.1423
     22 H           2.7320    4.6143    1.0412 H       1  LIG1        0.1423
     23 O          -1.9573    8.2302   -0.1085 O.3     1  LIG1       -0.4945
     24 C          -2.3473    8.8685   -1.3135 C.3     1  LIG1        0.0788
     25 H          -3.2121    9.4831   -1.0600 H       1  LIG1        0.0660
     26 H          -1.5488    9.5110   -1.7060 H       1  LIG1        0.0660
     27 H          -2.6340    8.1418   -2.0847 H       1  LIG1        0.0660
     28 C          -0.5772    7.4770    3.5613 C.ar    1  LIG1        0.0603
     29 C          -1.3215    7.6751    4.7304 C.ar    1  LIG1       -0.0319
     30 C          -1.2175    7.0944    2.3563 C.ar    1  LIG1        0.0042
     31 C          -2.7082    7.4923    4.7721 C.ar    1  LIG1        0.0340
     32 H          -0.8043    8.0070    5.6232 H       1  LIG1        0.0638
     33 C          -2.6038    6.9303    2.3999 C.ar    1  LIG1       -0.0366
     34 C          -3.3622    7.1070    3.5692 C.ar    1  LIG1        0.0360
     35 H          -3.1241    6.6387    1.4968 H       1  LIG1        0.0636
     36 N           1.9736    7.9347    3.7454 N.1     1  LIG1       -0.1908
     37 C           0.8346    7.7247    3.6321 C.1     1  LIG1        0.0998
     38 C          -4.7629    6.8398    3.4852 C.1     1  LIG1       -0.0689
     39 C          -5.9332    6.5755    3.3290 C.1     1  LIG1       -0.1139
     40 H          -6.9696    6.3532    3.2222 H       1  LIG1        0.1232
     41 C          -3.3892    7.6957    6.0462 C.ar    1  LIG1        0.1396
     42 C          -2.9393    7.5962    7.3403 C.ar    1  LIG1        0.0258
     43 C          -4.0449    7.9359    8.1734 C.ar    1  LIG1        0.1550
     44 C          -5.0937    8.2202    7.3416 C.ar    1  LIG1        0.1338
     45 O          -4.6987    8.0745    6.0402 O.2     1  LIG1       -0.4592
     46 H          -6.1161    8.5222    7.5032 H       1  LIG1        0.1068
     47 H          -1.9590    7.2917    7.6744 H       1  LIG1        0.0692
     48 O          -3.9761    7.9418    9.5322 O.3     1  LIG1       -0.5036
     49 H          -4.8382    8.1831    9.8948 H       1  LIG1        0.2923
@<TRIPOS>BOND
     1     8     7    1
     2     6     1    1
     3     7     9    1
     4     7     2    1
     5     1     2   ar
     6     1     5   ar
     7     2     3   ar
     8     5     4   ar
     9     3     4   ar
    10     3    11    1
    11     4    14    1
    12    11    10    3
    13    19    17    1
    14    27    24    1
    15    26    24    1
    16    24    25    1
    17    24    23    1
    18    17    14   ar
    19    17    18   ar
    20    14    12   ar
    21    21    20    1
    22    18    23    1
    23    18    15   ar
    24    12    20    1
    25    12    13   ar
    26    20    22    1
    27    15    13   ar
    28    15    30    1
    29    13    16    1
    30    35    33    1
    31    30    33   ar
    32    30    28   ar
    33    33    34   ar
    34    40    39    1
    35    39    38    3
    36    38    34    1
    37    28    37    1
    38    28    29   ar
    39    34    31   ar
    40    37    36    3
    41    29    31   ar
    42    29    32    1
    43    31    41    1
    44    45    41   ar
    45    45    44   ar
    46    41    42   ar
    47    42    47    1
    48    42    43   ar
    49    44    46    1
    50    44    43   ar
    51    43    48    1
    52    48    49    1
