@<TRIPOS>MOLECULE
mol_data/opt/b3lyp/geoms/mol2/12hh4lh13ed13ll-.out
 56 59 0 0 0
SMALL
GASTEIGER

@<TRIPOS>ATOM
      1 C           0.0391    1.4705    0.3206 C.ar    1  LIG1        0.1150
      2 C           1.3667    1.3211    0.0519 C.ar    1  LIG1        0.0845
      3 C           1.8856    2.6434   -0.1837 C.ar    1  LIG1        0.0920
      4 C           0.8237    3.5179   -0.0309 C.ar    1  LIG1        0.1607
      5 O          -0.3141    2.7857    0.2789 O.2     1  LIG1       -0.4590
      6 H          -0.7427    0.7718    0.5759 H       1  LIG1        0.1049
      7 N           2.1872    0.1763    0.0365 N.pl3   1  LIG1       -0.3541
      8 H           1.6713   -0.6744    0.2305 H       1  LIG1        0.1425
      9 H           2.6603    0.0732   -0.8579 H       1  LIG1        0.1425
     10 N           3.1948    2.8574   -0.5938 N.pl3   1  LIG1       -0.3536
     11 H           3.8399    2.2088   -0.1550 H       1  LIG1        0.1425
     12 H           3.4867    3.8247   -0.4875 H       1  LIG1        0.1425
     13 C           1.6290    5.9167   -0.0871 C.ar    1  LIG1        0.1315
     14 C           1.3673    7.2622   -0.2991 C.ar    1  LIG1       -0.0083
     15 C           0.6146    4.9441   -0.2143 C.ar    1  LIG1        0.0625
     16 C           0.0850    7.7340   -0.6263 C.ar    1  LIG1        0.0237
     17 H           2.1834    7.9634   -0.1749 H       1  LIG1        0.0661
     18 C          -0.6676    5.4186   -0.5535 C.ar    1  LIG1       -0.0262
     19 C          -0.9459    6.7661   -0.7596 C.ar    1  LIG1        0.0347
     20 H          -1.4634    4.6914   -0.6806 H       1  LIG1        0.0644
     21 O           2.9218    5.5557    0.2798 O.3     1  LIG1       -0.4944
     22 C           3.1277    5.5189    1.6977 C.3     1  LIG1        0.0788
     23 H           4.1666    5.2209    1.8547 H       1  LIG1        0.0660
     24 H           2.9628    6.5087    2.1384 H       1  LIG1        0.0660
     25 H           2.4610    4.7922    2.1756 H       1  LIG1        0.0660
     26 N          -2.2753    7.1704   -1.0875 N.pl3   1  LIG1       -0.3574
     27 H          -2.3001    7.6734   -1.9719 H       1  LIG1        0.1423
     28 H          -2.8881    6.3652   -1.1647 H       1  LIG1        0.1423
     29 C          -0.1572    9.1717   -0.7468 C.ar    1  LIG1        0.0657
     30 C           0.7039   10.2452   -1.0037 C.ar    1  LIG1        0.0680
     31 C          -0.0773   11.4539   -0.9000 C.ar    1  LIG1        0.0945
     32 C          -1.3860   11.0894   -0.5757 C.ar    1  LIG1        0.0859
     33 N          -1.4035    9.7186   -0.5077 N.ar    1  LIG1       -0.3509
     34 H          -2.1876    9.1444   -0.2203 H       1  LIG1        0.1660
     35 C           2.0765   10.2019   -1.3471 C.1     1  LIG1       -0.0662
     36 C           3.2506   10.2036   -1.6440 C.1     1  LIG1       -0.1138
     37 H           4.2795   10.2115   -1.9190 H       1  LIG1        0.1232
     38 N           0.8352   13.8111   -1.4240 N.1     1  LIG1       -0.1908
     39 C           0.4062   12.7581   -1.1726 C.1     1  LIG1        0.1026
     40 C          -2.5821   11.8664   -0.3529 C.ar    1  LIG1        0.1102
     41 C          -2.7720   13.1063    0.2461 C.ar    1  LIG1        0.1883
     42 C          -4.1766   13.3741    0.2555 C.ar    1  LIG1        0.1795
     43 C          -4.8099   12.2971   -0.3265 C.ar    1  LIG1        0.0482
     44 N          -3.8445   11.3725   -0.6590 N.ar    1  LIG1       -0.3535
     45 H          -4.0001   10.6153   -1.3053 H       1  LIG1        0.1656
     46 H          -5.8583   12.1250   -0.5133 H       1  LIG1        0.0845
     47 O          -1.7829   13.9050    0.7380 O.3     1  LIG1       -0.4895
     48 C          -1.8180   14.0846    2.1600 C.3     1  LIG1        0.0791
     49 H          -0.9986   14.7639    2.4005 H       1  LIG1        0.0660
     50 H          -2.7702   14.5192    2.4821 H       1  LIG1        0.0660
     51 H          -1.6643   13.1285    2.6750 H       1  LIG1        0.0660
     52 O          -4.7978   14.4642    0.8019 O.3     1  LIG1       -0.4900
     53 C          -4.4711   15.7009    0.1535 C.3     1  LIG1        0.0790
     54 H          -4.9855   16.4855    0.7117 H       1  LIG1        0.0660
     55 H          -3.3918   15.8841    0.1652 H       1  LIG1        0.0660
     56 H          -4.8237   15.6998   -0.8854 H       1  LIG1        0.0660
@<TRIPOS>BOND
     1    27    26    1
     2    37    36    1
     3    36    35    3
     4    38    39    3
     5    35    30    1
     6    45    44    1
     7    39    31    1
     8    28    26    1
     9    26    19    1
    10    30    31   ar
    11    30    29   ar
    12    31    32   ar
    13    56    53    1
    14     9     7    1
    15    19    16   ar
    16    19    18   ar
    17    29    16    1
    18    29    33   ar
    19    20    18    1
    20    44    40   ar
    21    44    43   ar
    22    16    14   ar
    23    10    12    1
    24    10     3    1
    25    10    11    1
    26    32    33   ar
    27    32    40    1
    28    18    15   ar
    29    46    43    1
    30    33    34    1
    31    40    41   ar
    32    43    42   ar
    33    14    17    1
    34    14    13   ar
    35    15    13   ar
    36    15     4    1
    37     3     4   ar
    38     3     2   ar
    39    13    21    1
    40     4     5   ar
    41     7     2    1
    42     7     8    1
    43     2     1   ar
    44    53    55    1
    45    53    54    1
    46    53    52    1
    47    41    42   ar
    48    41    47    1
    49    42    52    1
    50     5     1   ar
    51    21    22    1
    52     1     6    1
    53    47    48    1
    54    22    23    1
    55    22    24    1
    56    22    25    1
    57    48    49    1
    58    48    50    1
    59    48    51    1
