@<TRIPOS>MOLECULE
mol_data/opt/b3lyp/geoms/mol2/12hh12hh12hh12hh.out
 46 49 0 0 0
SMALL
GASTEIGER

@<TRIPOS>ATOM
      1 C           0.7135    1.6915    0.5165 C.ar    1  LIG1        0.1152
      2 C           1.9969    1.7981    0.0680 C.ar    1  LIG1        0.0846
      3 C           2.1955    3.1860   -0.2541 C.ar    1  LIG1        0.0951
      4 C           1.0110    3.8322    0.0395 C.ar    1  LIG1        0.1939
      5 O           0.1065    2.9230    0.5077 O.2     1  LIG1       -0.4560
      6 H           0.1123    0.8690    0.8696 H       1  LIG1        0.1049
      7 N           3.0134    0.8243   -0.0191 N.pl3   1  LIG1       -0.3541
      8 H           2.6897   -0.0927    0.2679 H       1  LIG1        0.1425
      9 H           3.3883    0.7501   -0.9607 H       1  LIG1        0.1425
     10 N           3.3899    3.7775   -0.7686 N.pl3   1  LIG1       -0.3535
     11 H           4.2008    3.3081   -0.3701 H       1  LIG1        0.1425
     12 H           3.4534    3.6792   -1.7810 H       1  LIG1        0.1425
     13 C           0.5975    5.2034   -0.0332 C.ar    1  LIG1        0.1950
     14 C           1.2902    6.3943   -0.1373 C.ar    1  LIG1        0.0959
     15 C           0.3021    7.4305   -0.1608 C.ar    1  LIG1        0.0959
     16 C          -0.9333    6.8149   -0.0455 C.ar    1  LIG1        0.1950
     17 O          -0.7589    5.4675    0.0244 O.2     1  LIG1       -0.4447
     18 N           2.6639    6.6053   -0.1244 N.pl3   1  LIG1       -0.3535
     19 H           3.1941    5.7583   -0.3459 H       1  LIG1        0.1425
     20 H           2.9492    7.3974   -0.6882 H       1  LIG1        0.1425
     21 N           0.5546    8.8344   -0.2569 N.pl3   1  LIG1       -0.3535
     22 H           1.2872    9.1088    0.3953 H       1  LIG1        0.1425
     23 H           0.8669    9.0982   -1.1901 H       1  LIG1        0.1425
     24 C          -2.2853    7.2924    0.0077 C.ar    1  LIG1        0.1950
     25 C          -2.8465    8.5544    0.1274 C.ar    1  LIG1        0.0959
     26 C          -4.2675    8.3636    0.1504 C.ar    1  LIG1        0.0959
     27 C          -4.4772    7.0022    0.0229 C.ar    1  LIG1        0.1950
     28 O          -3.2748    6.3416   -0.0494 O.2     1  LIG1       -0.4447
     29 N          -2.2144    9.7868    0.3051 N.pl3   1  LIG1       -0.3535
     30 H          -1.2054    9.7196    0.1466 H       1  LIG1        0.1425
     31 H          -2.6179   10.5195   -0.2701 H       1  LIG1        0.1425
     32 N          -5.2164    9.3489    0.3740 N.pl3   1  LIG1       -0.3535
     33 H          -4.9030   10.2928    0.2012 H       1  LIG1        0.1425
     34 H          -6.1373    9.1312   -0.0102 H       1  LIG1        0.1425
     35 C          -5.6796    6.2223   -0.0208 C.ar    1  LIG1        0.1939
     36 C          -6.9863    6.5314   -0.3400 C.ar    1  LIG1        0.0951
     37 C          -7.7509    5.3277   -0.1533 C.ar    1  LIG1        0.0846
     38 C          -6.8630    4.3725    0.2468 C.ar    1  LIG1        0.1152
     39 O          -5.6022    4.9043    0.3341 O.2     1  LIG1       -0.4560
     40 H          -6.9573    3.3296    0.5044 H       1  LIG1        0.1049
     41 N          -7.4875    7.7947   -0.7744 N.pl3   1  LIG1       -0.3535
     42 H          -7.4765    7.8783   -1.7896 H       1  LIG1        0.1425
     43 H          -8.4528    7.9000   -0.4692 H       1  LIG1        0.1425
     44 N          -9.1522    5.2626   -0.3084 N.pl3   1  LIG1       -0.3541
     45 H          -9.4392    5.4951   -1.2554 H       1  LIG1        0.1425
     46 H          -9.5186    4.3445   -0.0824 H       1  LIG1        0.1425
@<TRIPOS>BOND
     1    42    41    1
     2    12    10    1
     3    45    44    1
     4    23    21    1
     5     9     7    1
     6    41    43    1
     7    41    36    1
     8    10    11    1
     9    10     3    1
    10    20    18    1
    11    19    18    1
    12    36    37   ar
    13    36    35   ar
    14    44    37    1
    15    44    46    1
    16    31    29    1
    17    21    15    1
    18    21    22    1
    19     3     4   ar
    20     3     2   ar
    21    15    14   ar
    22    15    16   ar
    23    37    38   ar
    24    14    18    1
    25    14    13   ar
    26    28    24   ar
    27    28    27   ar
    28    16    24    1
    29    16    17   ar
    30    13    17   ar
    31    13     4    1
    32    35    27    1
    33    35    39   ar
    34     7     2    1
    35     7     8    1
    36    34    32    1
    37    24    25   ar
    38    27    26   ar
    39     4     5   ar
    40     2     1   ar
    41    25    26   ar
    42    25    29    1
    43    30    29    1
    44    26    32    1
    45    33    32    1
    46    38    39   ar
    47    38    40    1
    48     5     1   ar
    49     1     6    1
