@<TRIPOS>MOLECULE
mol_data/opt/b3lyp/geoms/mol2/12hh13ae13al-6ll-.out
 52 55 0 0 0
SMALL
GASTEIGER

@<TRIPOS>ATOM
      1 C           0.4103    1.6865   -0.6102 C.ar    1  LIG1        0.1151
      2 C           1.7727    1.7009   -0.5238 C.ar    1  LIG1        0.0845
      3 C           2.1491    3.0646   -0.2536 C.ar    1  LIG1        0.0934
      4 C           0.9781    3.7845   -0.1987 C.ar    1  LIG1        0.1733
      5 O          -0.0942    2.9421   -0.4149 O.2     1  LIG1       -0.4577
      6 H          -0.3102    0.9028   -0.7845 H       1  LIG1        0.1049
      7 N           2.7114    0.6449   -0.6122 N.pl3   1  LIG1       -0.3541
      8 H           2.2719   -0.2633   -0.5096 H       1  LIG1        0.1425
      9 H           3.2066    0.6543   -1.5007 H       1  LIG1        0.1425
     10 N           3.4509    3.5231   -0.0390 N.pl3   1  LIG1       -0.3536
     11 H           4.1356    2.7838   -0.1393 H       1  LIG1        0.1425
     12 H           3.7037    4.3389   -0.5849 H       1  LIG1        0.1425
     13 C           0.6901    5.1724    0.0232 C.ar    1  LIG1        0.0857
     14 C           1.5061    6.2341    0.3787 C.ar    1  LIG1       -0.0172
     15 C           0.6961    7.4095    0.4297 C.ar    1  LIG1        0.0520
     16 C          -0.6160    7.0312    0.1010 C.ar    1  LIG1        0.0791
     17 N          -0.5894    5.6723   -0.1302 N.ar    1  LIG1       -0.3496
     18 H          -1.3471    5.1310   -0.5156 H       1  LIG1        0.1661
     19 H           2.5550    6.1758    0.6253 H       1  LIG1        0.0652
     20 C           1.1378    8.7092    0.7810 C.1     1  LIG1       -0.0675
     21 C           1.5413    9.8132    1.0770 C.1     1  LIG1       -0.1138
     22 H           1.8968   10.7777    1.3546 H       1  LIG1        0.1232
     23 C          -1.8310    7.7979    0.0118 C.ar    1  LIG1        0.0681
     24 C          -2.0220    9.1705   -0.1614 C.ar    1  LIG1        0.0075
     25 C          -3.4140    9.3871   -0.2139 C.ar    1  LIG1        0.1460
     26 C          -4.0760    8.1551   -0.0718 C.ar    1  LIG1        0.0944
     27 N          -3.0683    7.2107    0.0489 N.ar    1  LIG1       -0.3499
     28 H          -3.2883    6.2586    0.3032 H       1  LIG1        0.1661
     29 H          -1.2310    9.8961   -0.2561 H       1  LIG1        0.0676
     30 O          -4.0752   10.5701   -0.3827 O.3     1  LIG1       -0.4930
     31 C          -3.2588   11.7278   -0.4856 C.3     1  LIG1        0.0789
     32 H          -3.9381   12.5742   -0.5981 H       1  LIG1        0.0660
     33 H          -2.6487   11.8669    0.4156 H       1  LIG1        0.0660
     34 H          -2.5977   11.6735   -1.3597 H       1  LIG1        0.0660
     35 C          -5.9900    6.5111    0.1958 C.ar    1  LIG1        0.2241
     36 C          -5.4891    7.8238   -0.0275 C.ar    1  LIG1        0.0668
     37 C          -6.4706    8.8185   -0.2028 C.ar    1  LIG1       -0.0041
     38 C          -7.8266    8.4918   -0.1523 C.ar    1  LIG1        0.1390
     39 C          -8.1861    7.1621    0.0735 C.ar    1  LIG1        0.0730
     40 N          -7.2717    6.2010    0.2428 N.ar    1  LIG1       -0.2171
     41 H          -6.1444    9.8337   -0.3752 H       1  LIG1        0.0663
     42 H          -9.2343    6.8793    0.1176 H       1  LIG1        0.0868
     43 O          -5.0802    5.4946    0.3775 O.3     1  LIG1       -0.4792
     44 C          -5.6112    4.1916    0.6351 C.3     1  LIG1        0.0804
     45 H          -4.7420    3.5437    0.7612 H       1  LIG1        0.0660
     46 H          -6.2223    4.1880    1.5415 H       1  LIG1        0.0660
     47 H          -6.2269    3.8457   -0.1994 H       1  LIG1        0.0660
     48 O          -8.8538    9.3803   -0.3094 O.3     1  LIG1       -0.4936
     49 C          -8.5253   10.7421   -0.5318 C.3     1  LIG1        0.0789
     50 H          -9.4758   11.2703   -0.6226 H       1  LIG1        0.0660
     51 H          -7.9559   11.1646    0.3061 H       1  LIG1        0.0660
     52 H          -7.9489   10.8755   -1.4564 H       1  LIG1        0.0660
@<TRIPOS>BOND
     1     9     7    1
     2    52    49    1
     3    34    31    1
     4     6     1    1
     5    50    49    1
     6     7     2    1
     7     7     8    1
     8     1     2   ar
     9     1     5   ar
    10    32    31    1
    11    12    10    1
    12    49    48    1
    13    49    51    1
    14     2     3   ar
    15    18    17    1
    16    31    30    1
    17    31    33    1
    18     5     4   ar
    19    30    25    1
    20    41    37    1
    21    48    38    1
    22    29    24    1
    23     3     4   ar
    24     3    10    1
    25    25    24   ar
    26    25    26   ar
    27    37    38   ar
    28    37    36   ar
    29    47    44    1
    30     4    13    1
    31    24    23   ar
    32    38    39   ar
    33    11    10    1
    34    17    13   ar
    35    17    16   ar
    36    26    36    1
    37    26    27   ar
    38    36    35   ar
    39    23    27   ar
    40    23    16    1
    41    13    14   ar
    42    27    28    1
    43    39    42    1
    44    39    40   ar
    45    16    15   ar
    46    35    40   ar
    47    35    43    1
    48    43    44    1
    49    14    15   ar
    50    14    19    1
    51    15    20    1
    52    44    45    1
    53    44    46    1
    54    20    21    3
    55    21    22    1
