@<TRIPOS>MOLECULE
mol_data/opt/b3lyp/geoms/mol2/12hh12hh12hh-12hh-.out
 46 49 0 0 0
SMALL
GASTEIGER

@<TRIPOS>ATOM
      1 C           0.3681    1.6031   -0.5126 C.ar    1  LIG1        0.1152
      2 C           1.6557    1.6576   -0.0604 C.ar    1  LIG1        0.0846
      3 C           1.9517    3.0514    0.1544 C.ar    1  LIG1        0.0951
      4 C           0.8141    3.7431   -0.2194 C.ar    1  LIG1        0.1939
      5 O          -0.1696    2.8482   -0.6107 O.2     1  LIG1       -0.4560
      6 H          -0.2798    0.7803   -0.7750 H       1  LIG1        0.1049
      7 N           2.5714    0.6154    0.2369 N.pl3   1  LIG1       -0.3541
      8 H           2.0985   -0.2726    0.3670 H       1  LIG1        0.1425
      9 H           3.2560    0.4941   -0.5062 H       1  LIG1        0.1425
     10 N           3.1083    3.5460    0.7150 N.pl3   1  LIG1       -0.3535
     11 H           3.8793    2.8962    0.7462 H       1  LIG1        0.1425
     12 H           3.3279    4.5128    0.4772 H       1  LIG1        0.1425
     13 C           0.5041    5.1392   -0.2477 C.ar    1  LIG1        0.1950
     14 C           1.2808    6.2798   -0.2630 C.ar    1  LIG1        0.0959
     15 C           0.3874    7.4010   -0.2360 C.ar    1  LIG1        0.0959
     16 C          -0.8872    6.8790   -0.2259 C.ar    1  LIG1        0.1950
     17 O          -0.8207    5.4987   -0.2294 O.2     1  LIG1       -0.4447
     18 N           2.7068    6.3354   -0.2954 N.pl3   1  LIG1       -0.3535
     19 H           3.0588    6.4065   -1.2488 H       1  LIG1        0.1425
     20 H           3.0235    7.1623    0.2070 H       1  LIG1        0.1425
     21 N           0.7924    8.7440   -0.1654 N.pl3   1  LIG1       -0.3535
     22 H           1.4147    9.0007   -0.9261 H       1  LIG1        0.1425
     23 H          -0.0026    9.3745   -0.1563 H       1  LIG1        0.1425
     24 C          -2.1884    7.4630   -0.2260 C.ar    1  LIG1        0.1950
     25 C          -3.4629    6.9410   -0.2358 C.ar    1  LIG1        0.0959
     26 C          -4.3563    8.0622   -0.2629 C.ar    1  LIG1        0.0959
     27 C          -3.5796    9.2029   -0.2479 C.ar    1  LIG1        0.1950
     28 O          -2.2548    8.8432   -0.2297 O.2     1  LIG1       -0.4447
     29 N          -3.8680    5.5980   -0.1650 N.pl3   1  LIG1       -0.3535
     30 H          -4.4899    5.3411   -0.9259 H       1  LIG1        0.1425
     31 H          -3.0730    4.9675   -0.1555 H       1  LIG1        0.1425
     32 N          -5.7823    8.0067   -0.2952 N.pl3   1  LIG1       -0.3535
     33 H          -6.1344    7.9360   -1.2486 H       1  LIG1        0.1425
     34 H          -6.0990    7.1796    0.2069 H       1  LIG1        0.1425
     35 C          -3.8897   10.5989   -0.2197 C.ar    1  LIG1        0.1939
     36 C          -5.0271   11.2906    0.1544 C.ar    1  LIG1        0.0951
     37 C          -4.7313   12.6844   -0.0605 C.ar    1  LIG1        0.0846
     38 C          -3.4439   12.7389   -0.5132 C.ar    1  LIG1        0.1152
     39 O          -2.9061   11.4938   -0.6112 O.2     1  LIG1       -0.4560
     40 H          -2.7961   13.5617   -0.7760 H       1  LIG1        0.1049
     41 N          -6.1836   10.7959    0.7152 N.pl3   1  LIG1       -0.3535
     42 H          -6.9546   11.4456    0.7467 H       1  LIG1        0.1425
     43 H          -6.4032    9.8291    0.4775 H       1  LIG1        0.1425
     44 N          -5.6469   13.7265    0.2371 N.pl3   1  LIG1       -0.3541
     45 H          -5.1741   14.6145    0.3669 H       1  LIG1        0.1425
     46 H          -6.3319   13.8477   -0.5056 H       1  LIG1        0.1425
@<TRIPOS>BOND
     1    19    18    1
     2    33    32    1
     3    22    21    1
     4    30    29    1
     5    40    38    1
     6     6     1    1
     7    39    38   ar
     8    39    35   ar
     9     5     1   ar
    10     5     4   ar
    11    38    37   ar
    12     1     2   ar
    13     9     7    1
    14    46    44    1
    15    18    14    1
    16    18    20    1
    17    32    26    1
    18    32    34    1
    19    14    13   ar
    20    14    15   ar
    21    26    27   ar
    22    26    25   ar
    23    27    28   ar
    24    27    35    1
    25    13    17   ar
    26    13     4    1
    27    15    16   ar
    28    15    21    1
    29    25    24   ar
    30    25    29    1
    31    28    24   ar
    32    17    16   ar
    33    24    16    1
    34    35    36   ar
    35     4     3   ar
    36    21    23    1
    37    29    31    1
    38    37    36   ar
    39    37    44    1
    40     2     3   ar
    41     2     7    1
    42    36    41    1
    43     3    10    1
    44     7     8    1
    45    44    45    1
    46    12    10    1
    47    43    41    1
    48    10    11    1
    49    41    42    1
