@<TRIPOS>MOLECULE
mol_data/opt/b3lyp/geoms/mol2/12hh4ef-13fa-13il-.out
 50 53 0 0 0
SMALL
GASTEIGER

@<TRIPOS>ATOM
      1 C           0.3545    1.8081    1.1916 C.ar    1  LIG1        0.1150
      2 C           1.3613    1.5404    0.3142 C.ar    1  LIG1        0.0845
      3 C           1.7880    2.8087   -0.2186 C.ar    1  LIG1        0.0920
      4 C           1.0059    3.7756    0.3866 C.ar    1  LIG1        0.1585
      5 O           0.1225    3.1477    1.2571 O.2     1  LIG1       -0.4591
      6 H          -0.2413    1.1849    1.8408 H       1  LIG1        0.1049
      7 N           1.9845    0.3255   -0.0422 N.pl3   1  LIG1       -0.3541
      8 H           1.6202   -0.4622    0.4820 H       1  LIG1        0.1425
      9 H           1.8748    0.1298   -1.0344 H       1  LIG1        0.1425
     10 N           2.7351    2.8820   -1.2355 N.pl3   1  LIG1       -0.3536
     11 H           3.2103    3.7767   -1.2884 H       1  LIG1        0.1425
     12 H           3.4110    2.1287   -1.1488 H       1  LIG1        0.1425
     13 C           1.8173    6.1518   -0.0696 C.ar    1  LIG1        0.0362
     14 C           1.4896    7.5073   -0.2371 C.ar    1  LIG1       -0.0329
     15 C           0.8001    5.2082    0.2377 C.ar    1  LIG1        0.0380
     16 C           0.1901    8.0159   -0.0800 C.ar    1  LIG1        0.0445
     17 H           2.2879    8.1968   -0.4755 H       1  LIG1        0.0638
     18 C          -0.4984    5.7166    0.4175 C.ar    1  LIG1       -0.0076
     19 C          -0.7987    7.0624    0.2749 C.ar    1  LIG1        0.1268
     20 H          -1.2952    5.0210    0.6656 H       1  LIG1        0.0662
     21 C           3.2007    5.8033   -0.1367 C.1     1  LIG1       -0.0689
     22 C           4.3871    5.5582   -0.1942 C.1     1  LIG1       -0.1139
     23 H           5.4325    5.3534   -0.1921 H       1  LIG1        0.1232
     24 O          -2.0947    7.4992    0.4605 O.3     1  LIG1       -0.5061
     25 H          -2.6344    6.7531    0.7519 H       1  LIG1        0.2922
     26 C          -0.0836    9.4340   -0.2559 C.ar    1  LIG1        0.0925
     27 C           0.7662   10.5056   -0.5540 C.ar    1  LIG1        0.1428
     28 C           0.0098   11.6967   -0.5995 C.ar    1  LIG1        0.0073
     29 C          -1.3127   11.3539   -0.3240 C.ar    1  LIG1        0.0673
     30 N          -1.3500    9.9971   -0.1366 N.ar    1  LIG1       -0.3500
     31 H          -2.1352    9.4726    0.2173 H       1  LIG1        0.1661
     32 O           2.1106   10.3766   -0.7812 O.3     1  LIG1       -0.5046
     33 H           2.4777   11.2554   -0.9369 H       1  LIG1        0.2922
     34 H           0.3684   12.6827   -0.8589 H       1  LIG1        0.0676
     35 C          -2.5144   12.1582   -0.2645 C.ar    1  LIG1        0.0695
     36 C          -2.7160   13.4758    0.1275 C.ar    1  LIG1        0.0179
     37 C          -4.1150   13.7232   -0.0136 C.ar    1  LIG1        0.1408
     38 C          -4.7333   12.5774   -0.4726 C.ar    1  LIG1        0.0447
     39 N          -3.7460   11.6124   -0.5884 N.ar    1  LIG1       -0.3562
     40 H          -3.8416   10.7838   -1.1543 H       1  LIG1        0.1655
     41 H          -5.7631   12.3602   -0.7037 H       1  LIG1        0.0844
     42 C          -1.7130   14.4504    0.6639 C.3     1  LIG1       -0.0342
     43 H          -2.1496   15.0480    1.4703 H       1  LIG1        0.0279
     44 H          -1.3706   15.1567   -0.1035 H       1  LIG1        0.0279
     45 H          -0.8324   13.9326    1.0548 H       1  LIG1        0.0279
     46 O          -4.6610   14.9280    0.3194 O.3     1  LIG1       -0.4933
     47 C          -6.0658   15.0203    0.1654 C.3     1  LIG1        0.0789
     48 H          -6.3512   16.0273    0.4739 H       1  LIG1        0.0660
     49 H          -6.3644   14.8629   -0.8805 H       1  LIG1        0.0660
     50 H          -6.5857   14.2850    0.7953 H       1  LIG1        0.0660
@<TRIPOS>BOND
     1    11    10    1
     2    10    12    1
     3    10     3    1
     4    40    39    1
     5     9     7    1
     6    33    32    1
     7    49    47    1
     8    34    28    1
     9    32    27    1
    10    41    38    1
    11    28    27   ar
    12    28    29   ar
    13    39    38   ar
    14    39    35   ar
    15    27    26   ar
    16    17    14    1
    17    38    37   ar
    18    29    35    1
    19    29    30   ar
    20    35    36   ar
    21    26    30   ar
    22    26    16    1
    23    14    16   ar
    24    14    13   ar
    25     3     2   ar
    26     3     4   ar
    27    22    23    1
    28    22    21    3
    29    21    13    1
    30    30    31    1
    31    44    42    1
    32    16    19   ar
    33    13    15   ar
    34     7     2    1
    35     7     8    1
    36    37    36   ar
    37    37    46    1
    38    36    42    1
    39    47    46    1
    40    47    48    1
    41    47    50    1
    42    15     4    1
    43    15    18   ar
    44    19    18   ar
    45    19    24    1
    46     2     1   ar
    47     4     5   ar
    48    18    20    1
    49    24    25    1
    50    42    45    1
    51    42    43    1
    52     1     5   ar
    53     1     6    1
