@<TRIPOS>MOLECULE
mol_data/opt/b3lyp/geoms/mol2/12hh12ed13hh-12ef.out
 45 48 0 0 0
SMALL
GASTEIGER

@<TRIPOS>ATOM
      1 C           0.1480    1.8036   -0.5007 C.ar    1  LIG1        0.1152
      2 C           1.4637    1.7289   -0.1480 C.ar    1  LIG1        0.0846
      3 C           1.9150    3.0835    0.0287 C.ar    1  LIG1        0.0951
      4 C           0.8217    3.8899   -0.2377 C.ar    1  LIG1        0.1933
      5 O          -0.2638    3.0987   -0.5706 O.2     1  LIG1       -0.4560
      6 H          -0.5906    1.0545   -0.7408 H       1  LIG1        0.1049
      7 N           2.3280    0.6248   -0.0114 N.pl3   1  LIG1       -0.3541
      8 H           2.6977    0.5538    0.9334 H       1  LIG1        0.1425
      9 H           1.8791   -0.2521   -0.2505 H       1  LIG1        0.1425
     10 N           3.1899    3.3856    0.4758 N.pl3   1  LIG1       -0.3535
     11 H           3.8737    2.7103    0.1511 H       1  LIG1        0.1425
     12 H           3.4928    4.3391    0.3106 H       1  LIG1        0.1425
     13 C           0.5915    5.3013   -0.2261 C.ar    1  LIG1        0.1891
     14 C           1.3986    6.4224   -0.2780 C.ar    1  LIG1        0.0916
     15 C           0.5056    7.5666   -0.1912 C.ar    1  LIG1        0.1150
     16 C          -0.7866    7.0677   -0.1054 C.ar    1  LIG1        0.1723
     17 O          -0.7205    5.6977   -0.1241 O.2     1  LIG1       -0.4475
     18 C           2.7970    6.4934   -0.4627 C.1     1  LIG1       -0.0644
     19 C           3.9943    6.5942   -0.6263 C.1     1  LIG1       -0.1138
     20 H           5.0391    6.7075   -0.8026 H       1  LIG1        0.1232
     21 N           1.2312   10.0347   -0.3523 N.1     1  LIG1       -0.1907
     22 C           0.9063    8.9164   -0.2731 C.1     1  LIG1        0.1043
     23 C          -2.1073    7.5980   -0.0249 C.ar    1  LIG1        0.1067
     24 C          -2.6384    8.8899    0.1516 C.ar    1  LIG1        0.0750
     25 C          -4.0547    8.7724    0.1437 C.ar    1  LIG1        0.0750
     26 C          -4.3708    7.4180   -0.0401 C.ar    1  LIG1        0.1067
     27 N          -3.1840    6.7304   -0.1344 N.ar    1  LIG1       -0.3463
     28 H          -3.1027    5.7427   -0.3109 H       1  LIG1        0.1662
     29 N          -2.0210   10.1025    0.4027 N.pl3   1  LIG1       -0.3548
     30 H          -1.0514   10.1993    0.1311 H       1  LIG1        0.1424
     31 H          -2.5908   10.8819    0.0915 H       1  LIG1        0.1424
     32 N          -4.8719    9.9029    0.3134 N.pl3   1  LIG1       -0.3548
     33 H          -5.8516    9.7327    0.1163 H       1  LIG1        0.1424
     34 H          -4.7712   10.3089    1.2401 H       1  LIG1        0.1424
     35 C          -5.6075    6.6916   -0.1056 C.ar    1  LIG1        0.1717
     36 C          -6.9503    7.0143   -0.2694 C.ar    1  LIG1        0.1133
     37 C          -7.6580    5.7563   -0.2312 C.ar    1  LIG1        0.1709
     38 C          -6.7328    4.7734   -0.0659 C.ar    1  LIG1        0.1352
     39 O          -5.4789    5.3363    0.0129 O.2     1  LIG1       -0.4564
     40 H          -6.7842    3.6999    0.0137 H       1  LIG1        0.1068
     41 C          -7.5613    8.2666   -0.5059 C.1     1  LIG1       -0.0621
     42 C          -8.1326    9.3142   -0.7203 C.1     1  LIG1       -0.1137
     43 H          -8.6341   10.2290   -0.9364 H       1  LIG1        0.1232
     44 O          -9.0067    5.6876   -0.3580 O.3     1  LIG1       -0.5028
     45 H          -9.2838    4.7628   -0.3278 H       1  LIG1        0.2923
@<TRIPOS>BOND
     1    43    42    1
     2    20    19    1
     3     6     1    1
     4    42    41    3
     5    19    18    3
     6     5     1   ar
     7     5     4   ar
     8    41    36    1
     9     1     2   ar
    10    18    14    1
    11    44    45    1
    12    44    37    1
    13    21    22    3
    14    28    27    1
    15    14    13   ar
    16    14    15   ar
    17    22    15    1
    18    36    37   ar
    19    36    35   ar
    20     9     7    1
    21     4    13    1
    22     4     3   ar
    23    37    38   ar
    24    13    17   ar
    25    15    16   ar
    26     2     7    1
    27     2     3   ar
    28    27    26   ar
    29    27    23   ar
    30    17    16   ar
    31    35    26    1
    32    35    39   ar
    33    16    23    1
    34    38    39   ar
    35    38    40    1
    36    26    25   ar
    37    23    24   ar
    38     7     8    1
    39     3    10    1
    40    31    29    1
    41    33    32    1
    42    30    29    1
    43    25    24   ar
    44    25    32    1
    45    11    10    1
    46    24    29    1
    47    12    10    1
    48    32    34    1
