@<TRIPOS>MOLECULE
mol_data/opt/b3lyp/geoms/mol2/12hh12hh-12hh-12hh.out
 46 49 0 0 0
SMALL
GASTEIGER

@<TRIPOS>ATOM
      1 C          -0.0459    1.6526   -0.0610 C.ar    1  LIG1        0.1152
      2 C           1.2679    1.6091   -0.4321 C.ar    1  LIG1        0.0846
      3 C           1.7154    2.9764   -0.4959 C.ar    1  LIG1        0.0951
      4 C           0.6356    3.7554   -0.1435 C.ar    1  LIG1        0.1939
      5 O          -0.4497    2.9547    0.1207 O.2     1  LIG1       -0.4560
      6 H          -0.7881    0.8935    0.1234 H       1  LIG1        0.1049
      7 N           2.0800    0.4869   -0.6517 N.pl3   1  LIG1       -0.3541
      8 H           1.7241   -0.1654   -1.3386 H       1  LIG1        0.1425
      9 H           3.0355    0.7468   -0.8618 H       1  LIG1        0.1425
     10 N           3.0317    3.3664   -0.8156 N.pl3   1  LIG1       -0.3535
     11 H           3.2745    3.1163   -1.7715 H       1  LIG1        0.1425
     12 H           3.1448    4.3695   -0.7081 H       1  LIG1        0.1425
     13 C           0.4656    5.1707   -0.0224 C.ar    1  LIG1        0.1950
     14 C          -0.6267    5.9745    0.2237 C.ar    1  LIG1        0.0959
     15 C          -0.1469    7.3271    0.2312 C.ar    1  LIG1        0.0959
     16 C           1.2088    7.2634   -0.0449 C.ar    1  LIG1        0.1950
     17 O           1.5924    5.9357   -0.1788 O.2     1  LIG1       -0.4447
     18 N          -1.9614    5.6089    0.4984 N.pl3   1  LIG1       -0.3535
     19 H          -2.5941    5.9051   -0.2415 H       1  LIG1        0.1425
     20 H          -2.0467    4.6034    0.6032 H       1  LIG1        0.1425
     21 N          -0.8933    8.4394    0.5419 N.pl3   1  LIG1       -0.3535
     22 H          -0.5446    9.3222    0.1711 H       1  LIG1        0.1425
     23 H          -1.8923    8.3079    0.5635 H       1  LIG1        0.1425
     24 C           2.2191    8.2617   -0.1754 C.ar    1  LIG1        0.1950
     25 C           2.1812    9.6199   -0.4281 C.ar    1  LIG1        0.0959
     26 C           3.5351   10.0887   -0.4036 C.ar    1  LIG1        0.0959
     27 C           4.3250    8.9881   -0.1551 C.ar    1  LIG1        0.1950
     28 O           3.5230    7.8690   -0.0142 O.2     1  LIG1       -0.4447
     29 N           1.0121   10.4029   -0.6693 N.pl3   1  LIG1       -0.3535
     30 H           1.1291   11.3298   -0.2652 H       1  LIG1        0.1425
     31 H           0.8364   10.5249   -1.6654 H       1  LIG1        0.1425
     32 N           3.9176   11.4298   -0.5366 N.pl3   1  LIG1       -0.3535
     33 H           4.9257   11.5347   -0.5545 H       1  LIG1        0.1425
     34 H           3.5083   11.8752   -1.3515 H       1  LIG1        0.1425
     35 C           5.7367    8.8051   -0.0167 C.ar    1  LIG1        0.1939
     36 C           6.5227    7.7262    0.3219 C.ar    1  LIG1        0.0951
     37 C           7.8850    8.1969    0.3139 C.ar    1  LIG1        0.0846
     38 C           7.8371    9.5154   -0.0358 C.ar    1  LIG1        0.1152
     39 O           6.5279    9.9047   -0.2396 O.2     1  LIG1       -0.4560
     40 H           8.5838   10.2827   -0.1554 H       1  LIG1        0.1049
     41 N           6.1573    6.4089    0.6882 N.pl3   1  LIG1       -0.3535
     42 H           5.1757    6.3607    0.9426 H       1  LIG1        0.1425
     43 H           6.3066    5.7492   -0.0729 H       1  LIG1        0.1425
     44 N           8.9859    7.4176    0.6858 N.pl3   1  LIG1       -0.3541
     45 H           8.7122    6.4632    0.8859 H       1  LIG1        0.1425
     46 H           9.7675    7.4497    0.0444 H       1  LIG1        0.1425
@<TRIPOS>BOND
     1    11    10    1
     2    31    29    1
     3    34    32    1
     4     8     7    1
     5     9     7    1
     6    10    12    1
     7    10     3    1
     8    29    25    1
     9    29    30    1
    10     7     2    1
    11    33    32    1
    12    32    26    1
    13     3     2   ar
    14     3     4   ar
    15     2     1   ar
    16    25    26   ar
    17    25    24   ar
    18    26    27   ar
    19    19    18    1
    20    39    38   ar
    21    39    35   ar
    22    17    16   ar
    23    17    13   ar
    24    24    16    1
    25    24    28   ar
    26    40    38    1
    27    27    35    1
    28    27    28   ar
    29     4    13    1
    30     4     5   ar
    31    43    41    1
    32     1     5   ar
    33     1     6    1
    34    16    15   ar
    35    38    37   ar
    36    13    14   ar
    37    35    36   ar
    38    46    44    1
    39    22    21    1
    40    14    15   ar
    41    14    18    1
    42    15    21    1
    43    37    36   ar
    44    37    44    1
    45    36    41    1
    46    18    20    1
    47    21    23    1
    48    44    45    1
    49    41    42    1
