@<TRIPOS>MOLECULE
mol_data/opt/b3lyp/geoms/mol2/12hh12hh.out
 24 25 0 0 0
SMALL
GASTEIGER

@<TRIPOS>ATOM
      1 C           0.1947    1.7909    0.1533 C.ar    1  LIG1        0.1152
      2 C           1.5478    1.8356   -0.0092 C.ar    1  LIG1        0.0846
      3 C           1.8837    3.2228   -0.1952 C.ar    1  LIG1        0.0951
      4 C           0.7015    3.9280   -0.1176 C.ar    1  LIG1        0.1939
      5 O          -0.3304    3.0583    0.0930 O.2     1  LIG1       -0.4560
      6 H          -0.5104    0.9926    0.3212 H       1  LIG1        0.1049
      7 N           2.5071    0.8049    0.0566 N.pl3   1  LIG1       -0.3541
      8 H           2.0846   -0.1042    0.2076 H       1  LIG1        0.1425
      9 H           3.0740    0.7594   -0.7855 H       1  LIG1        0.1425
     10 N           3.1888    3.7595   -0.4065 N.pl3   1  LIG1       -0.3535
     11 H           3.8754    3.1968    0.0915 H       1  LIG1        0.1425
     12 H           3.4469    3.7536   -1.3920 H       1  LIG1        0.1425
     13 C           0.3863    5.3287   -0.1946 C.ar    1  LIG1        0.1939
     14 C           1.1519    6.4696   -0.0648 C.ar    1  LIG1        0.0951
     15 C           0.2511    7.5769   -0.2395 C.ar    1  LIG1        0.0846
     16 C          -0.9841    7.0383   -0.4552 C.ar    1  LIG1        0.1152
     17 O          -0.9265    5.6748   -0.4399 O.2     1  LIG1       -0.4560
     18 H          -1.9548    7.4727   -0.6368 H       1  LIG1        0.1049
     19 N           2.4982    6.6150    0.2605 N.pl3   1  LIG1       -0.3535
     20 H           3.0226    5.7469    0.1290 H       1  LIG1        0.1425
     21 H           2.9208    7.3905   -0.2402 H       1  LIG1        0.1425
     22 N           0.6863    8.9171   -0.2255 N.pl3   1  LIG1       -0.3541
     23 H          -0.0814    9.5737   -0.3113 H       1  LIG1        0.1425
     24 H           1.1979    9.1252    0.6284 H       1  LIG1        0.1425
@<TRIPOS>BOND
     1    12    10    1
     2     9     7    1
     3    18    16    1
     4    16    17   ar
     5    16    15   ar
     6    17    13   ar
     7    10     3    1
     8    10    11    1
     9    23    22    1
    10    21    19    1
    11    15    22    1
    12    15    14   ar
    13    22    24    1
    14     3     4   ar
    15     3     2   ar
    16    13     4    1
    17    13    14   ar
    18     4     5   ar
    19    14    19    1
    20     2     7    1
    21     2     1   ar
    22     7     8    1
    23     5     1   ar
    24    20    19    1
    25     1     6    1
