@<TRIPOS>MOLECULE
mol_data/opt/b3lyp/geoms/mol2/12hh12hh-12hh-12hh-.out
 46 49 0 0 0
SMALL
GASTEIGER

@<TRIPOS>ATOM
      1 C          -0.1214    1.6602   -0.1278 C.ar    1  LIG1        0.1152
      2 C           1.2408    1.6077   -0.2093 C.ar    1  LIG1        0.0846
      3 C           1.7006    2.9733   -0.2043 C.ar    1  LIG1        0.0951
      4 C           0.5733    3.7600   -0.1124 C.ar    1  LIG1        0.1939
      5 O          -0.5485    2.9655   -0.0688 O.2     1  LIG1       -0.4560
      6 H          -0.8896    0.9054   -0.0896 H       1  LIG1        0.1049
      7 N           2.0757    0.4792   -0.2231 N.pl3   1  LIG1       -0.3541
      8 H           1.9000   -0.1636   -0.9852 H       1  LIG1        0.1425
      9 H           3.0535    0.7426   -0.1967 H       1  LIG1        0.1425
     10 N           3.0569    3.3467   -0.2172 N.pl3   1  LIG1       -0.3535
     11 H           3.5152    3.0913   -1.0883 H       1  LIG1        0.1425
     12 H           3.1700    4.3454   -0.0735 H       1  LIG1        0.1425
     13 C           0.3889    5.1774   -0.0557 C.ar    1  LIG1        0.1950
     14 C          -0.7215    5.9854    0.0643 C.ar    1  LIG1        0.0959
     15 C          -0.2417    7.3369    0.1009 C.ar    1  LIG1        0.0959
     16 C           1.1369    7.2680   -0.0354 C.ar    1  LIG1        0.1950
     17 O           1.5243    5.9372   -0.1083 O.2     1  LIG1       -0.4447
     18 N          -2.0824    5.6298    0.2040 N.pl3   1  LIG1       -0.3535
     19 H          -2.6167    5.8651   -0.6300 H       1  LIG1        0.1425
     20 H          -2.1763    4.6308    0.3567 H       1  LIG1        0.1425
     21 N          -1.0209    8.4448    0.3149 N.pl3   1  LIG1       -0.3535
     22 H          -0.6191    9.3400    0.0439 H       1  LIG1        0.1425
     23 H          -2.0170    8.3165    0.2414 H       1  LIG1        0.1425
     24 C           2.1724    8.2483   -0.0913 C.ar    1  LIG1        0.1950
     25 C           2.1763    9.6257   -0.2374 C.ar    1  LIG1        0.0959
     26 C           3.5449   10.0462   -0.1859 C.ar    1  LIG1        0.0959
     27 C           4.2999    8.8975   -0.0421 C.ar    1  LIG1        0.1950
     28 O           3.4535    7.8002    0.0193 O.2     1  LIG1       -0.4447
     29 N           1.0328   10.4692   -0.4028 N.pl3   1  LIG1       -0.3535
     30 H           1.0877   11.2684    0.2262 H       1  LIG1        0.1425
     31 H           0.9704   10.8361   -1.3513 H       1  LIG1        0.1425
     32 N           3.9698   11.3683   -0.1925 N.pl3   1  LIG1       -0.3535
     33 H           4.9714   11.4613   -0.3813 H       1  LIG1        0.1425
     34 H           3.4045   11.9667   -0.7829 H       1  LIG1        0.1425
     35 C           5.7075    8.6497    0.0604 C.ar    1  LIG1        0.1939
     36 C           6.8270    9.4166   -0.1983 C.ar    1  LIG1        0.0951
     37 C           7.9672    8.6068    0.1403 C.ar    1  LIG1        0.0846
     38 C           7.4726    7.4082    0.5619 C.ar    1  LIG1        0.1152
     39 O           6.0981    7.4250    0.5216 O.2     1  LIG1       -0.4560
     40 H           7.9256    6.4967    0.9172 H       1  LIG1        0.1049
     41 N           6.8505   10.7552   -0.6985 N.pl3   1  LIG1       -0.3535
     42 H           7.5971   11.2784   -0.2449 H       1  LIG1        0.1425
     43 H           7.0322   10.7808   -1.7009 H       1  LIG1        0.1425
     44 N           9.2961    9.0727    0.0929 N.pl3   1  LIG1       -0.3541
     45 H           9.9650    8.3553    0.3488 H       1  LIG1        0.1425
     46 H           9.5422    9.4300   -0.8257 H       1  LIG1        0.1425
@<TRIPOS>BOND
     1    43    41    1
     2    31    29    1
     3    11    10    1
     4     8     7    1
     5    46    44    1
     6    34    32    1
     7    41    42    1
     8    41    36    1
     9    19    18    1
    10    29    25    1
    11    29    30    1
    12    33    32    1
    13    25    26   ar
    14    25    24   ar
    15     7     2    1
    16     7     9    1
    17    10     3    1
    18    10    12    1
    19     2     3   ar
    20     2     1   ar
    21     3     4   ar
    22    36    35   ar
    23    36    37   ar
    24    32    26    1
    25    26    27   ar
    26     1     6    1
    27     1     5   ar
    28     4     5   ar
    29     4    13    1
    30    17    13   ar
    31    17    16   ar
    32    24    16    1
    33    24    28   ar
    34    13    14   ar
    35    27    28   ar
    36    27    35    1
    37    16    15   ar
    38    22    21    1
    39    35    39   ar
    40    14    15   ar
    41    14    18    1
    42    44    37    1
    43    44    45    1
    44    15    21    1
    45    37    38   ar
    46    18    20    1
    47    23    21    1
    48    39    38   ar
    49    38    40    1
