@<TRIPOS>MOLECULE
mol_data/opt/b3lyp/geoms/mol2/12hh12hh-12hh12hh-.out
 46 49 0 0 0
SMALL
GASTEIGER

@<TRIPOS>ATOM
      1 C           0.0623    1.7113   -0.0415 C.ar    1  LIG1        0.1152
      2 C           1.4082    1.7079    0.1874 C.ar    1  LIG1        0.0846
      3 C           1.8328    3.0845    0.1408 C.ar    1  LIG1        0.0951
      4 C           0.7014    3.8302   -0.1103 C.ar    1  LIG1        0.1939
      5 O          -0.3874    3.0001   -0.2255 O.2     1  LIG1       -0.4560
      6 H          -0.6848    0.9362   -0.0868 H       1  LIG1        0.1049
      7 N           2.2466    0.6284    0.4945 N.pl3   1  LIG1       -0.3541
      8 H           2.2153   -0.1364   -0.1670 H       1  LIG1        0.1425
      9 H           3.1990    0.9307    0.6585 H       1  LIG1        0.1425
     10 N           3.1568    3.4989    0.3973 N.pl3   1  LIG1       -0.3535
     11 H           3.7913    3.2431   -0.3555 H       1  LIG1        0.1425
     12 H           3.2213    4.5011    0.5466 H       1  LIG1        0.1425
     13 C           0.4708    5.2358   -0.2392 C.ar    1  LIG1        0.1950
     14 C          -0.6662    6.0103   -0.3382 C.ar    1  LIG1        0.0959
     15 C          -0.2318    7.3752   -0.3795 C.ar    1  LIG1        0.0959
     16 C           1.1468    7.3518   -0.3119 C.ar    1  LIG1        0.1950
     17 O           1.5836    6.0450   -0.2277 O.2     1  LIG1       -0.4447
     18 N          -2.0199    5.6121   -0.3397 N.pl3   1  LIG1       -0.3535
     19 H          -2.4605    5.7833   -1.2410 H       1  LIG1        0.1425
     20 H          -2.1028    4.6210   -0.1376 H       1  LIG1        0.1425
     21 N          -1.0697    8.4950   -0.4095 N.pl3   1  LIG1       -0.3535
     22 H          -0.7774    9.2146   -1.0579 H       1  LIG1        0.1425
     23 H          -2.0434    8.2475   -0.5289 H       1  LIG1        0.1425
     24 C           2.1437    8.3674   -0.3119 C.ar    1  LIG1        0.1950
     25 C           3.5223    8.3441   -0.3796 C.ar    1  LIG1        0.0959
     26 C           3.9566    9.7090   -0.3382 C.ar    1  LIG1        0.0959
     27 C           2.8197   10.4834   -0.2393 C.ar    1  LIG1        0.1950
     28 O           1.7068    9.6743   -0.2277 O.2     1  LIG1       -0.4447
     29 N           4.3601    7.2243   -0.4095 N.pl3   1  LIG1       -0.3535
     30 H           4.0679    6.5047   -1.0578 H       1  LIG1        0.1425
     31 H           5.3339    7.4718   -0.5289 H       1  LIG1        0.1425
     32 N           5.3104   10.1072   -0.3398 N.pl3   1  LIG1       -0.3535
     33 H           5.7510    9.9360   -1.2410 H       1  LIG1        0.1425
     34 H           5.3933   11.0983   -0.1376 H       1  LIG1        0.1425
     35 C           2.5891   11.8891   -0.1104 C.ar    1  LIG1        0.1939
     36 C           1.4577   12.6348    0.1407 C.ar    1  LIG1        0.0951
     37 C           1.8823   14.0114    0.1872 C.ar    1  LIG1        0.0846
     38 C           3.2282   14.0080   -0.0417 C.ar    1  LIG1        0.1152
     39 O           3.6778   12.7192   -0.2257 O.2     1  LIG1       -0.4560
     40 H           3.9753   14.7831   -0.0870 H       1  LIG1        0.1049
     41 N           0.1336   12.2204    0.3972 N.pl3   1  LIG1       -0.3535
     42 H          -0.5008   12.4762   -0.3557 H       1  LIG1        0.1425
     43 H           0.0691   11.2182    0.5464 H       1  LIG1        0.1425
     44 N           1.0439   15.0909    0.4943 N.pl3   1  LIG1       -0.3541
     45 H           1.0752   15.8557   -0.1673 H       1  LIG1        0.1425
     46 H           0.0915   14.7886    0.6582 H       1  LIG1        0.1425
@<TRIPOS>BOND
     1    33    32    1
     2    19    18    1
     3    22    21    1
     4    30    29    1
     5    23    21    1
     6    31    29    1
     7    21    15    1
     8    29    25    1
     9    25    26   ar
    10    25    24   ar
    11    15    14   ar
    12    15    16   ar
    13    42    41    1
    14    11    10    1
    15    32    26    1
    16    32    34    1
    17    18    14    1
    18    18    20    1
    19    26    27   ar
    20    14    13   ar
    21    24    16    1
    22    24    28   ar
    23    16    17   ar
    24    27    28   ar
    25    27    35    1
    26    13    17   ar
    27    13     4    1
    28    39    35   ar
    29    39    38   ar
    30     5     4   ar
    31     5     1   ar
    32    45    44    1
    33     8     7    1
    34    35    36   ar
    35     4     3   ar
    36    40    38    1
    37     6     1    1
    38    38    37   ar
    39     1     2   ar
    40    36    37   ar
    41    36    41    1
    42     3     2   ar
    43     3    10    1
    44    37    44    1
    45     2     7    1
    46    41    43    1
    47    10    12    1
    48    44    46    1
    49     7     9    1
