@<TRIPOS>MOLECULE
mol_data/opt/b3lyp/geoms/mol2/12hh6ae13da-4fh-12ha4hi-13fa-6lh.out
 94 101 0 0 0
SMALL
GASTEIGER

@<TRIPOS>ATOM
      1 C           0.8246    1.9215   -1.0405 C.ar    1  LIG1        0.1150
      2 C           2.1794    1.8822   -0.8801 C.ar    1  LIG1        0.0845
      3 C           2.5848    3.2255   -0.5673 C.ar    1  LIG1        0.0920
      4 C           1.4356    3.9885   -0.5399 C.ar    1  LIG1        0.1587
      5 O           0.3549    3.1859   -0.8556 O.2     1  LIG1       -0.4591
      6 H           0.0926    1.1703   -1.2939 H       1  LIG1        0.1049
      7 N           3.1061    0.8319   -1.0508 N.pl3   1  LIG1       -0.3541
      8 H           3.5631    0.5853   -0.1764 H       1  LIG1        0.1425
      9 H           2.6781   -0.0026   -1.4357 H       1  LIG1        0.1425
     10 N           3.9137    3.5822   -0.3401 N.pl3   1  LIG1       -0.3536
     11 H           4.5433    2.9504   -0.8264 H       1  LIG1        0.1425
     12 H           4.1279    4.5432   -0.5799 H       1  LIG1        0.1425
     13 C          -0.0445    5.9926   -0.6581 C.ar    1  LIG1        0.0391
     14 C           1.1778    5.3873   -0.2893 C.ar    1  LIG1        0.0384
     15 C           2.0997    6.2152    0.3647 C.ar    1  LIG1       -0.0320
     16 C           1.8372    7.5795    0.5610 C.ar    1  LIG1        0.0528
     17 C           0.6220    8.1040    0.0444 C.ar    1  LIG1        0.1037
     18 N          -0.3046    7.2820   -0.5016 N.ar    1  LIG1       -0.2515
     19 H           3.0073    5.8025    0.7912 H       1  LIG1        0.0638
     20 H          -0.8316    5.3883   -1.1009 H       1  LIG1        0.0837
     21 C           2.7509    8.3391    1.3469 C.1     1  LIG1       -0.0674
     22 C           3.5431    8.9210    2.0518 C.1     1  LIG1       -0.1138
     23 H           4.2310    9.4940    2.6293 H       1  LIG1        0.1232
     24 C           0.2045    9.5039    0.0969 C.ar    1  LIG1        0.0842
     25 C           0.8370   10.7623    0.1251 C.ar    1  LIG1        0.0791
     26 C          -0.1820   11.7553    0.1296 C.ar    1  LIG1       -0.0182
     27 C          -1.4117   11.1111    0.0838 C.ar    1  LIG1        0.0518
     28 N          -1.1392    9.7617    0.0592 N.ar    1  LIG1       -0.3518
     29 H          -1.8024    9.0023    0.0095 H       1  LIG1        0.1660
     30 N           3.3234   11.4121   -0.1295 N.1     1  LIG1       -0.1908
     31 C           2.2160   11.0771    0.0063 C.1     1  LIG1        0.1013
     32 H          -0.0267   12.8208    0.1393 H       1  LIG1        0.0652
     33 C          -3.1107   12.9279    0.4447 C.ar    1  LIG1        0.1267
     34 C          -4.4276   13.3640    0.3836 C.ar    1  LIG1       -0.0070
     35 C          -2.7794   11.6201    0.0291 C.ar    1  LIG1        0.0415
     36 C          -5.4800   12.5556   -0.0952 C.ar    1  LIG1        0.0432
     37 H          -4.6647   14.3567    0.7577 H       1  LIG1        0.0662
     38 C          -3.8321   10.8093   -0.4245 C.ar    1  LIG1       -0.0277
     39 C          -5.1663   11.2249   -0.4916 C.ar    1  LIG1        0.0362
     40 H          -3.6104    9.8043   -0.7743 H       1  LIG1        0.0644
     41 O          -2.1087   13.7372    0.9204 O.3     1  LIG1       -0.5061
     42 H          -2.5011   14.5586    1.2429 H       1  LIG1        0.2922
     43 N          -6.1371   10.3157   -0.9129 N.pl3   1  LIG1       -0.3574
     44 H          -7.0389   10.7057   -1.1425 H       1  LIG1        0.1423
     45 H          -5.8140    9.6244   -1.5745 H       1  LIG1        0.1423
     46 C          -6.8056   13.1381   -0.2048 C.ar    1  LIG1        0.1581
     47 C          -7.2484   14.4386   -0.3653 C.ar    1  LIG1        0.0716
     48 C          -8.6745   14.3916   -0.4020 C.ar    1  LIG1        0.0056
     49 C          -9.0448   13.0719   -0.2739 C.ar    1  LIG1        0.1393
     50 O          -7.9157   12.3064   -0.1611 O.2     1  LIG1       -0.4528
     51 N          -6.4742   15.6041   -0.4446 N.pl3   1  LIG1       -0.3550
     52 H          -5.5750   15.4506   -0.8879 H       1  LIG1        0.1424
     53 H          -6.9627   16.3595   -0.9101 H       1  LIG1        0.1424
     54 H          -9.3440   15.2380   -0.4428 H       1  LIG1        0.0674
     55 C         -11.5184   12.9159   -0.7105 C.ar    1  LIG1        0.0360
     56 C         -12.6993   12.1831   -0.5807 C.ar    1  LIG1       -0.0309
     57 C         -10.3150   12.3682   -0.2007 C.ar    1  LIG1        0.0382
     58 C         -12.7550   10.9212    0.0361 C.ar    1  LIG1        0.0066
     59 H         -13.6139   12.6055   -0.9819 H       1  LIG1        0.0643
     60 C         -10.3758   11.0995    0.4022 C.ar    1  LIG1       -0.0458
     61 C         -11.5478   10.3626    0.5427 C.ar    1  LIG1       -0.0404
     62 H          -9.4541   10.6895    0.8031 H       1  LIG1        0.0628
     63 N         -11.5431   14.1765   -1.3216 N.pl3   1  LIG1       -0.3574
     64 H         -10.7131   14.3829   -1.8655 H       1  LIG1        0.1423
     65 H         -12.3831   14.3390   -1.8627 H       1  LIG1        0.1423
     66 C         -11.4754    9.0370    1.2691 C.3     1  LIG1       -0.0391
     67 H         -10.5403    8.9673    1.8309 H       1  LIG1        0.0278
     68 H         -11.4909    8.1751    0.5869 H       1  LIG1        0.0278
     69 H         -12.3001    8.9081    1.9765 H       1  LIG1        0.0278
     70 C         -14.0569   10.2603    0.1141 C.ar    1  LIG1        0.0892
     71 C         -15.3494   10.8059    0.1401 C.ar    1  LIG1        0.1426
     72 C         -16.2871    9.7595    0.1964 C.ar    1  LIG1        0.0060
     73 C         -15.5699    8.5583    0.1950 C.ar    1  LIG1        0.0557
     74 N         -14.2420    8.8917    0.1514 N.ar    1  LIG1       -0.3511
     75 H         -13.5232    8.1884    0.0875 H       1  LIG1        0.1660
     76 O         -15.6083   12.1508    0.1215 O.3     1  LIG1       -0.5046
     77 H         -16.5487   12.2795    0.2969 H       1  LIG1        0.2922
     78 H         -17.3619    9.8693    0.2370 H       1  LIG1        0.0675
     79 C         -15.2130    6.0364    0.1910 C.ar    1  LIG1        0.2239
     80 C         -16.0538    7.1841    0.2245 C.ar    1  LIG1        0.0616
     81 C         -17.4267    6.9159    0.2865 C.ar    1  LIG1       -0.0253
     82 C         -17.9200    5.6051    0.3117 C.ar    1  LIG1        0.0438
     83 C         -16.9781    4.5726    0.2728 C.ar    1  LIG1        0.0520
     84 N         -15.6590    4.7965    0.2150 N.ar    1  LIG1       -0.2189
     85 H         -18.1280    7.7441    0.3229 H       1  LIG1        0.0645
     86 H         -17.2944    3.5309    0.2920 H       1  LIG1        0.0849
     87 O         -13.8570    6.2361    0.1244 O.3     1  LIG1       -0.4792
     88 C         -13.0329    5.0671    0.0905 C.3     1  LIG1        0.0804
     89 H         -12.0077    5.4366    0.0381 H       1  LIG1        0.0660
     90 H         -13.1735    4.4615    0.9898 H       1  LIG1        0.0660
     91 H         -13.2614    4.4507   -0.7830 H       1  LIG1        0.0660
     92 N         -19.2901    5.3429    0.4373 N.pl3   1  LIG1       -0.3568
     93 H         -19.8900    6.0525    0.0375 H       1  LIG1        0.1424
     94 H         -19.5651    4.4214    0.1229 H       1  LIG1        0.1424
@<TRIPOS>BOND
     1    64    63    1
     2    65    63    1
     3    45    43    1
     4     9     7    1
     5    63    55    1
     6     6     1    1
     7    44    43    1
     8    20    13    1
     9     7     2    1
    10     7     8    1
    11     1     2   ar
    12     1     5   ar
    13    59    56    1
    14    43    39    1
    15    53    51    1
    16    52    51    1
    17     2     3   ar
    18     5     4   ar
    19    11    10    1
    20    91    88    1
    21    40    38    1
    22    55    56   ar
    23    55    57   ar
    24    13    18   ar
    25    13    14   ar
    26    56    58   ar
    27    12    10    1
    28     3     4   ar
    29     3    10    1
    30     4    14    1
    31    18    17   ar
    32    39    38   ar
    33    39    36   ar
    34    51    47    1
    35    54    48    1
    36    38    35   ar
    37    48    47   ar
    38    48    49   ar
    39    47    46   ar
    40    14    15   ar
    41    49    57    1
    42    49    50   ar
    43    46    50   ar
    44    46    36    1
    45    57    60   ar
    46    30    31    3
    47    36    34   ar
    48    31    25    1
    49    29    28    1
    50    35    27    1
    51    35    33   ar
    52    58    70    1
    53    58    61   ar
    54    93    92    1
    55    89    88    1
    56    17    24    1
    57    17    16   ar
    58    28    27   ar
    59    28    24   ar
    60    27    26   ar
    61    75    74    1
    62    88    87    1
    63    88    90    1
    64    24    25   ar
    65    70    71   ar
    66    70    74   ar
    67    76    71    1
    68    76    77    1
    69    94    92    1
    70    87    79    1
    71    25    26   ar
    72    26    32    1
    73    71    72   ar
    74    74    73   ar
    75    79    84   ar
    76    79    80   ar
    77    73    72   ar
    78    73    80    1
    79    72    78    1
    80    84    83   ar
    81    80    81   ar
    82    83    86    1
    83    83    82   ar
    84    81    82   ar
    85    81    85    1
    86    82    92    1
    87    15    16   ar
    88    15    19    1
    89    34    33   ar
    90    34    37    1
    91    60    61   ar
    92    60    62    1
    93    33    41    1
    94    61    66    1
    95    16    21    1
    96    68    66    1
    97    41    42    1
    98    66    67    1
    99    66    69    1
   100    21    22    3
   101    22    23    1
