@<TRIPOS>MOLECULE
mol_data/opt/b3lyp/geoms/mol2/12hi12df-4di-13ld-.out
 50 53 0 0 0
SMALL
GASTEIGER

@<TRIPOS>ATOM
      1 C           0.4346    1.6126    0.2588 C.ar    1  LIG1        0.1136
      2 C           1.7748    1.6794    0.5311 C.ar    1  LIG1        0.0665
      3 C           2.1630    3.0517    0.3492 C.ar    1  LIG1        0.0191
      4 C           1.0147    3.7075   -0.0417 C.ar    1  LIG1        0.1758
      5 O          -0.0478    2.8436   -0.0800 O.2     1  LIG1       -0.4576
      6 H          -0.2835    0.8081    0.2754 H       1  LIG1        0.1049
      7 N           2.6265    0.6748    1.0039 N.pl3   1  LIG1       -0.3553
      8 H           2.2230   -0.2525    0.9566 H       1  LIG1        0.1424
      9 H           3.5344    0.6772    0.5540 H       1  LIG1        0.1424
     10 C           3.5266    3.6015    0.6309 C.3     1  LIG1       -0.0343
     11 H           3.4821    4.6514    0.9284 H       1  LIG1        0.0279
     12 H           4.1883    3.5484   -0.2411 H       1  LIG1        0.0279
     13 H           3.9897    3.0360    1.4460 H       1  LIG1        0.0279
     14 C           0.7290    5.0708   -0.3894 C.ar    1  LIG1        0.1919
     15 C           1.4831    6.0944   -0.9402 C.ar    1  LIG1        0.1425
     16 C           0.6205    7.2421   -1.0271 C.ar    1  LIG1        0.1812
     17 C          -0.6187    6.8521   -0.5393 C.ar    1  LIG1        0.1796
     18 O          -0.5221    5.5218   -0.1488 O.2     1  LIG1       -0.4465
     19 N           3.8872    5.9537   -1.8673 N.1     1  LIG1       -0.1906
     20 C           2.8054    6.0234   -1.4425 C.1     1  LIG1        0.1068
     21 O           1.0580    8.3708   -1.6030 O.3     1  LIG1       -0.5023
     22 H           0.6082    9.1623   -1.2561 H       1  LIG1        0.2923
     23 C          -2.2696    8.7829   -0.3814 C.ar    1  LIG1        0.0632
     24 C          -3.5990    9.2235   -0.3709 C.ar    1  LIG1       -0.0342
     25 C          -1.9610    7.4002   -0.4604 C.ar    1  LIG1        0.0386
     26 C          -4.6758    8.3292   -0.3912 C.ar    1  LIG1        0.0061
     27 H          -3.7947   10.2871   -0.3219 H       1  LIG1        0.0637
     28 C          -3.0575    6.5171   -0.4483 C.ar    1  LIG1       -0.0462
     29 C          -4.3845    6.9368   -0.4052 C.ar    1  LIG1       -0.0405
     30 H          -2.8506    5.4534   -0.4691 H       1  LIG1        0.0628
     31 N          -0.3700   10.5345   -0.1777 N.1     1  LIG1       -0.1908
     32 C          -1.2385    9.7613   -0.2684 C.1     1  LIG1        0.0999
     33 C          -5.4619    5.8763   -0.3581 C.3     1  LIG1       -0.0391
     34 H          -5.0474    4.9284   -0.0077 H       1  LIG1        0.0278
     35 H          -5.8916    5.6773   -1.3497 H       1  LIG1        0.0278
     36 H          -6.2801    6.1576    0.3103 H       1  LIG1        0.0278
     37 C          -6.0327    8.8826   -0.3607 C.ar    1  LIG1        0.0903
     38 C          -6.5113   10.0342    0.2581 C.ar    1  LIG1        0.1625
     39 C          -7.9108   10.1548   -0.0454 C.ar    1  LIG1        0.1112
     40 C          -8.2384    9.0719   -0.8530 C.ar    1  LIG1        0.0233
     41 N          -7.1189    8.3283   -1.0302 N.ar    1  LIG1       -0.3565
     42 H          -7.0632    7.5188   -1.6258 H       1  LIG1        0.1655
     43 H          -9.1837    8.8078   -1.3008 H       1  LIG1        0.0821
     44 O          -5.7237   10.8856    0.9625 O.3     1  LIG1       -0.4917
     45 C          -6.2091   11.3157    2.2435 C.3     1  LIG1        0.0789
     46 H          -5.3997   11.8962    2.6874 H       1  LIG1        0.0660
     47 H          -7.0977   11.9447    2.1460 H       1  LIG1        0.0660
     48 H          -6.4360   10.4531    2.8801 H       1  LIG1        0.0660
     49 N          -9.5463   12.0219    0.6688 N.1     1  LIG1       -0.1907
     50 C          -8.8094   11.1793    0.3466 C.1     1  LIG1        0.1044
@<TRIPOS>BOND
     1    19    20    3
     2    42    41    1
     3    21    22    1
     4    21    16    1
     5    20    15    1
     6    35    33    1
     7    43    40    1
     8    41    40   ar
     9    41    37   ar
    10    16    15   ar
    11    16    17   ar
    12    15    14   ar
    13    40    39   ar
    14    17    25    1
    15    17    18   ar
    16    30    28    1
    17    25    28   ar
    18    25    23   ar
    19    28    29   ar
    20    29    26   ar
    21    29    33    1
    22    26    24   ar
    23    26    37    1
    24    14    18   ar
    25    14     4    1
    26    23    24   ar
    27    23    32    1
    28    24    27    1
    29    37    38   ar
    30    33    34    1
    31    33    36    1
    32    32    31    3
    33    12    10    1
    34     5     4   ar
    35     5     1   ar
    36    39    38   ar
    37    39    50    1
    38     4     3   ar
    39    38    44    1
    40     1     6    1
    41     1     2   ar
    42    50    49    3
    43     3     2   ar
    44     3    10    1
    45     2     7    1
    46     9     7    1
    47    10    11    1
    48    10    13    1
    49     8     7    1
    50    44    45    1
    51    47    45    1
    52    45    46    1
    53    45    48    1
