@<TRIPOS>MOLECULE
mol_data/opt/b3lyp/geoms/mol2/12hl13ed-4ff-6da-.out
 48 51 0 0 0
SMALL
GASTEIGER

@<TRIPOS>ATOM
      1 C           0.0635    1.6465   -0.3084 C.ar    1  LIG1        0.1170
      2 C           1.4178    1.4966   -0.2296 C.ar    1  LIG1        0.1059
      3 C           1.9620    2.8282   -0.2243 C.ar    1  LIG1        0.1878
      4 C           0.9049    3.7062   -0.3072 C.ar    1  LIG1        0.1954
      5 O          -0.2621    2.9842   -0.3538 O.2     1  LIG1       -0.4557
      6 H          -0.7645    0.9574   -0.3378 H       1  LIG1        0.1050
      7 N           2.2069    0.3541   -0.1029 N.pl3   1  LIG1       -0.3527
      8 H           1.7936   -0.4838   -0.4913 H       1  LIG1        0.1425
      9 H           3.1376    0.5031   -0.4761 H       1  LIG1        0.1425
     10 O           3.2997    3.0848   -0.1856 O.3     1  LIG1       -0.4896
     11 C           3.8285    3.2684    1.1383 C.3     1  LIG1        0.0791
     12 H           4.9044    3.4062    1.0194 H       1  LIG1        0.0660
     13 H           3.4011    4.1596    1.6081 H       1  LIG1        0.0660
     14 H           3.6331    2.3892    1.7630 H       1  LIG1        0.0660
     15 C           0.7289    5.1354   -0.3314 C.ar    1  LIG1        0.1031
     16 C           1.5979    6.2258   -0.4524 C.ar    1  LIG1        0.0710
     17 C           0.7829    7.4123   -0.3614 C.ar    1  LIG1        0.0931
     18 C          -0.5458    7.0184   -0.2010 C.ar    1  LIG1        0.0694
     19 N          -0.5431    5.6471   -0.1993 N.ar    1  LIG1       -0.3495
     20 H          -1.3497    5.0686   -0.0177 H       1  LIG1        0.1661
     21 C           2.9957    6.2269   -0.6676 C.1     1  LIG1       -0.0661
     22 C           4.1891    6.2938   -0.8577 C.1     1  LIG1       -0.1138
     23 H           5.2363    6.3448   -1.0449 H       1  LIG1        0.1232
     24 N           1.6667    9.8206   -0.6559 N.1     1  LIG1       -0.1908
     25 C           1.2615    8.7388   -0.5119 C.1     1  LIG1        0.1025
     26 C          -1.9251    8.9337    0.6604 C.ar    1  LIG1        0.1268
     27 C          -3.1417    9.6137    0.6998 C.ar    1  LIG1       -0.0082
     28 C          -1.8005    7.7689   -0.1241 C.ar    1  LIG1        0.0445
     29 C          -4.2680    9.1623   -0.0007 C.ar    1  LIG1        0.0298
     30 H          -3.2362   10.4911    1.3348 H       1  LIG1        0.0661
     31 C          -2.9275    7.3238   -0.8349 C.ar    1  LIG1       -0.0069
     32 C          -4.1440    8.0008   -0.7853 C.ar    1  LIG1        0.1255
     33 H          -2.8306    6.4607   -1.4887 H       1  LIG1        0.0662
     34 O          -0.8478    9.3162    1.4024 O.3     1  LIG1       -0.5061
     35 H          -0.9630   10.2238    1.7114 H       1  LIG1        0.2922
     36 O          -5.2271    7.6187   -1.5264 O.3     1  LIG1       -0.5061
     37 H          -5.1150    6.7062   -1.8220 H       1  LIG1        0.2922
     38 C          -6.7608    9.3368    0.5008 C.ar    1  LIG1        0.1478
     39 C          -5.5425    9.9185    0.0800 C.ar    1  LIG1        0.0216
     40 C          -5.5833   11.2847   -0.2281 C.ar    1  LIG1       -0.0498
     41 C          -6.7804   11.9858   -0.1305 C.ar    1  LIG1       -0.0429
     42 C          -7.9248   11.2973    0.2762 C.ar    1  LIG1        0.0291
     43 N          -7.9229   10.0018    0.5939 N.ar    1  LIG1       -0.2440
     44 H          -4.6760   11.7799   -0.5601 H       1  LIG1        0.0625
     45 H          -8.8824   11.8068    0.3550 H       1  LIG1        0.0830
     46 N          -6.8550    6.8465    1.2670 N.1     1  LIG1       -0.1893
     47 C          -6.8146    7.9525    0.9129 C.1     1  LIG1        0.1197
     48 H          -6.8311   13.0423   -0.3725 H       1  LIG1        0.0633
@<TRIPOS>BOND
     1    37    36    1
     2    36    32    1
     3    33    31    1
     4    23    22    1
     5    22    21    3
     6    31    32   ar
     7    31    28   ar
     8    32    29   ar
     9    21    16    1
    10    24    25    3
    11    44    40    1
    12    25    17    1
    13     8     7    1
    14     9     7    1
    15    16    17   ar
    16    16    15   ar
    17    48    41    1
    18    17    18   ar
    19     5     1   ar
    20     5     4   ar
    21     6     1    1
    22    15     4    1
    23    15    19   ar
    24     1     2   ar
    25     4     3   ar
    26     2     3   ar
    27     2     7    1
    28    40    41   ar
    29    40    39   ar
    30     3    10    1
    31    18    19   ar
    32    18    28    1
    33    19    20    1
    34    10    11    1
    35    41    42   ar
    36    28    26   ar
    37    29    39    1
    38    29    27   ar
    39    39    38   ar
    40    42    45    1
    41    42    43   ar
    42    38    43   ar
    43    38    47    1
    44    26    27   ar
    45    26    34    1
    46    27    30    1
    47    47    46    3
    48    12    11    1
    49    11    13    1
    50    11    14    1
    51    34    35    1
