@<TRIPOS>MOLECULE
mol_data/opt/b3lyp/geoms/mol2/12hl4ed12hi-13aa-.out
 48 51 0 0 0
SMALL
GASTEIGER

@<TRIPOS>ATOM
      1 C           0.6376    1.6717   -1.3668 C.ar    1  LIG1        0.1169
      2 C           1.7537    1.5620   -0.5892 C.ar    1  LIG1        0.1058
      3 C           2.0420    2.8970   -0.1378 C.ar    1  LIG1        0.1864
      4 C           1.0952    3.7340   -0.6809 C.ar    1  LIG1        0.1793
      5 O           0.2247    2.9794   -1.4254 O.2     1  LIG1       -0.4572
      6 H           0.0471    0.9630   -1.9249 H       1  LIG1        0.1050
      7 N           2.4847    0.4374   -0.1899 N.pl3   1  LIG1       -0.3527
      8 H           2.3632   -0.3627   -0.7986 H       1  LIG1        0.1425
      9 H           3.4708    0.6530   -0.0909 H       1  LIG1        0.1425
     10 O           3.0788    3.2176    0.6915 O.3     1  LIG1       -0.4896
     11 C           2.8297    2.9101    2.0715 C.3     1  LIG1        0.0791
     12 H           3.7342    3.1897    2.6150 H       1  LIG1        0.0660
     13 H           1.9808    3.4896    2.4522 H       1  LIG1        0.0660
     14 H           2.6291    1.8417    2.2105 H       1  LIG1        0.0660
     15 C           1.7649    6.1844   -0.5411 C.ar    1  LIG1        0.0362
     16 C           1.3671    7.5203   -0.4010 C.ar    1  LIG1       -0.0337
     17 C           0.7827    5.1545   -0.5698 C.ar    1  LIG1        0.0376
     18 C           0.0196    7.9189   -0.3324 C.ar    1  LIG1        0.0376
     19 H           2.1450    8.2690   -0.3170 H       1  LIG1        0.0637
     20 C          -0.5611    5.5400   -0.5040 C.ar    1  LIG1       -0.0317
     21 C          -0.9588    6.8770   -0.3944 C.ar    1  LIG1        0.0632
     22 H          -1.3249    4.7719   -0.5392 H       1  LIG1        0.0638
     23 C           3.1597    5.9235   -0.6999 C.1     1  LIG1       -0.0689
     24 C           4.3487    5.7773   -0.8687 C.1     1  LIG1       -0.1139
     25 H           5.3920    5.6064   -0.9985 H       1  LIG1        0.1232
     26 N          -3.5204    7.3041   -0.3265 N.1     1  LIG1       -0.1908
     27 C          -2.3683    7.1334   -0.3541 C.1     1  LIG1        0.0999
     28 C          -0.3260    9.3093   -0.2103 C.ar    1  LIG1        0.1578
     29 C           0.3402   10.5102   -0.4240 C.ar    1  LIG1        0.0746
     30 C          -0.5893   11.5687   -0.1613 C.ar    1  LIG1        0.0181
     31 C          -1.7707   10.9508    0.1975 C.ar    1  LIG1        0.1565
     32 O          -1.6169    9.6013    0.1709 O.2     1  LIG1       -0.4511
     33 N           1.6655   10.6867   -0.8167 N.pl3   1  LIG1       -0.3548
     34 H           1.9940   10.0096   -1.4945 H       1  LIG1        0.1424
     35 H           1.8690   11.6282   -1.1275 H       1  LIG1        0.1424
     36 C          -0.3333   13.0365   -0.3096 C.3     1  LIG1       -0.0343
     37 H           0.1013   13.4819    0.5940 H       1  LIG1        0.0279
     38 H          -1.2607   13.5716   -0.5311 H       1  LIG1        0.0279
     39 H           0.3593   13.2406   -1.1358 H       1  LIG1        0.0279
     40 C          -3.0963   11.3953    0.5314 C.ar    1  LIG1        0.0824
     41 C          -3.6142   12.6362    0.8967 C.ar    1  LIG1       -0.0334
     42 C          -5.0059   12.4726    1.0976 C.ar    1  LIG1       -0.0437
     43 C          -5.3047   11.1431    0.8557 C.ar    1  LIG1        0.0023
     44 N          -4.1494   10.4997    0.5168 N.ar    1  LIG1       -0.3583
     45 H          -4.0625    9.5176    0.2761 H       1  LIG1        0.1654
     46 H          -6.2436   10.6118    0.8997 H       1  LIG1        0.0807
     47 H          -3.0438   13.5431    1.0327 H       1  LIG1        0.0640
     48 H          -5.7105   13.2365    1.3938 H       1  LIG1        0.0633
@<TRIPOS>BOND
     1     6     1    1
     2    34    33    1
     3     5     1   ar
     4     5     4   ar
     5     1     2   ar
     6    39    36    1
     7    35    33    1
     8    25    24    1
     9    24    23    3
    10    33    29    1
    11     8     7    1
    12    23    15    1
    13     4    17    1
    14     4     3   ar
    15     2     7    1
    16     2     3   ar
    17    17    15   ar
    18    17    20   ar
    19    15    16   ar
    20    22    20    1
    21    38    36    1
    22    20    21   ar
    23    29    28   ar
    24    29    30   ar
    25    16    18   ar
    26    16    19    1
    27    21    27    1
    28    21    18   ar
    29    27    26    3
    30    18    28    1
    31    36    30    1
    32    36    37    1
    33    28    32   ar
    34     7     9    1
    35    30    31   ar
    36     3    10    1
    37    32    31   ar
    38    31    40    1
    39    45    44    1
    40    44    40   ar
    41    44    43   ar
    42    40    41   ar
    43    10    11    1
    44    43    46    1
    45    43    42   ar
    46    41    47    1
    47    41    42   ar
    48    42    48    1
    49    11    14    1
    50    11    13    1
    51    11    12    1
