@<TRIPOS>MOLECULE
mol_data/opt/b3lyp/geoms/mol2/12ia13di-6el4li-.out
 50 53 0 0 0
SMALL
GASTEIGER

@<TRIPOS>ATOM
      1 C           0.6532    1.6023   -0.2124 C.ar    1  LIG1        0.0956
      2 C           1.9367    1.7708    0.2166 C.ar    1  LIG1       -0.0120
      3 C           2.1203    3.1902    0.3233 C.ar    1  LIG1       -0.0098
      4 C           0.9332    3.7733   -0.0525 C.ar    1  LIG1        0.1719
      5 O           0.0270    2.8053   -0.3861 O.2     1  LIG1       -0.4595
      6 H           0.0572    0.7291   -0.4278 H       1  LIG1        0.1032
      7 C           2.9391    0.6997    0.5248 C.3     1  LIG1       -0.0367
      8 H           3.2794    0.7584    1.5648 H       1  LIG1        0.0278
      9 H           3.8274    0.7867   -0.1112 H       1  LIG1        0.0278
     10 H           2.5147   -0.2961    0.3693 H       1  LIG1        0.0278
     11 H           2.9961    3.7090    0.6863 H       1  LIG1        0.0659
     12 C           0.5312    5.1447   -0.1609 C.ar    1  LIG1        0.1948
     13 C           1.2771    6.3036   -0.1837 C.ar    1  LIG1        0.1169
     14 C           0.3389    7.3734   -0.3016 C.ar    1  LIG1        0.1846
     15 C          -0.9252    6.8109   -0.3730 C.ar    1  LIG1        0.1807
     16 O          -0.8028    5.4405   -0.2823 O.2     1  LIG1       -0.4460
     17 N           2.6576    6.4628   -0.0606 N.pl3   1  LIG1       -0.3521
     18 H           3.1895    5.7529   -0.5524 H       1  LIG1        0.1425
     19 H           2.9505    7.3925   -0.3391 H       1  LIG1        0.1425
     20 O           0.7381    8.6642   -0.3056 O.3     1  LIG1       -0.5020
     21 H          -0.0230    9.2102   -0.6219 H       1  LIG1        0.2924
     22 C          -2.5826    8.6199   -0.9252 C.ar    1  LIG1        0.0361
     23 C          -3.8689    9.1411   -0.8189 C.ar    1  LIG1       -0.0313
     24 C          -2.2731    7.3492   -0.3805 C.ar    1  LIG1        0.0428
     25 C          -4.9222    8.4341   -0.2268 C.ar    1  LIG1        0.0049
     26 H          -4.0732   10.1224   -1.2338 H       1  LIG1        0.0643
     27 C          -3.3289    6.6169    0.1787 C.ar    1  LIG1       -0.0312
     28 C          -4.6281    7.1352    0.2605 C.ar    1  LIG1        0.0604
     29 H          -3.1235    5.6354    0.5887 H       1  LIG1        0.0638
     30 N          -1.5552    9.3569   -1.5850 N.pl3   1  LIG1       -0.3574
     31 H          -1.1543    8.8153   -2.3501 H       1  LIG1        0.1423
     32 H          -1.9007   10.2365   -1.9558 H       1  LIG1        0.1423
     33 N          -6.3934    5.6175    1.4148 N.1     1  LIG1       -0.1908
     34 C          -5.6200    6.3175    0.8983 C.1     1  LIG1        0.0998
     35 C          -6.5212   10.3345    0.2739 C.ar    1  LIG1        0.1280
     36 C          -7.8239   10.8424    0.2947 C.ar    1  LIG1       -0.0159
     37 C          -6.2890    9.0153   -0.1821 C.ar    1  LIG1        0.0285
     38 C          -8.9021   10.0657   -0.1258 C.ar    1  LIG1       -0.0167
     39 H          -8.0132   11.8486    0.6478 H       1  LIG1        0.0655
     40 C          -7.3872    8.2572   -0.6099 C.ar    1  LIG1       -0.0089
     41 C          -8.6871    8.7645   -0.5766 C.ar    1  LIG1        0.1177
     42 H          -7.2187    7.2504   -0.9803 H       1  LIG1        0.0661
     43 H          -9.9125   10.4595   -0.1035 H       1  LIG1        0.0655
     44 O          -5.4246   11.0467    0.6892 O.3     1  LIG1       -0.4945
     45 C          -5.6324   12.3164    1.2856 C.3     1  LIG1        0.0788
     46 H          -4.6466   12.6675    1.5944 H       1  LIG1        0.0660
     47 H          -6.0641   13.0357    0.5771 H       1  LIG1        0.0660
     48 H          -6.2831   12.2478    2.1664 H       1  LIG1        0.0660
     49 O          -9.7737    8.0407   -0.9872 O.3     1  LIG1       -0.5067
     50 H          -9.5015    7.1281   -1.1503 H       1  LIG1        0.2921
@<TRIPOS>BOND
     1    31    30    1
     2    32    30    1
     3    30    22    1
     4    26    23    1
     5    50    49    1
     6    49    41    1
     7    42    40    1
     8    22    23   ar
     9    22    24   ar
    10    23    25   ar
    11    21    20    1
    12    40    41   ar
    13    40    37   ar
    14    41    38   ar
    15    18    17    1
    16     6     1    1
    17     5     1   ar
    18     5     4   ar
    19    24    15    1
    20    24    27   ar
    21    15    14   ar
    22    15    16   ar
    23    19    17    1
    24    20    14    1
    25    14    13   ar
    26    16    12   ar
    27    25    37    1
    28    25    28   ar
    29     1     2   ar
    30    13    12   ar
    31    13    17    1
    32    37    35   ar
    33    12     4    1
    34    38    43    1
    35    38    36   ar
    36     9     7    1
    37     4     3   ar
    38    27    28   ar
    39    27    29    1
    40     2     3   ar
    41     2     7    1
    42    28    34    1
    43    35    36   ar
    44    35    44    1
    45    36    39    1
    46     3    11    1
    47    10     7    1
    48     7     8    1
    49    47    45    1
    50    44    45    1
    51    34    33    3
    52    45    46    1
    53    45    48    1
