@<TRIPOS>MOLECULE
mol_data/opt/b3lyp/geoms/mol2/12ia12ia12ia-12ia.out
 42 45 0 0 0
SMALL
GASTEIGER

@<TRIPOS>ATOM
      1 C           0.3504    1.6696    0.0305 C.ar    1  LIG1        0.0956
      2 C           1.7114    1.7561    0.0272 C.ar    1  LIG1       -0.0120
      3 C           2.0047    3.1601    0.0093 C.ar    1  LIG1       -0.0099
      4 C           0.7986    3.8201    0.0027 C.ar    1  LIG1        0.1702
      5 O          -0.2231    2.9095    0.0157 O.2     1  LIG1       -0.4596
      6 H          -0.3348    0.8362    0.0423 H       1  LIG1        0.1032
      7 C           2.6938    0.6239    0.0403 C.3     1  LIG1       -0.0367
      8 H           3.3446    0.6689    0.9209 H       1  LIG1        0.0278
      9 H           3.3423    0.6464   -0.8428 H       1  LIG1        0.0278
     10 H           2.1829   -0.3429    0.0533 H       1  LIG1        0.0278
     11 H           2.9845    3.6137    0.0037 H       1  LIG1        0.0659
     12 C           0.4422    5.2109   -0.0157 C.ar    1  LIG1        0.1736
     13 C           1.1901    6.3708   -0.0469 C.ar    1  LIG1       -0.0009
     14 C           0.2475    7.4391   -0.0528 C.ar    1  LIG1       -0.0091
     15 C          -1.0068    6.8766   -0.0245 C.ar    1  LIG1        0.1713
     16 O          -0.8959    5.5145   -0.0015 O.2     1  LIG1       -0.4484
     17 C           2.6845    6.4879   -0.0713 C.3     1  LIG1       -0.0360
     18 H           2.9895    7.5365   -0.1103 H       1  LIG1        0.0279
     19 H           3.1162    5.9828   -0.9436 H       1  LIG1        0.0279
     20 H           3.1409    6.0418    0.8206 H       1  LIG1        0.0279
     21 H           0.4687    8.4960   -0.0786 H       1  LIG1        0.0659
     22 C          -2.3252    7.4406   -0.0157 C.ar    1  LIG1        0.1736
     23 C          -3.6050    6.9245   -0.0073 C.ar    1  LIG1       -0.0009
     24 C          -4.4753    8.0564   -0.0033 C.ar    1  LIG1       -0.0091
     25 C          -3.6882    9.1797   -0.0098 C.ar    1  LIG1        0.1712
     26 O          -2.3690    8.8172   -0.0192 O.2     1  LIG1       -0.4484
     27 C          -4.0320    5.4864   -0.0039 C.3     1  LIG1       -0.0360
     28 H          -3.1775    4.8102   -0.0158 H       1  LIG1        0.0279
     29 H          -4.6567    5.2654   -0.8772 H       1  LIG1        0.0279
     30 H          -4.6333    5.2621    0.8849 H       1  LIG1        0.0279
     31 H          -5.5554    8.0434    0.0053 H       1  LIG1        0.0659
     32 C          -4.0016   10.5819   -0.0106 C.ar    1  LIG1        0.1726
     33 C          -3.2585   11.7416    0.0386 C.ar    1  LIG1       -0.0017
     34 C          -4.2179   12.8084    0.0043 C.ar    1  LIG1       -0.0203
     35 C          -5.4495   12.2357   -0.0588 C.ar    1  LIG1        0.0930
     36 O          -5.3423   10.8786   -0.0690 O.2     1  LIG1       -0.4596
     37 H          -6.4536   12.6282   -0.0973 H       1  LIG1        0.1029
     38 C          -1.7677   11.8924    0.1008 C.3     1  LIG1       -0.0360
     39 H          -1.4919   12.7417    0.7342 H       1  LIG1        0.0279
     40 H          -1.3426   12.0779   -0.8936 H       1  LIG1        0.0279
     41 H          -1.2910   10.9958    0.4994 H       1  LIG1        0.0279
     42 H          -4.0013   13.8673    0.0297 H       1  LIG1        0.0652
@<TRIPOS>BOND
     1    19    17    1
     2    40    38    1
     3    29    27    1
     4     9     7    1
     5    18    17    1
     6    37    35    1
     7    21    14    1
     8    17    13    1
     9    17    20    1
    10    36    35   ar
    11    36    32   ar
    12    35    34   ar
    13    14    13   ar
    14    14    15   ar
    15    13    12   ar
    16    15    22    1
    17    15    16   ar
    18    26    22   ar
    19    26    25   ar
    20    28    27    1
    21    12    16   ar
    22    12     4    1
    23    22    23   ar
    24    32    25    1
    25    32    33   ar
    26    25    24   ar
    27    23    27    1
    28    23    24   ar
    29    27    30    1
    30    24    31    1
    31     4     3   ar
    32     4     5   ar
    33    11     3    1
    34    34    42    1
    35    34    33   ar
    36     3     2   ar
    37     5     1   ar
    38     2     1   ar
    39     2     7    1
    40     1     6    1
    41    33    38    1
    42     7    10    1
    43     7     8    1
    44    38    41    1
    45    38    39    1
