@<TRIPOS>MOLECULE
mol_data/opt/b3lyp/geoms/mol2/12ia13di12id-4hi-.out
 50 53 0 0 0
SMALL
GASTEIGER

@<TRIPOS>ATOM
      1 C           0.4359    1.9951   -1.5780 C.ar    1  LIG1        0.0955
      2 C           1.7222    1.8722   -1.1405 C.ar    1  LIG1       -0.0121
      3 C           2.0390    3.1242   -0.5157 C.ar    1  LIG1       -0.0115
      4 C           0.9232    3.9123   -0.6199 C.ar    1  LIG1        0.1524
      5 O          -0.0720    3.2279   -1.2734 O.2     1  LIG1       -0.4612
      6 H          -0.2327    1.3278   -2.0994 H       1  LIG1        0.1032
      7 C           2.6197    0.6798   -1.2806 C.3     1  LIG1       -0.0367
      8 H           2.9439    0.3101   -0.3018 H       1  LIG1        0.0278
      9 H           3.5230    0.9272   -1.8488 H       1  LIG1        0.0278
     10 H           2.1128   -0.1398   -1.7972 H       1  LIG1        0.0278
     11 H           2.9721    3.4034   -0.0480 H       1  LIG1        0.0658
     12 C           0.5982    5.2488   -0.2024 C.ar    1  LIG1        0.1004
     13 C           1.3514    6.2186    0.4759 C.ar    1  LIG1        0.0836
     14 C           0.5328    7.3797    0.6570 C.ar    1  LIG1       -0.0041
     15 C          -0.6908    7.0919    0.0653 C.ar    1  LIG1        0.0871
     16 N          -0.6251    5.8008   -0.4377 N.ar    1  LIG1       -0.3481
     17 H          -1.3834    5.3203   -0.8979 H       1  LIG1        0.1661
     18 N           3.7789    5.9176    1.3022 N.1     1  LIG1       -0.1908
     19 C           2.6830    6.0561    0.9292 C.1     1  LIG1        0.1017
     20 C           0.9318    8.6122    1.4096 C.3     1  LIG1       -0.0364
     21 H           0.0541    9.1431    1.7859 H       1  LIG1        0.0279
     22 H           1.5060    9.3101    0.7892 H       1  LIG1        0.0279
     23 H           1.5640    8.3499    2.2630 H       1  LIG1        0.0279
     24 C          -1.9120    7.8556   -0.0621 C.ar    1  LIG1        0.1562
     25 C          -2.2097    9.1668   -0.3147 C.ar    1  LIG1        0.0148
     26 C          -3.6548    9.2390   -0.3243 C.ar    1  LIG1        0.1010
     27 C          -4.1471    7.9585   -0.1162 C.ar    1  LIG1        0.1551
     28 O          -3.0810    7.1221    0.0454 O.2     1  LIG1       -0.4517
     29 C          -1.2803   10.3077   -0.5889 C.3     1  LIG1       -0.0348
     30 H          -1.6729   10.9359   -1.3942 H       1  LIG1        0.0279
     31 H          -0.2943    9.9444   -0.8856 H       1  LIG1        0.0279
     32 H          -1.1542   10.9537    0.2873 H       1  LIG1        0.0279
     33 N          -4.8989   11.4898   -0.5644 N.1     1  LIG1       -0.1907
     34 C          -4.3738   10.4565   -0.4503 C.1     1  LIG1        0.1032
     35 C          -6.5777    7.7158   -0.7748 C.ar    1  LIG1        0.0354
     36 C          -7.7990    7.0488   -0.5511 C.ar    1  LIG1       -0.0401
     37 C          -5.4634    7.3437    0.0213 C.ar    1  LIG1        0.0394
     38 C          -7.9134    6.0463    0.3971 C.ar    1  LIG1       -0.0571
     39 H          -8.6619    7.3295   -1.1496 H       1  LIG1        0.0636
     40 C          -5.6106    6.3038    0.9643 C.ar    1  LIG1       -0.0464
     41 C          -6.8146    5.6443    1.1768 C.ar    1  LIG1       -0.0497
     42 H          -4.7411    6.0277    1.5528 H       1  LIG1        0.0628
     43 H          -8.8752    5.5578    0.5342 H       1  LIG1        0.0621
     44 N          -6.5116    8.7055   -1.7341 N.pl3   1  LIG1       -0.3574
     45 H          -5.6079    8.9600   -2.1006 H       1  LIG1        0.1423
     46 H          -7.2562    8.7308   -2.4136 H       1  LIG1        0.1423
     47 C          -6.9503    4.5543    2.2132 C.3     1  LIG1       -0.0397
     48 H          -5.9819    4.3028    2.6540 H       1  LIG1        0.0278
     49 H          -7.3677    3.6377    1.7810 H       1  LIG1        0.0278
     50 H          -7.6165    4.8560    3.0304 H       1  LIG1        0.0278
@<TRIPOS>BOND
     1    46    44    1
     2    45    44    1
     3     6     1    1
     4     9     7    1
     5    10     7    1
     6    44    35    1
     7     1     5   ar
     8     1     2   ar
     9    30    29    1
    10     7     2    1
    11     7     8    1
    12     5     4   ar
    13    39    36    1
    14     2     3   ar
    15    17    16    1
    16    31    29    1
    17    35    36   ar
    18    35    37   ar
    19     4     3   ar
    20     4    12    1
    21    29    25    1
    22    29    32    1
    23    33    34    3
    24    36    38   ar
    25     3    11    1
    26    34    26    1
    27    16    12   ar
    28    16    15   ar
    29    26    25   ar
    30    26    27   ar
    31    25    24   ar
    32    12    13   ar
    33    27    37    1
    34    27    28   ar
    35    24    28   ar
    36    24    15    1
    37    37    40   ar
    38    15    14   ar
    39    38    43    1
    40    38    41   ar
    41    13    14   ar
    42    13    19    1
    43    14    20    1
    44    22    20    1
    45    19    18    3
    46    40    41   ar
    47    40    42    1
    48    41    47    1
    49    20    21    1
    50    20    23    1
    51    49    47    1
    52    47    48    1
    53    47    50    1
