@<TRIPOS>MOLECULE
mol_data/opt/b3lyp/geoms/mol2/12ia13fl6le12ih.out
 52 55 0 0 0
SMALL
GASTEIGER

@<TRIPOS>ATOM
      1 C           0.5024    1.6218   -0.0125 C.ar    1  LIG1        0.0955
      2 C           1.7738    1.6894    0.4711 C.ar    1  LIG1       -0.0121
      3 C           2.0512    3.0906    0.6305 C.ar    1  LIG1       -0.0114
      4 C           0.9286    3.7701    0.2228 C.ar    1  LIG1        0.1548
      5 O          -0.0296    2.8752   -0.1771 O.2     1  LIG1       -0.4611
      6 H          -0.1438    0.7993   -0.2770 H       1  LIG1        0.1032
      7 C           2.6863    0.5433    0.7883 C.3     1  LIG1       -0.0367
      8 H           2.9903    0.5550    1.8410 H       1  LIG1        0.0278
      9 H           3.6018    0.5823    0.1872 H       1  LIG1        0.0278
     10 H           2.2000   -0.4164    0.5925 H       1  LIG1        0.0278
     11 H           2.9393    3.5284    1.0648 H       1  LIG1        0.0658
     12 C           0.6088    5.1656    0.1262 C.ar    1  LIG1        0.1283
     13 C           1.4680    6.2654    0.1153 C.ar    1  LIG1        0.1881
     14 C           0.6752    7.4291   -0.0043 C.ar    1  LIG1        0.1876
     15 C          -0.6722    7.0263   -0.0642 C.ar    1  LIG1        0.0981
     16 N          -0.6698    5.6510    0.0168 N.ar    1  LIG1       -0.3457
     17 H          -1.5123    5.0989   -0.0333 H       1  LIG1        0.1662
     18 O           2.8365    6.2438    0.1938 O.3     1  LIG1       -0.5018
     19 H           3.1435    5.4054   -0.1816 H       1  LIG1        0.2924
     20 O           1.1031    8.7281   -0.0061 O.3     1  LIG1       -0.4895
     21 C           2.1168    9.0390   -0.9700 C.3     1  LIG1        0.0791
     22 H           2.3214   10.1056   -0.8603 H       1  LIG1        0.0660
     23 H           3.0286    8.4655   -0.7830 H       1  LIG1        0.0660
     24 H           1.7617    8.8380   -1.9884 H       1  LIG1        0.0660
     25 C          -3.1952    7.2616   -0.3165 C.ar    1  LIG1        0.2247
     26 C          -1.8883    7.8176   -0.1708 C.ar    1  LIG1        0.0647
     27 C          -1.8569    9.2148   -0.1548 C.ar    1  LIG1       -0.0298
     28 C          -3.0261    9.9894   -0.2690 C.ar    1  LIG1        0.0545
     29 C          -4.2635    9.3116   -0.3521 C.ar    1  LIG1        0.1254
     30 N          -4.3037    7.9639   -0.3899 N.ar    1  LIG1       -0.2080
     31 H          -0.9011    9.7144   -0.0700 H       1  LIG1        0.0639
     32 O          -3.3022    5.9028   -0.3708 O.3     1  LIG1       -0.4792
     33 C          -4.6203    5.3560   -0.5214 C.3     1  LIG1        0.0804
     34 H          -4.4784    4.2752   -0.5579 H       1  LIG1        0.0660
     35 H          -5.2556    5.6331    0.3231 H       1  LIG1        0.0660
     36 H          -5.0874    5.7147   -1.4413 H       1  LIG1        0.0660
     37 C          -2.8994   11.4077   -0.3728 C.1     1  LIG1       -0.0674
     38 C          -2.7265   12.6010   -0.4832 C.1     1  LIG1       -0.1138
     39 H          -2.5854   13.6513   -0.5898 H       1  LIG1        0.1232
     40 C          -5.5581    9.9895   -0.4148 C.ar    1  LIG1        0.1589
     41 C          -6.1180   11.0417    0.2739 C.ar    1  LIG1        0.0175
     42 C          -7.4616   11.1647   -0.2277 C.ar    1  LIG1        0.0664
     43 C          -7.6188   10.1811   -1.1630 C.ar    1  LIG1        0.1135
     44 O          -6.4742    9.4450   -1.2744 O.2     1  LIG1       -0.4592
     45 H          -8.4412    9.8845   -1.7950 H       1  LIG1        0.1049
     46 C          -5.5572   11.8557    1.3978 C.3     1  LIG1       -0.0343
     47 H          -6.3288   12.0156    2.1593 H       1  LIG1        0.0279
     48 H          -5.2035   12.8385    1.0633 H       1  LIG1        0.0279
     49 H          -4.7065   11.3586    1.8684 H       1  LIG1        0.0279
     50 N          -8.4116   12.0719    0.2698 N.pl3   1  LIG1       -0.3553
     51 H          -8.0423   13.0119    0.3609 H       1  LIG1        0.1424
     52 H          -9.2590   12.0987   -0.2849 H       1  LIG1        0.1424
@<TRIPOS>BOND
     1    24    21    1
     2    45    43    1
     3    36    33    1
     4    44    43   ar
     5    44    40   ar
     6    43    42   ar
     7    21    22    1
     8    21    23    1
     9    21    20    1
    10    39    38    1
    11    34    33    1
    12    33    32    1
    13    33    35    1
    14    38    37    3
    15    40    29    1
    16    40    41   ar
    17    30    29   ar
    18    30    25   ar
    19    37    28    1
    20    32    25    1
    21    29    28   ar
    22    25    26   ar
    23    52    50    1
    24     6     1    1
    25    28    27   ar
    26    42    50    1
    27    42    41   ar
    28    19    18    1
    29     5     1   ar
    30     5     4   ar
    31    26    27   ar
    32    26    15    1
    33    27    31    1
    34    15    14   ar
    35    15    16   ar
    36    17    16    1
    37     1     2   ar
    38    20    14    1
    39    14    13   ar
    40    16    12   ar
    41    13    12   ar
    42    13    18    1
    43    12     4    1
    44     9     7    1
    45     4     3   ar
    46    50    51    1
    47    41    46    1
    48     2     3   ar
    49     2     7    1
    50    10     7    1
    51     3    11    1
    52     7     8    1
    53    48    46    1
    54    46    49    1
    55    46    47    1
