@<TRIPOS>MOLECULE
mol_data/opt/b3lyp/geoms/mol2/12ia12ia-12ia-12ia.out
 42 45 0 0 0
SMALL
GASTEIGER

@<TRIPOS>ATOM
      1 C           0.0263    1.7371   -0.0146 C.ar    1  LIG1        0.0956
      2 C           1.3895    1.7126   -0.0160 C.ar    1  LIG1       -0.0120
      3 C           1.7982    3.0879   -0.0048 C.ar    1  LIG1       -0.0099
      4 C           0.6538    3.8436    0.0024 C.ar    1  LIG1        0.1702
      5 O          -0.4428    3.0230   -0.0046 O.2     1  LIG1       -0.4596
      6 H          -0.7264    0.9641   -0.0208 H       1  LIG1        0.1032
      7 C           2.2748    0.5030   -0.0269 C.3     1  LIG1       -0.0367
      8 H           2.9259    0.4771    0.8541 H       1  LIG1        0.0278
      9 H           2.9245    0.4920   -0.9093 H       1  LIG1        0.0278
     10 H           1.6868   -0.4190   -0.0342 H       1  LIG1        0.0278
     11 H           2.8077    3.4716   -0.0015 H       1  LIG1        0.0659
     12 C           0.4348    5.2642    0.0146 C.ar    1  LIG1        0.1736
     13 C          -0.6774    6.0792    0.0463 C.ar    1  LIG1       -0.0009
     14 C          -0.1744    7.4153    0.0436 C.ar    1  LIG1       -0.0091
     15 C           1.1988    7.3376    0.0116 C.ar    1  LIG1        0.1713
     16 O           1.5796    6.0242   -0.0065 O.2     1  LIG1       -0.4484
     17 C          -2.1244    5.6848    0.0723 C.3     1  LIG1       -0.0360
     18 H          -2.2448    4.6137    0.2336 H       1  LIG1        0.0279
     19 H          -2.6195    5.9409   -0.8722 H       1  LIG1        0.0279
     20 H          -2.6569    6.2160    0.8690 H       1  LIG1        0.0279
     21 H          -0.7644    8.3193    0.0694 H       1  LIG1        0.0659
     22 C           2.2354    8.3264   -0.0043 C.ar    1  LIG1        0.1736
     23 C           2.2139    9.7078   -0.0237 C.ar    1  LIG1       -0.0009
     24 C           3.5786   10.1156   -0.0305 C.ar    1  LIG1       -0.0091
     25 C           4.3450    8.9753   -0.0159 C.ar    1  LIG1        0.1712
     26 O           3.5327    7.8771    0.0002 O.2     1  LIG1       -0.4484
     27 C           1.0075   10.5975   -0.0360 C.3     1  LIG1       -0.0360
     28 H           0.4032   10.4751    0.8711 H       1  LIG1        0.0279
     29 H           0.3555   10.3832   -0.8912 H       1  LIG1        0.0279
     30 H           1.3025   11.6478   -0.0979 H       1  LIG1        0.0279
     31 H           3.9521   11.1289   -0.0456 H       1  LIG1        0.0659
     32 C           5.7659    8.7609   -0.0149 C.ar    1  LIG1        0.1726
     33 C           6.5805    7.6494   -0.0013 C.ar    1  LIG1       -0.0017
     34 C           7.9214    8.1631   -0.0091 C.ar    1  LIG1       -0.0203
     35 C           7.8295    9.5192   -0.0265 C.ar    1  LIG1        0.0930
     36 O           6.5244    9.9076   -0.0303 O.2     1  LIG1       -0.4596
     37 H           8.5568   10.3159   -0.0374 H       1  LIG1        0.1029
     38 C           6.1898    6.2015    0.0178 C.3     1  LIG1       -0.0360
     39 H           6.5923    5.7001    0.9060 H       1  LIG1        0.0279
     40 H           6.5928    5.6768   -0.8565 H       1  LIG1        0.0279
     41 H           5.1069    6.0774    0.0192 H       1  LIG1        0.0279
     42 H           8.8323    7.5807   -0.0024 H       1  LIG1        0.0652
@<TRIPOS>BOND
     1     9     7    1
     2    29    27    1
     3    19    17    1
     4    40    38    1
     5    30    27    1
     6    31    24    1
     7    37    35    1
     8    27    23    1
     9    27    28    1
    10    10     7    1
    11    24    23   ar
    12    24    25   ar
    13    36    35   ar
    14    36    32   ar
    15     7     2    1
    16     7     8    1
    17    35    34   ar
    18    23    22   ar
    19     6     1    1
    20     2     1   ar
    21     2     3   ar
    22    25    32    1
    23    25    26   ar
    24    32    33   ar
    25     1     5   ar
    26    34    42    1
    27    34    33   ar
    28    16    15   ar
    29    16    12   ar
    30     3    11    1
    31     3     4   ar
    32     5     4   ar
    33    22    26   ar
    34    22    15    1
    35    33    38    1
    36     4    12    1
    37    15    14   ar
    38    12    13   ar
    39    38    41    1
    40    38    39    1
    41    14    13   ar
    42    14    21    1
    43    13    17    1
    44    17    18    1
    45    17    20    1
