@<TRIPOS>MOLECULE
mol_data/opt/b3lyp/geoms/mol2/12ia12ia-12ia12ia.out
 42 45 0 0 0
SMALL
GASTEIGER

@<TRIPOS>ATOM
      1 C           0.2176    1.7106   -0.0018 C.ar    1  LIG1        0.0956
      2 C           1.5790    1.7564   -0.0529 C.ar    1  LIG1       -0.0120
      3 C           1.9164    3.1510   -0.0538 C.ar    1  LIG1       -0.0099
      4 C           0.7356    3.8473   -0.0027 C.ar    1  LIG1        0.1702
      5 O          -0.3161    2.9707    0.0302 O.2     1  LIG1       -0.4596
      6 H          -0.4942    0.9000    0.0178 H       1  LIG1        0.1032
      7 C           2.5248    0.5942   -0.0997 C.3     1  LIG1       -0.0367
      8 H           3.2073    0.6002    0.7577 H       1  LIG1        0.0278
      9 H           3.1424    0.6186   -1.0046 H       1  LIG1        0.0278
     10 H           1.9854   -0.3570   -0.0897 H       1  LIG1        0.0278
     11 H           2.9051    3.5842   -0.0915 H       1  LIG1        0.0659
     12 C           0.4440    5.2548    0.0203 C.ar    1  LIG1        0.1736
     13 C          -0.7069    6.0150    0.0383 C.ar    1  LIG1       -0.0009
     14 C          -0.2718    7.3748    0.0501 C.ar    1  LIG1       -0.0091
     15 C           1.1004    7.3649    0.0384 C.ar    1  LIG1        0.1713
     16 O           1.5514    6.0724    0.0187 O.2     1  LIG1       -0.4484
     17 C          -2.1324    5.5485    0.0458 C.3     1  LIG1       -0.0360
     18 H          -2.1997    4.4624   -0.0102 H       1  LIG1        0.0279
     19 H          -2.6844    5.9715   -0.8013 H       1  LIG1        0.0279
     20 H          -2.6453    5.8752    0.9581 H       1  LIG1        0.0279
     21 H          -0.8955    8.2566    0.0669 H       1  LIG1        0.0659
     22 C           2.0792    8.4108    0.0427 C.ar    1  LIG1        0.1736
     23 C           3.4586    8.4394    0.0913 C.ar    1  LIG1       -0.0009
     24 C           3.8120    9.8208    0.0728 C.ar    1  LIG1       -0.0091
     25 C           2.6433   10.5449    0.0165 C.ar    1  LIG1        0.1712
     26 O           1.5786    9.6883   -0.0025 O.2     1  LIG1       -0.4484
     27 C           4.4070    7.2784    0.1426 C.3     1  LIG1       -0.0360
     28 H           5.3618    7.5819    0.5816 H       1  LIG1        0.0279
     29 H           4.6154    6.8846   -0.8597 H       1  LIG1        0.0279
     30 H           4.0005    6.4554    0.7344 H       1  LIG1        0.0279
     31 H           4.8138   10.2220    0.1090 H       1  LIG1        0.0659
     32 C           2.3639   11.9530   -0.0222 C.ar    1  LIG1        0.1726
     33 C           3.1836   13.0623   -0.0627 C.ar    1  LIG1       -0.0017
     34 C           2.2991   14.1881   -0.0844 C.ar    1  LIG1       -0.0203
     35 C           1.0298   13.6964   -0.0578 C.ar    1  LIG1        0.0930
     36 O           1.0478   12.3363   -0.0196 O.2     1  LIG1       -0.4596
     37 H           0.0529   14.1535   -0.0621 H       1  LIG1        0.1029
     38 C           4.6822   13.0908   -0.0813 C.3     1  LIG1       -0.0360
     39 H           5.0483   14.1144   -0.1938 H       1  LIG1        0.0279
     40 H           5.0886   12.4992   -0.9103 H       1  LIG1        0.0279
     41 H           5.1095   12.6867    0.8448 H       1  LIG1        0.0279
     42 H           2.5865   15.2298   -0.1180 H       1  LIG1        0.0652
@<TRIPOS>BOND
     1     9     7    1
     2    40    38    1
     3    29    27    1
     4    19    17    1
     5    39    38    1
     6    42    34    1
     7     7    10    1
     8     7     2    1
     9     7     8    1
    10    11     3    1
    11    34    33   ar
    12    34    35   ar
    13    38    33    1
    14    38    41    1
    15    33    32   ar
    16    37    35    1
    17    35    36   ar
    18     3     2   ar
    19     3     4   ar
    20     2     1   ar
    21    32    36   ar
    22    32    25    1
    23    18    17    1
    24     4    12    1
    25     4     5   ar
    26    26    25   ar
    27    26    22   ar
    28     1     6    1
    29     1     5   ar
    30    25    24   ar
    31    16    12   ar
    32    16    15   ar
    33    12    13   ar
    34    13    17    1
    35    13    14   ar
    36    15    22    1
    37    15    14   ar
    38    22    23   ar
    39    17    20    1
    40    14    21    1
    41    24    23   ar
    42    24    31    1
    43    23    27    1
    44    27    28    1
    45    27    30    1
