@<TRIPOS>MOLECULE
mol_data/opt/b3lyp/geoms/mol2/12ia12ia-12ia12ia-.out
 42 45 0 0 0
SMALL
GASTEIGER

@<TRIPOS>ATOM
      1 C           0.2179    1.7167    0.0223 C.ar    1  LIG1        0.0956
      2 C           1.5804    1.7521   -0.0047 C.ar    1  LIG1       -0.0120
      3 C           1.9280    3.1442   -0.0154 C.ar    1  LIG1       -0.0099
      4 C           0.7517    3.8493    0.0064 C.ar    1  LIG1        0.1702
      5 O          -0.3070    2.9809    0.0301 O.2     1  LIG1       -0.4596
      6 H          -0.5001    0.9116    0.0384 H       1  LIG1        0.1032
      7 C           2.5177    0.5824   -0.0210 C.3     1  LIG1       -0.0367
      8 H           3.1852    0.5934    0.8480 H       1  LIG1        0.0278
      9 H           3.1512    0.5911   -0.9152 H       1  LIG1        0.0278
     10 H           1.9707   -0.3644   -0.0092 H       1  LIG1        0.0278
     11 H           2.9202    3.5701   -0.0391 H       1  LIG1        0.0659
     12 C           0.4701    5.2590    0.0082 C.ar    1  LIG1        0.1736
     13 C          -0.6749    6.0279    0.0039 C.ar    1  LIG1       -0.0009
     14 C          -0.2294    7.3845    0.0043 C.ar    1  LIG1       -0.0091
     15 C           1.1432    7.3647    0.0093 C.ar    1  LIG1        0.1713
     16 O           1.5834    6.0683    0.0107 O.2     1  LIG1       -0.4484
     17 C          -2.1042    5.5730   -0.0009 C.3     1  LIG1       -0.0360
     18 H          -2.1796    4.4865   -0.0354 H       1  LIG1        0.0279
     19 H          -2.6400    5.9820   -0.8651 H       1  LIG1        0.0279
     20 H          -2.6283    5.9226    0.8964 H       1  LIG1        0.0279
     21 H          -0.8503    8.2684    0.0004 H       1  LIG1        0.0659
     22 C           2.1370    8.3954    0.0125 C.ar    1  LIG1        0.1736
     23 C           3.5173    8.3976    0.0452 C.ar    1  LIG1       -0.0009
     24 C           3.8992    9.7710    0.0278 C.ar    1  LIG1       -0.0091
     25 C           2.7477   10.5177   -0.0116 C.ar    1  LIG1        0.1712
     26 O           1.6618    9.6856   -0.0233 O.2     1  LIG1       -0.4484
     27 C           4.4391    7.2144    0.0808 C.3     1  LIG1       -0.0360
     28 H           5.4498    7.5255    0.3580 H       1  LIG1        0.0279
     29 H           4.4983    6.7207   -0.8963 H       1  LIG1        0.0279
     30 H           4.1004    6.4628    0.7988 H       1  LIG1        0.0279
     31 H           4.9054   10.1630    0.0488 H       1  LIG1        0.0659
     32 C           2.5131   11.9347   -0.0409 C.ar    1  LIG1        0.1726
     33 C           1.3901   12.7335   -0.0197 C.ar    1  LIG1       -0.0017
     34 C           1.8821   14.0807   -0.0727 C.ar    1  LIG1       -0.0203
     35 C           3.2391   14.0087   -0.1182 C.ar    1  LIG1        0.0930
     36 O           3.6467   12.7097   -0.1000 O.2     1  LIG1       -0.4596
     37 H           4.0243   14.7471   -0.1610 H       1  LIG1        0.1029
     38 C          -0.0500   12.3185    0.0339 C.3     1  LIG1       -0.0360
     39 H          -0.1601   11.3028    0.4157 H       1  LIG1        0.0279
     40 H          -0.5118   12.3498   -0.9610 H       1  LIG1        0.0279
     41 H          -0.6230   12.9940    0.6774 H       1  LIG1        0.0279
     42 H           1.2855   14.9822   -0.0709 H       1  LIG1        0.0652
@<TRIPOS>BOND
     1    40    38    1
     2     9     7    1
     3    29    27    1
     4    19    17    1
     5    37    35    1
     6    35    36   ar
     7    35    34   ar
     8    36    32   ar
     9    34    42    1
    10    34    33   ar
    11    32    33   ar
    12    32    25    1
    13    11     3    1
    14    18    17    1
    15    26    25   ar
    16    26    22   ar
    17     7    10    1
    18     7     2    1
    19     7     8    1
    20    33    38    1
    21     3     2   ar
    22     3     4   ar
    23    25    24   ar
    24     2     1   ar
    25    17    13    1
    26    17    20    1
    27    21    14    1
    28    13    14   ar
    29    13    12   ar
    30    14    15   ar
    31     4    12    1
    32     4     5   ar
    33    12    16   ar
    34    15    16   ar
    35    15    22    1
    36    22    23   ar
    37     1     5   ar
    38     1     6    1
    39    24    23   ar
    40    24    31    1
    41    38    39    1
    42    38    41    1
    43    23    27    1
    44    27    28    1
    45    27    30    1
