@<TRIPOS>MOLECULE
mol_data/opt/b3lyp/geoms/mol2/12ia12ia-12ia.out
 32 34 0 0 0
SMALL
GASTEIGER

@<TRIPOS>ATOM
      1 C           0.1766    1.7830    0.0780 C.ar    1  LIG1        0.0956
      2 C           1.5375    1.7998    0.0016 C.ar    1  LIG1       -0.0120
      3 C           1.9024    3.1871   -0.0391 C.ar    1  LIG1       -0.0099
      4 C           0.7371    3.9081    0.0165 C.ar    1  LIG1        0.1702
      5 O          -0.3310    3.0543    0.0894 O.2     1  LIG1       -0.4596
      6 H          -0.5508    0.9879    0.1298 H       1  LIG1        0.1032
      7 C           2.4592    0.6181   -0.0337 C.3     1  LIG1       -0.0367
      8 H           3.1571    0.6311    0.8110 H       1  LIG1        0.0278
      9 H           3.0605    0.6084   -0.9497 H       1  LIG1        0.0278
     10 H           1.9014   -0.3216    0.0090 H       1  LIG1        0.0278
     11 H           2.8988    3.5984   -0.1058 H       1  LIG1        0.0659
     12 C           0.4728    5.3218    0.0107 C.ar    1  LIG1        0.1736
     13 C          -0.6624    6.1038    0.0198 C.ar    1  LIG1       -0.0009
     14 C          -0.1997    7.4555   -0.0023 C.ar    1  LIG1       -0.0091
     15 C           1.1705    7.4185   -0.0238 C.ar    1  LIG1        0.1712
     16 O           1.5957    6.1182   -0.0177 O.2     1  LIG1       -0.4484
     17 C          -2.0967    5.6662    0.0468 C.3     1  LIG1       -0.0360
     18 H          -2.1853    4.5806    0.0162 H       1  LIG1        0.0279
     19 H          -2.6460    6.0804   -0.8064 H       1  LIG1        0.0279
     20 H          -2.5972    6.0234    0.9546 H       1  LIG1        0.0279
     21 H          -0.8068    8.3489   -0.0006 H       1  LIG1        0.0659
     22 C           2.1681    8.4527   -0.0518 C.ar    1  LIG1        0.1726
     23 C           3.5448    8.4729    0.0028 C.ar    1  LIG1       -0.0017
     24 C           3.9068    9.8600   -0.0689 C.ar    1  LIG1       -0.0203
     25 C           2.7506   10.5701   -0.1564 C.ar    1  LIG1        0.0930
     26 O           1.6771    9.7327   -0.1479 O.2     1  LIG1       -0.4596
     27 H           2.5251   11.6227   -0.2252 H       1  LIG1        0.1029
     28 C           4.4913    7.3140    0.1053 C.3     1  LIG1       -0.0360
     29 H           5.3469    7.5697    0.7385 H       1  LIG1        0.0279
     30 H           4.8883    7.0329   -0.8782 H       1  LIG1        0.0279
     31 H           4.0021    6.4341    0.5255 H       1  LIG1        0.0279
     32 H           4.9098   10.2632   -0.0504 H       1  LIG1        0.0652
@<TRIPOS>BOND
     1     9     7    1
     2    30    28    1
     3    19    17    1
     4    27    25    1
     5    25    26   ar
     6    25    24   ar
     7    26    22   ar
     8    11     3    1
     9    24    32    1
    10    24    23   ar
    11    22    15    1
    12    22    23   ar
    13     3     2   ar
    14     3     4   ar
    15     7     2    1
    16     7    10    1
    17     7     8    1
    18    15    16   ar
    19    15    14   ar
    20    16    12   ar
    21    14    21    1
    22    14    13   ar
    23     2     1   ar
    24    23    28    1
    25    12     4    1
    26    12    13   ar
    27    18    17    1
    28     4     5   ar
    29    13    17    1
    30    17    20    1
    31     1     5   ar
    32     1     6    1
    33    28    31    1
    34    28    29    1
