@<TRIPOS>MOLECULE
mol_data/opt/b3lyp/geoms/mol2/12ia12ia12ia.out
 32 34 0 0 0
SMALL
GASTEIGER

@<TRIPOS>ATOM
      1 C           0.3224    1.6875    0.2102 C.ar    1  LIG1        0.0956
      2 C           1.6714    1.7842    0.0329 C.ar    1  LIG1       -0.0120
      3 C           1.9385    3.1875   -0.0955 C.ar    1  LIG1       -0.0099
      4 C           0.7314    3.8360    0.0174 C.ar    1  LIG1        0.1702
      5 O          -0.2660    2.9192    0.2052 O.2     1  LIG1       -0.4596
      6 H          -0.3445    0.8503    0.3467 H       1  LIG1        0.1032
      7 C           2.6637    0.6620   -0.0228 C.3     1  LIG1       -0.0367
      8 H           3.4166    0.7531    0.7684 H       1  LIG1        0.0278
      9 H           3.1993    0.6485   -0.9788 H       1  LIG1        0.0278
     10 H           2.1717   -0.3073    0.0966 H       1  LIG1        0.0278
     11 H           2.9006    3.6477   -0.2644 H       1  LIG1        0.0659
     12 C           0.3602    5.2240   -0.0160 C.ar    1  LIG1        0.1736
     13 C           1.1051    6.3854   -0.0545 C.ar    1  LIG1       -0.0009
     14 C           0.1571    7.4489   -0.0828 C.ar    1  LIG1       -0.0091
     15 C          -1.0956    6.8799   -0.0528 C.ar    1  LIG1        0.1712
     16 O          -0.9775    5.5197   -0.0128 O.2     1  LIG1       -0.4484
     17 C           2.5989    6.5109   -0.0662 C.3     1  LIG1       -0.0360
     18 H           2.9019    7.5484    0.0969 H       1  LIG1        0.0279
     19 H           3.0289    6.1883   -1.0226 H       1  LIG1        0.0279
     20 H           3.0588    5.9001    0.7188 H       1  LIG1        0.0279
     21 H           0.3830    8.5039   -0.1263 H       1  LIG1        0.0659
     22 C          -2.4218    7.4330   -0.0475 C.ar    1  LIG1        0.1726
     23 C          -2.8879    8.7288    0.0374 C.ar    1  LIG1       -0.0017
     24 C          -4.3152    8.6239   -0.0163 C.ar    1  LIG1       -0.0203
     25 C          -4.6115    7.2995   -0.1247 C.ar    1  LIG1        0.0930
     26 O          -3.4714    6.5576   -0.1459 O.2     1  LIG1       -0.4596
     27 H          -5.5341    6.7447   -0.1909 H       1  LIG1        0.1029
     28 C          -2.0795    9.9847    0.1644 C.3     1  LIG1       -0.0360
     29 H          -2.7247   10.8397    0.3824 H       1  LIG1        0.0279
     30 H          -1.5303   10.2141   -0.7575 H       1  LIG1        0.0279
     31 H          -1.3414    9.9097    0.9713 H       1  LIG1        0.0279
     32 H          -5.0213    9.4414    0.0269 H       1  LIG1        0.0652
@<TRIPOS>BOND
     1    19    17    1
     2     9     7    1
     3    30    28    1
     4    11     3    1
     5    27    25    1
     6    26    25   ar
     7    26    22   ar
     8    21    14    1
     9    25    24   ar
    10     3     4   ar
    11     3     2   ar
    12    14    13   ar
    13    14    15   ar
    14    17    13    1
    15    17    18    1
    16    17    20    1
    17    13    12   ar
    18    15    22    1
    19    15    16   ar
    20    22    23   ar
    21     7     2    1
    22     7    10    1
    23     7     8    1
    24    24    32    1
    25    24    23   ar
    26    12    16   ar
    27    12     4    1
    28     4     5   ar
    29     2     1   ar
    30    23    28    1
    31    28    29    1
    32    28    31    1
    33     5     1   ar
    34     1     6    1
