@<TRIPOS>MOLECULE
mol_data/opt/b3lyp/geoms/mol2/12ia12ia-.out
 22 23 0 0 0
SMALL
GASTEIGER

@<TRIPOS>ATOM
      1 C           0.2181    1.8229    0.0670 C.ar    1  LIG1        0.0956
      2 C           1.5805    1.8368    0.0290 C.ar    1  LIG1       -0.0120
      3 C           1.9488    3.2236   -0.0152 C.ar    1  LIG1       -0.0099
      4 C           0.7844    3.9455   -0.0007 C.ar    1  LIG1        0.1702
      5 O          -0.2870    3.0952    0.0497 O.2     1  LIG1       -0.4596
      6 H          -0.5120    1.0296    0.1066 H       1  LIG1        0.1032
      7 C           2.5011    0.6537    0.0326 C.3     1  LIG1       -0.0367
      8 H           3.1761    0.6759    0.8956 H       1  LIG1        0.0278
      9 H           3.1271    0.6324   -0.8666 H       1  LIG1        0.0278
     10 H           1.9412   -0.2849    0.0713 H       1  LIG1        0.0278
     11 H           2.9466    3.6352   -0.0529 H       1  LIG1        0.0659
     12 C           0.5249    5.3630   -0.0283 C.ar    1  LIG1        0.1725
     13 C          -0.6065    6.1470   -0.0162 C.ar    1  LIG1       -0.0017
     14 C          -0.1303    7.5019   -0.0625 C.ar    1  LIG1       -0.0203
     15 C           1.2269    7.4459   -0.0986 C.ar    1  LIG1        0.0930
     16 O           1.6495    6.1515   -0.0787 O.2     1  LIG1       -0.4596
     17 H           2.0037    8.1933   -0.1382 H       1  LIG1        0.1029
     18 C          -2.0433    5.7201    0.0335 C.3     1  LIG1       -0.0360
     19 H          -2.1378    4.6349    0.0635 H       1  LIG1        0.0279
     20 H          -2.5912    6.0862   -0.8429 H       1  LIG1        0.0279
     21 H          -2.5436    6.1308    0.9185 H       1  LIG1        0.0279
     22 H          -0.7376    8.3964   -0.0676 H       1  LIG1        0.0652
@<TRIPOS>BOND
     1     9     7    1
     2    20    18    1
     3    17    15    1
     4    15    16   ar
     5    15    14   ar
     6    16    12   ar
     7    22    14    1
     8    14    13   ar
     9    11     3    1
    10    12    13   ar
    11    12     4    1
    12    13    18    1
    13     3     4   ar
    14     3     2   ar
    15     4     5   ar
    16     2     7    1
    17     2     1   ar
    18     7    10    1
    19     7     8    1
    20    18    19    1
    21    18    21    1
    22     5     1   ar
    23     1     6    1
