@<TRIPOS>MOLECULE
mol_data/opt/b3lyp/geoms/mol2/12ia12ia-12ia-12ia-.out
 42 45 0 0 0
SMALL
GASTEIGER

@<TRIPOS>ATOM
      1 C          -0.0179    1.7033    0.0165 C.ar    1  LIG1        0.0956
      2 C           1.3449    1.6603    0.0236 C.ar    1  LIG1       -0.0120
      3 C           1.7726    3.0298    0.0200 C.ar    1  LIG1       -0.0099
      4 C           0.6385    3.8005    0.0109 C.ar    1  LIG1        0.1702
      5 O          -0.4696    2.9954    0.0077 O.2     1  LIG1       -0.4596
      6 H          -0.7810    0.9405    0.0155 H       1  LIG1        0.1032
      7 C           2.2133    0.4384    0.0333 C.3     1  LIG1       -0.0367
      8 H           2.8591    0.4151    0.9182 H       1  LIG1        0.0278
      9 H           2.8678    0.4073   -0.8450 H       1  LIG1        0.0278
     10 H           1.6124   -0.4753    0.0343 H       1  LIG1        0.0278
     11 H           2.7867    3.4015    0.0245 H       1  LIG1        0.0659
     12 C           0.4420    5.2245    0.0042 C.ar    1  LIG1        0.1736
     13 C          -0.6565    6.0589    0.0145 C.ar    1  LIG1       -0.0009
     14 C          -0.1295    7.3855    0.0009 C.ar    1  LIG1       -0.0091
     15 C           1.2426    7.2825   -0.0159 C.ar    1  LIG1        0.1713
     16 O           1.5992    5.9633   -0.0142 O.2     1  LIG1       -0.4484
     17 C          -2.1102    5.6895    0.0305 C.3     1  LIG1       -0.0360
     18 H          -2.2494    4.6186    0.1772 H       1  LIG1        0.0279
     19 H          -2.5974    5.9671   -0.9121 H       1  LIG1        0.0279
     20 H          -2.6370    6.2186    0.8325 H       1  LIG1        0.0279
     21 H          -0.7034    8.3001    0.0075 H       1  LIG1        0.0659
     22 C           2.2961    8.2541   -0.0317 C.ar    1  LIG1        0.1736
     23 C           2.2877    9.6360   -0.0539 C.ar    1  LIG1       -0.0009
     24 C           3.6563   10.0277   -0.0624 C.ar    1  LIG1       -0.0091
     25 C           4.4119    8.8766   -0.0434 C.ar    1  LIG1        0.1712
     26 O           3.5852    7.7894   -0.0247 O.2     1  LIG1       -0.4484
     27 C           1.0923   10.5402   -0.0704 C.3     1  LIG1       -0.0360
     28 H           0.4737   10.4117    0.8261 H       1  LIG1        0.0279
     29 H           0.4498   10.3470   -0.9377 H       1  LIG1        0.0279
     30 H           1.4000   11.5881   -0.1125 H       1  LIG1        0.0279
     31 H           4.0294   11.0406   -0.0883 H       1  LIG1        0.0659
     32 C           5.8278    8.6364   -0.0361 C.ar    1  LIG1        0.1726
     33 C           6.9140    9.4857    0.0249 C.ar    1  LIG1       -0.0017
     34 C           8.0646    8.6341   -0.0074 C.ar    1  LIG1       -0.0203
     35 C           7.6085    7.3534   -0.0818 C.ar    1  LIG1        0.0930
     36 O           6.2483    7.3338   -0.1007 O.2     1  LIG1       -0.4596
     37 H           8.0929    6.3907   -0.1251 H       1  LIG1        0.1029
     38 C           6.9005   10.9822    0.1105 C.3     1  LIG1       -0.0360
     39 H           6.2869   11.3342    0.9482 H       1  LIG1        0.0279
     40 H           6.4981   11.4407   -0.8014 H       1  LIG1        0.0279
     41 H           7.9120   11.3705    0.2544 H       1  LIG1        0.0279
     42 H           9.0981    8.9497    0.0252 H       1  LIG1        0.0652
@<TRIPOS>BOND
     1    29    27    1
     2    19    17    1
     3     9     7    1
     4    40    38    1
     5    37    35    1
     6    30    27    1
     7    36    35   ar
     8    36    32   ar
     9    31    24    1
    10    35    34   ar
    11    27    23    1
    12    27    28    1
    13    24    23   ar
    14    24    25   ar
    15    23    22   ar
    16    25    32    1
    17    25    26   ar
    18    32    33   ar
    19    22    26   ar
    20    22    15    1
    21    15    16   ar
    22    15    14   ar
    23    16    12   ar
    24    34    33   ar
    25    34    42    1
    26    14    21    1
    27    14    13   ar
    28    12     4    1
    29    12    13   ar
    30     5     4   ar
    31     5     1   ar
    32     4     3   ar
    33    13    17    1
    34     6     1    1
    35     1     2   ar
    36     3     2   ar
    37     3    11    1
    38     2     7    1
    39    33    38    1
    40    17    18    1
    41    17    20    1
    42     7    10    1
    43     7     8    1
    44    38    41    1
    45    38    39    1
