@<TRIPOS>MOLECULE
mol_data/opt/b3lyp/geoms/mol2/12ia.out
 12 12 0 0 0
SMALL
GASTEIGER

@<TRIPOS>ATOM
      1 C           0.1575    1.9485    0.1206 C.ar    1  LIG1        0.0946
      2 C           1.5153    1.9260    0.0077 C.ar    1  LIG1       -0.0128
      3 C           1.9089    3.3084   -0.0959 C.ar    1  LIG1       -0.0210
      4 C           0.7665    4.0430   -0.0373 C.ar    1  LIG1        0.0919
      5 O          -0.3186    3.2291    0.0955 O.2     1  LIG1       -0.4708
      6 H          -0.5855    1.1725    0.2227 H       1  LIG1        0.1032
      7 H           0.5594    5.1013   -0.0739 H       1  LIG1        0.1029
      8 C           2.4081    0.7216   -0.0068 C.3     1  LIG1       -0.0367
      9 H           3.1308    0.7477    0.8168 H       1  LIG1        0.0278
     10 H           2.9825    0.6593   -0.9382 H       1  LIG1        0.0278
     11 H           1.8291   -0.2014    0.0885 H       1  LIG1        0.0278
     12 H           2.9148    3.6913   -0.1998 H       1  LIG1        0.0652
@<TRIPOS>BOND
     1    10     8    1
     2    12     3    1
     3     3     4   ar
     4     3     2   ar
     5     7     4    1
     6     4     5   ar
     7     8     2    1
     8     8    11    1
     9     8     9    1
    10     2     1   ar
    11     5     1   ar
    12     1     6    1
