@<TRIPOS>MOLECULE
mol_data/opt/b3lyp/geoms/mol2/12ia12ia12ia-12ia-.out
 42 45 0 0 0
SMALL
GASTEIGER

@<TRIPOS>ATOM
      1 C           0.3555    1.6673   -0.0173 C.ar    1  LIG1        0.0956
      2 C           1.7170    1.7444   -0.0084 C.ar    1  LIG1       -0.0120
      3 C           2.0202    3.1463   -0.0005 C.ar    1  LIG1       -0.0099
      4 C           0.8187    3.8148   -0.0053 C.ar    1  LIG1        0.1702
      5 O          -0.2094    2.9113   -0.0157 O.2     1  LIG1       -0.4596
      6 H          -0.3355    0.8386   -0.0251 H       1  LIG1        0.1032
      7 C           2.6917    0.6054   -0.0069 C.3     1  LIG1       -0.0367
      8 H           3.3361    0.6314    0.8791 H       1  LIG1        0.0278
      9 H           3.3472    0.6385   -0.8846 H       1  LIG1        0.0278
     10 H           2.1746   -0.3581   -0.0140 H       1  LIG1        0.0278
     11 H           3.0028    3.5935    0.0083 H       1  LIG1        0.0659
     12 C           0.4735    5.2085   -0.0019 C.ar    1  LIG1        0.1736
     13 C           1.2324    6.3621    0.0029 C.ar    1  LIG1       -0.0009
     14 C           0.3002    7.4391    0.0046 C.ar    1  LIG1       -0.0091
     15 C          -0.9587    6.8874    0.0004 C.ar    1  LIG1        0.1713
     16 O          -0.8620    5.5239   -0.0035 O.2     1  LIG1       -0.4484
     17 C           2.7280    6.4651    0.0059 C.3     1  LIG1       -0.0360
     18 H           3.0432    7.5113    0.0012 H       1  LIG1        0.0279
     19 H           3.1692    5.9803   -0.8732 H       1  LIG1        0.0279
     20 H           3.1653    5.9897    0.8922 H       1  LIG1        0.0279
     21 H           0.5271    8.4950    0.0080 H       1  LIG1        0.0659
     22 C          -2.2692    7.4697   -0.0008 C.ar    1  LIG1        0.1736
     23 C          -3.5560    6.9712   -0.0056 C.ar    1  LIG1       -0.0009
     24 C          -4.4083    8.1167   -0.0044 C.ar    1  LIG1       -0.0091
     25 C          -3.6018    9.2303    0.0011 C.ar    1  LIG1        0.1712
     26 O          -2.2911    8.8437    0.0034 O.2     1  LIG1       -0.4484
     27 C          -4.0037    5.5394   -0.0111 C.3     1  LIG1       -0.0360
     28 H          -3.1575    4.8527   -0.0113 H       1  LIG1        0.0279
     29 H          -4.6170    5.3264   -0.8945 H       1  LIG1        0.0279
     30 H          -4.6210    5.3209    0.8682 H       1  LIG1        0.0279
     31 H          -5.4881    8.1081   -0.0080 H       1  LIG1        0.0659
     32 C          -3.8778   10.6398    0.0050 C.ar    1  LIG1        0.1726
     33 C          -5.0574   11.3558    0.0095 C.ar    1  LIG1       -0.0017
     34 C          -4.6662   12.7332    0.0111 C.ar    1  LIG1       -0.0203
     35 C          -3.3050   12.7595    0.0076 C.ar    1  LIG1        0.0930
     36 O          -2.8054   11.4938    0.0039 O.2     1  LIG1       -0.4596
     37 H          -2.5746   13.5531    0.0074 H       1  LIG1        0.1029
     38 C          -6.4550   10.8137    0.0124 C.3     1  LIG1       -0.0360
     39 H          -6.6445   10.1833    0.8896 H       1  LIG1        0.0279
     40 H          -6.6558   10.2019   -0.8754 H       1  LIG1        0.0279
     41 H          -7.1851   11.6269    0.0256 H       1  LIG1        0.0279
     42 H          -5.3277   13.5883    0.0146 H       1  LIG1        0.0652
@<TRIPOS>BOND
     1    29    27    1
     2     9     7    1
     3    40    38    1
     4    19    17    1
     5     6     1    1
     6     1     5   ar
     7     1     2   ar
     8     5     4   ar
     9    10     7    1
    10    28    27    1
    11    27    23    1
    12    27    30    1
    13     2     7    1
    14     2     3   ar
    15    31    24    1
    16     7     8    1
    17    23    24   ar
    18    23    22   ar
    19     4    12    1
    20     4     3   ar
    21    24    25   ar
    22    16    12   ar
    23    16    15   ar
    24    12    13   ar
    25    22    15    1
    26    22    26   ar
    27     3    11    1
    28    15    14   ar
    29    25    26   ar
    30    25    32    1
    31    18    17    1
    32    13    14   ar
    33    13    17    1
    34    36    32   ar
    35    36    35   ar
    36    14    21    1
    37    32    33   ar
    38    17    20    1
    39    37    35    1
    40    35    34   ar
    41    33    34   ar
    42    33    38    1
    43    34    42    1
    44    38    41    1
    45    38    39    1
