@<TRIPOS>MOLECULE
mol_data/opt/b3lyp/geoms/mol2/12ia12ia.out
 22 23 0 0 0
SMALL
GASTEIGER

@<TRIPOS>ATOM
      1 C           0.1837    1.8353    0.2596 C.ar    1  LIG1        0.0956
      2 C           1.5222    1.8651    0.0013 C.ar    1  LIG1       -0.0120
      3 C           1.8453    3.2532   -0.1681 C.ar    1  LIG1       -0.0099
      4 C           0.6808    3.9591    0.0069 C.ar    1  LIG1        0.1702
      5 O          -0.3458    3.0937    0.2700 O.2     1  LIG1       -0.4596
      6 H          -0.5126    1.0323    0.4466 H       1  LIG1        0.1032
      7 C           2.4560    0.6965   -0.0964 C.3     1  LIG1       -0.0367
      8 H           3.2577    0.7609    0.6481 H       1  LIG1        0.0278
      9 H           2.9333    0.6467   -1.0817 H       1  LIG1        0.0278
     10 H           1.9272   -0.2469    0.0652 H       1  LIG1        0.0278
     11 H           2.8130    3.6651   -0.4136 H       1  LIG1        0.0659
     12 C           0.3723    5.3664   -0.0201 C.ar    1  LIG1        0.1725
     13 C           1.1644    6.4930    0.0154 C.ar    1  LIG1       -0.0017
     14 C           0.2563    7.6003   -0.0521 C.ar    1  LIG1       -0.0203
     15 C          -0.9988    7.0785   -0.1158 C.ar    1  LIG1        0.0930
     16 O          -0.9505    5.7189   -0.0989 O.2     1  LIG1       -0.4596
     17 H          -1.9847    7.5128   -0.1693 H       1  LIG1        0.1029
     18 C           2.6586    6.5574    0.1156 C.3     1  LIG1       -0.0360
     19 H           2.9803    7.5289    0.5013 H       1  LIG1        0.0279
     20 H           3.1430    6.4170   -0.8592 H       1  LIG1        0.0279
     21 H           3.0467    5.7838    0.7865 H       1  LIG1        0.0279
     22 H           0.5190    8.6490   -0.0426 H       1  LIG1        0.0652
@<TRIPOS>BOND
     1     9     7    1
     2    20    18    1
     3    11     3    1
     4    17    15    1
     5     3     2   ar
     6     3     4   ar
     7    15    16   ar
     8    15    14   ar
     9    16    12   ar
    10     7     2    1
    11     7    10    1
    12     7     8    1
    13    14    22    1
    14    14    13   ar
    15    12     4    1
    16    12    13   ar
    17     2     1   ar
    18     4     5   ar
    19    13    18    1
    20    18    19    1
    21    18    21    1
    22     1     5   ar
    23     1     6    1
