@<TRIPOS>MOLECULE
mol_data/opt/b3lyp/geoms/mol2/12ia12ia12ia12ia.out
 42 45 0 0 0
SMALL
GASTEIGER

@<TRIPOS>ATOM
      1 C           0.6463    1.6135    0.1730 C.ar    1  LIG1        0.0956
      2 C           1.9911    1.7792    0.0154 C.ar    1  LIG1       -0.0120
      3 C           2.1908    3.1959   -0.0827 C.ar    1  LIG1       -0.0099
      4 C           0.9516    3.7825    0.0259 C.ar    1  LIG1        0.1702
      5 O          -0.0017    2.8145    0.1830 O.2     1  LIG1       -0.4596
      6 H           0.0195    0.7423    0.2848 H       1  LIG1        0.1032
      7 C           3.0381    0.7083   -0.0484 C.3     1  LIG1       -0.0367
      8 H           3.7779    0.8230    0.7520 H       1  LIG1        0.0278
      9 H           3.5829    0.7375   -0.9989 H       1  LIG1        0.0278
     10 H           2.5936   -0.2861    0.0496 H       1  LIG1        0.0278
     11 H           3.1314    3.7056   -0.2289 H       1  LIG1        0.0659
     12 C           0.5132    5.1505    0.0111 C.ar    1  LIG1        0.1736
     13 C           1.2025    6.3475   -0.0008 C.ar    1  LIG1       -0.0009
     14 C           0.2063    7.3644   -0.0168 C.ar    1  LIG1       -0.0091
     15 C          -1.0198    6.7352   -0.0105 C.ar    1  LIG1        0.1713
     16 O          -0.8366    5.3817    0.0062 O.2     1  LIG1       -0.4484
     17 C           2.6885    6.5440    0.0049 C.3     1  LIG1       -0.0360
     18 H           2.9394    7.5954    0.1675 H       1  LIG1        0.0279
     19 H           3.1444    6.2391   -0.9452 H       1  LIG1        0.0279
     20 H           3.1683    5.9587    0.7975 H       1  LIG1        0.0279
     21 H           0.3818    8.4296   -0.0271 H       1  LIG1        0.0659
     22 C          -2.3663    7.2261   -0.0168 C.ar    1  LIG1        0.1736
     23 C          -2.8890    8.5059   -0.0231 C.ar    1  LIG1       -0.0009
     24 C          -4.3029    8.3424   -0.0340 C.ar    1  LIG1       -0.0091
     25 C          -4.5585    6.9892   -0.0315 C.ar    1  LIG1        0.1712
     26 O          -3.3780    6.3027   -0.0211 O.2     1  LIG1       -0.4484
     27 C          -2.1331    9.8003   -0.0221 C.3     1  LIG1       -0.0360
     28 H          -2.8207   10.6499   -0.0189 H       1  LIG1        0.0279
     29 H          -1.4909    9.8966   -0.9059 H       1  LIG1        0.0279
     30 H          -1.4873    9.8926    0.8594 H       1  LIG1        0.0279
     31 H          -5.0365    9.1345   -0.0490 H       1  LIG1        0.0659
     32 C          -5.7740    6.2243   -0.0349 C.ar    1  LIG1        0.1726
     33 C          -7.1032    6.5918    0.0227 C.ar    1  LIG1       -0.0017
     34 C          -7.8390    5.3643   -0.0227 C.ar    1  LIG1       -0.0203
     35 C          -6.9259    4.3572   -0.1011 C.ar    1  LIG1        0.0930
     36 O          -5.6627    4.8610   -0.1100 O.2     1  LIG1       -0.4596
     37 H          -7.0034    3.2827   -0.1534 H       1  LIG1        0.1029
     38 C          -7.6650    7.9784    0.1164 C.3     1  LIG1       -0.0360
     39 H          -8.7499    7.9483    0.2460 H       1  LIG1        0.0279
     40 H          -7.4571    8.5659   -0.7866 H       1  LIG1        0.0279
     41 H          -7.2440    8.5295    0.9656 H       1  LIG1        0.0279
     42 H          -8.9147    5.2591    0.0038 H       1  LIG1        0.0652
@<TRIPOS>BOND
     1     9     7    1
     2    19    17    1
     3    29    27    1
     4    40    38    1
     5    11     3    1
     6    37    35    1
     7    36    35   ar
     8    36    32   ar
     9    35    34   ar
    10     3     2   ar
    11     3     4   ar
    12    31    24    1
    13     7     2    1
    14     7    10    1
    15     7     8    1
    16    32    25    1
    17    32    33   ar
    18    24    25   ar
    19    24    23   ar
    20    25    26   ar
    21    21    14    1
    22    23    27    1
    23    23    22   ar
    24    34    42    1
    25    34    33   ar
    26    27    28    1
    27    27    30    1
    28    26    22   ar
    29    14    15   ar
    30    14    13   ar
    31    22    15    1
    32    15    16   ar
    33    13    17    1
    34    13    12   ar
    35    17    18    1
    36    17    20    1
    37    16    12   ar
    38    12     4    1
    39     2     1   ar
    40    33    38    1
    41     4     5   ar
    42    38    39    1
    43    38    41    1
    44     1     5   ar
    45     1     6    1
