@<TRIPOS>MOLECULE
mol_data/opt/b3lyp/geoms/mol2/12ia12ia12ia12ia-.out
 42 45 0 0 0
SMALL
GASTEIGER

@<TRIPOS>ATOM
      1 C           0.5603    1.6677    0.1165 C.ar    1  LIG1        0.0956
      2 C           1.9112    1.8038   -0.0129 C.ar    1  LIG1       -0.0120
      3 C           2.1468    3.2168   -0.0809 C.ar    1  LIG1       -0.0099
      4 C           0.9204    3.8316    0.0153 C.ar    1  LIG1        0.1702
      5 O          -0.0592    2.8842    0.1366 O.2     1  LIG1       -0.4596
      6 H          -0.0887    0.8098    0.2011 H       1  LIG1        0.1032
      7 C           2.9333    0.7089   -0.0765 C.3     1  LIG1       -0.0367
      8 H           3.6601    0.7915    0.7396 H       1  LIG1        0.0278
      9 H           3.4967    0.7416   -1.0159 H       1  LIG1        0.0278
     10 H           2.4631   -0.2758   -0.0047 H       1  LIG1        0.0278
     11 H           3.1023    3.7059   -0.1981 H       1  LIG1        0.0659
     12 C           0.5140    5.2093    0.0167 C.ar    1  LIG1        0.1736
     13 C           1.2280    6.3913    0.0198 C.ar    1  LIG1       -0.0009
     14 C           0.2541    7.4301    0.0161 C.ar    1  LIG1       -0.0091
     15 C          -0.9852    6.8279    0.0138 C.ar    1  LIG1        0.1713
     16 O          -0.8314    5.4699    0.0136 O.2     1  LIG1       -0.4484
     17 C           2.7180    6.5555    0.0282 C.3     1  LIG1       -0.0360
     18 H           2.9914    7.6030    0.1794 H       1  LIG1        0.0279
     19 H           3.1696    6.2293   -0.9168 H       1  LIG1        0.0279
     20 H           3.1829    5.9696    0.8292 H       1  LIG1        0.0279
     21 H           0.4525    8.4915    0.0193 H       1  LIG1        0.0659
     22 C          -2.3228    7.3402    0.0123 C.ar    1  LIG1        0.1736
     23 C          -2.8384    8.6223    0.0167 C.ar    1  LIG1       -0.0009
     24 C          -4.2546    8.4690    0.0093 C.ar    1  LIG1       -0.0091
     25 C          -4.5185    7.1205    0.0010 C.ar    1  LIG1        0.1712
     26 O          -3.3441    6.4238    0.0026 O.2     1  LIG1       -0.4484
     27 C          -2.0710    9.9100    0.0272 C.3     1  LIG1       -0.0360
     28 H          -2.7512   10.7653    0.0332 H       1  LIG1        0.0279
     29 H          -1.4254   10.0049   -0.8543 H       1  LIG1        0.0279
     30 H          -1.4270    9.9912    0.9111 H       1  LIG1        0.0279
     31 H          -4.9918    9.2584    0.0102 H       1  LIG1        0.0659
     32 C          -5.7432    6.3691   -0.0090 C.ar    1  LIG1        0.1726
     33 C          -6.0581    5.0275   -0.0169 C.ar    1  LIG1       -0.0017
     34 C          -7.4933    4.9769   -0.0252 C.ar    1  LIG1       -0.0203
     35 C          -7.9388    6.2612   -0.0216 C.ar    1  LIG1        0.0930
     36 O          -6.8894    7.1288   -0.0117 O.2     1  LIG1       -0.4596
     37 H          -8.9197    6.7103   -0.0249 H       1  LIG1        0.1029
     38 C          -5.1334    3.8463   -0.0178 C.3     1  LIG1       -0.0360
     39 H          -4.0868    4.1499   -0.0044 H       1  LIG1        0.0279
     40 H          -5.2964    3.2246   -0.9062 H       1  LIG1        0.0279
     41 H          -5.3147    3.2092    0.8559 H       1  LIG1        0.0279
     42 H          -8.1040    4.0848   -0.0328 H       1  LIG1        0.0652
@<TRIPOS>BOND
     1     9     7    1
     2    19    17    1
     3    40    38    1
     4    29    27    1
     5    11     3    1
     6     3     2   ar
     7     3     4   ar
     8     7     2    1
     9     7    10    1
    10     7     8    1
    11    42    34    1
    12    34    35   ar
    13    34    33   ar
    14    37    35    1
    15    35    36   ar
    16    38    33    1
    17    38    39    1
    18    38    41    1
    19    33    32   ar
    20     2     1   ar
    21    36    32   ar
    22    32    25    1
    23    25    26   ar
    24    25    24   ar
    25    26    22   ar
    26    24    31    1
    27    24    23   ar
    28    22    15    1
    29    22    23   ar
    30    16    15   ar
    31    16    12   ar
    32    15    14   ar
    33     4    12    1
    34     4     5   ar
    35    14    21    1
    36    14    13   ar
    37    23    27    1
    38    12    13   ar
    39    13    17    1
    40    27    28    1
    41    27    30    1
    42    17    18    1
    43    17    20    1
    44     1     5   ar
    45     1     6    1
