@<TRIPOS>MOLECULE
mol_data/opt/b3lyp/geoms/mol2/12id12ai4da4ae.out
 46 49 0 0 0
SMALL
GASTEIGER

@<TRIPOS>ATOM
      1 C           0.4752    1.6329   -0.3713 C.ar    1  LIG1        0.0969
      2 C           1.8234    1.6955   -0.2122 C.ar    1  LIG1        0.0054
      3 C           2.1131    3.1007   -0.0346 C.ar    1  LIG1        0.1033
      4 C           0.9031    3.7733   -0.1028 C.ar    1  LIG1        0.1872
      5 O          -0.0943    2.8782   -0.3068 O.2     1  LIG1       -0.4582
      6 H          -0.2087    0.8152   -0.5350 H       1  LIG1        0.1032
      7 C           2.8132    0.5734   -0.2171 C.3     1  LIG1       -0.0355
      8 H           3.3595    0.5232    0.7307 H       1  LIG1        0.0279
      9 H           3.5557    0.7047   -1.0113 H       1  LIG1        0.0279
     10 H           2.3153   -0.3867   -0.3732 H       1  LIG1        0.0279
     11 N           4.4325    4.1664    0.3480 N.1     1  LIG1       -0.1907
     12 C           3.3860    3.6839    0.1737 C.1     1  LIG1        0.1033
     13 C           0.5616    5.1624    0.0013 C.ar    1  LIG1        0.1721
     14 C           1.3144    6.2935    0.2023 C.ar    1  LIG1       -0.0092
     15 C           0.4160    7.4006    0.2034 C.ar    1  LIG1       -0.0040
     16 C          -0.8402    6.8657   -0.0134 C.ar    1  LIG1        0.1399
     17 O          -0.7542    5.4972   -0.1225 O.2     1  LIG1       -0.4514
     18 H           2.3845    6.3308    0.3478 H       1  LIG1        0.0659
     19 C           0.8017    8.8242    0.4729 C.3     1  LIG1       -0.0361
     20 H          -0.0291    9.3932    0.8978 H       1  LIG1        0.0279
     21 H           1.1118    9.3392   -0.4417 H       1  LIG1        0.0279
     22 H           1.6340    8.8588    1.1818 H       1  LIG1        0.0279
     23 C          -2.5451    8.6095   -0.6980 C.ar    1  LIG1        0.0630
     24 C          -3.8630    9.0913   -0.6566 C.ar    1  LIG1       -0.0359
     25 C          -2.1981    7.3994   -0.0471 C.ar    1  LIG1        0.0349
     26 C          -4.8782    8.3865   -0.0026 C.ar    1  LIG1       -0.0166
     27 H          -4.0946   10.0081   -1.1876 H       1  LIG1        0.0637
     28 C          -3.2347    6.6844    0.5798 C.ar    1  LIG1       -0.0493
     29 C          -4.5366    7.1629    0.6030 C.ar    1  LIG1       -0.0533
     30 H          -2.9946    5.7492    1.0729 H       1  LIG1        0.0625
     31 N          -0.8701    9.9374   -2.1722 N.1     1  LIG1       -0.1908
     32 C          -1.6006    9.3336   -1.4968 C.1     1  LIG1        0.0999
     33 H          -5.2985    6.5973    1.1300 H       1  LIG1        0.0624
     34 C          -6.5171   10.2837    0.1732 C.ar    1  LIG1       -0.0540
     35 C          -7.8233   10.7690    0.2067 C.ar    1  LIG1       -0.0600
     36 C          -6.2673    8.9076    0.0353 C.ar    1  LIG1       -0.0167
     37 C          -8.9040    9.8977    0.1057 C.ar    1  LIG1       -0.0463
     38 H          -7.9988   11.8342    0.3213 H       1  LIG1        0.0618
     39 C          -7.3591    8.0355   -0.0667 C.ar    1  LIG1       -0.0386
     40 C          -8.6790    8.5157   -0.0322 C.ar    1  LIG1        0.0253
     41 H          -7.1949    6.9719   -0.2019 H       1  LIG1        0.0636
     42 H          -9.9219   10.2714    0.1321 H       1  LIG1        0.0630
     43 H          -5.6847   10.9721    0.2812 H       1  LIG1        0.0624
     44 C          -9.7784    7.6084   -0.1455 C.1     1  LIG1       -0.0696
     45 C         -10.7097    6.8418   -0.2401 C.1     1  LIG1       -0.1139
     46 H         -11.5300    6.1671   -0.3251 H       1  LIG1        0.1232
@<TRIPOS>BOND
     1    31    32    3
     2    32    23    1
     3    27    24    1
     4     9     7    1
     5    23    24   ar
     6    23    25   ar
     7    24    26   ar
     8     6     1    1
     9    21    19    1
    10    10     7    1
    11     1     5   ar
    12     1     2   ar
    13    46    45    1
    14     5     4   ar
    15    45    44    3
    16     7     2    1
    17     7     8    1
    18     2     3   ar
    19    41    39    1
    20    44    40    1
    21    17    16   ar
    22    17    13   ar
    23     4     3   ar
    24     4    13    1
    25    39    40   ar
    26    39    36   ar
    27    25    16    1
    28    25    28   ar
    29     3    12    1
    30    40    37   ar
    31    16    15   ar
    32    26    36    1
    33    26    29   ar
    34    13    14   ar
    35    36    34   ar
    36    37    42    1
    37    37    35   ar
    38    34    35   ar
    39    34    43    1
    40    12    11    3
    41    14    15   ar
    42    14    18    1
    43    15    19    1
    44    35    38    1
    45    19    20    1
    46    19    22    1
    47    28    29   ar
    48    28    30    1
    49    29    33    1
