@<TRIPOS>MOLECULE
mol_data/opt/b3lyp/geoms/mol2/12id13af-12hh-4ia-13fe13ff-13aa12hf.out
 85 92 0 0 0
SMALL
GASTEIGER

@<TRIPOS>ATOM
      1 C           0.7714    2.7535    2.7700 C.ar    1  LIG1        0.0968
      2 C           2.1269    2.8099    2.7732 C.ar    1  LIG1        0.0054
      3 C           2.4617    3.9951    2.0112 C.ar    1  LIG1        0.1017
      4 C           1.2655    4.5675    1.6047 C.ar    1  LIG1        0.1685
      5 O           0.2330    3.8074    2.0681 O.2     1  LIG1       -0.4599
      6 H           0.0607    2.0655    3.1995 H       1  LIG1        0.1032
      7 C           3.0927    1.8661    3.4176 C.3     1  LIG1       -0.0355
      8 H           3.7209    2.3834    4.1506 H       1  LIG1        0.0279
      9 H           3.7647    1.4206    2.6761 H       1  LIG1        0.0279
     10 H           2.5677    1.0565    3.9308 H       1  LIG1        0.0279
     11 N           4.8451    4.8506    1.5156 N.1     1  LIG1       -0.1907
     12 C           3.7648    4.4714    1.7357 C.1     1  LIG1        0.1033
     13 C           0.9268    5.7294    0.8436 C.ar    1  LIG1        0.0875
     14 C           1.7326    6.7058    0.2519 C.ar    1  LIG1        0.0090
     15 C           0.8765    7.6377   -0.3671 C.ar    1  LIG1        0.1458
     16 C          -0.4502    7.2147   -0.1492 C.ar    1  LIG1        0.1265
     17 N          -0.3841    6.0495    0.5884 N.ar    1  LIG1       -0.3463
     18 H          -1.1855    5.5361    0.9186 H       1  LIG1        0.1662
     19 H           2.8110    6.7432    0.2678 H       1  LIG1        0.0677
     20 O           1.2979    8.7266   -1.0384 O.3     1  LIG1       -0.5045
     21 H           0.5078    9.2242   -1.3668 H       1  LIG1        0.2922
     22 C          -1.7040    7.7723   -0.5564 C.ar    1  LIG1        0.1777
     23 C          -2.0597    8.8906   -1.2802 C.ar    1  LIG1        0.0942
     24 C          -3.4929    8.9100   -1.3356 C.ar    1  LIG1        0.0927
     25 C          -3.9401    7.8196   -0.6244 C.ar    1  LIG1        0.1584
     26 O          -2.8297    7.1122   -0.1654 O.2     1  LIG1       -0.4494
     27 N          -1.1391    9.8166   -1.8666 N.pl3   1  LIG1       -0.3535
     28 H          -1.1743    9.8067   -2.8849 H       1  LIG1        0.1425
     29 H          -1.3184   10.7711   -1.5604 H       1  LIG1        0.1425
     30 N          -4.2503    9.8831   -1.9993 N.pl3   1  LIG1       -0.3536
     31 H          -3.7546   10.2904   -2.7843 H       1  LIG1        0.1425
     32 H          -5.1503    9.5341   -2.3091 H       1  LIG1        0.1425
     33 C          -6.3586    7.9727    0.0897 C.ar    1  LIG1       -0.0391
     34 C          -7.5914    7.3360    0.2414 C.ar    1  LIG1       -0.0489
     35 C          -5.2520    7.2245   -0.3906 C.ar    1  LIG1        0.0221
     36 C          -7.7779    5.9668   -0.0328 C.ar    1  LIG1        0.0022
     37 H          -8.4326    7.9101    0.6134 H       1  LIG1        0.0627
     38 C          -5.4296    5.8503   -0.6425 C.ar    1  LIG1       -0.0501
     39 C          -6.6571    5.2315   -0.4703 C.ar    1  LIG1       -0.0518
     40 H          -4.5834    5.2731   -1.0024 H       1  LIG1        0.0625
     41 C          -6.2162    9.4132    0.5260 C.3     1  LIG1       -0.0390
     42 H          -7.1262    9.7525    1.0270 H       1  LIG1        0.0278
     43 H          -6.0106   10.0993   -0.3020 H       1  LIG1        0.0278
     44 H          -5.3795    9.5225    1.2247 H       1  LIG1        0.0278
     45 H          -6.7543    4.1785   -0.7203 H       1  LIG1        0.0624
     46 C          -9.0708    5.3348    0.1547 C.ar    1  LIG1        0.0902
     47 C         -10.3467    5.8549    0.3121 C.ar    1  LIG1        0.1581
     48 C         -11.2853    4.7818    0.4371 C.ar    1  LIG1        0.0934
     49 C         -10.5467    3.5907    0.3734 C.ar    1  LIG1        0.0863
     50 N          -9.2327    3.9435    0.1632 N.ar    1  LIG1       -0.3490
     51 H          -8.4790    3.3139    0.3925 H       1  LIG1        0.1661
     52 O         -10.6748    7.1722    0.2956 O.3     1  LIG1       -0.5035
     53 H         -11.6404    7.2275    0.3782 H       1  LIG1        0.2923
     54 C         -12.6792    5.0003    0.5110 C.1     1  LIG1       -0.0638
     55 C         -13.8495    5.3171    0.5562 C.1     1  LIG1       -0.1137
     56 H         -14.8892    5.5413    0.6110 H       1  LIG1        0.1232
     57 C         -10.9286    2.2103    0.4490 C.ar    1  LIG1        0.1105
     58 C         -11.9660    1.5516    1.0906 C.ar    1  LIG1        0.1863
     59 C         -11.8224    0.1602    0.8463 C.ar    1  LIG1        0.1863
     60 C         -10.6895   -0.0428    0.0729 C.ar    1  LIG1        0.1091
     61 N         -10.1205    1.2137   -0.1356 N.ar    1  LIG1       -0.3460
     62 H          -9.6812    1.4189   -1.0241 H       1  LIG1        0.1662
     63 O         -12.9172    2.1007    1.8820 O.3     1  LIG1       -0.5019
     64 H         -13.4363    1.3641    2.2403 H       1  LIG1        0.2924
     65 O         -12.6587   -0.7617    1.4380 O.3     1  LIG1       -0.5019
     66 H         -13.1175   -1.2596    0.7478 H       1  LIG1        0.2924
     67 C         -10.1064   -1.2519   -0.4394 C.ar    1  LIG1        0.0671
     68 C         -10.6088   -2.5476   -0.5263 C.ar    1  LIG1       -0.0342
     69 C          -9.6179   -3.3650   -1.1169 C.ar    1  LIG1       -0.0327
     70 C          -8.5137   -2.5603   -1.3873 C.ar    1  LIG1        0.0845
     71 N          -8.8349   -1.2800   -0.9862 N.ar    1  LIG1       -0.3505
     72 H          -8.1571   -0.5364   -0.9302 H       1  LIG1        0.1660
     73 H         -11.5822   -2.8681   -0.1856 H       1  LIG1        0.0639
     74 H          -9.6736   -4.4301   -1.2871 H       1  LIG1        0.0640
     75 C          -7.2361   -2.8636   -1.9632 C.ar    1  LIG1        0.1751
     76 C          -6.7470   -3.9680   -2.6230 C.ar    1  LIG1        0.1145
     77 C          -5.3865   -3.6553   -2.9470 C.ar    1  LIG1        0.1763
     78 C          -5.1310   -2.3988   -2.4823 C.ar    1  LIG1        0.1359
     79 O          -6.2562   -1.8946   -1.8809 O.2     1  LIG1       -0.4558
     80 H          -4.2630   -1.7598   -2.5019 H       1  LIG1        0.1068
     81 N          -7.3907   -5.1740   -2.9107 N.pl3   1  LIG1       -0.3522
     82 H          -8.3550   -5.0519   -3.2003 H       1  LIG1        0.1425
     83 H          -6.8812   -5.7177   -3.5975 H       1  LIG1        0.1425
     84 O          -4.6031   -4.5466   -3.6217 O.3     1  LIG1       -0.5024
     85 H          -3.7282   -4.1653   -3.7674 H       1  LIG1        0.2923
@<TRIPOS>BOND
     1    85    84    1
     2    84    77    1
     3    83    81    1
     4    82    81    1
     5    77    76   ar
     6    77    78   ar
     7    81    76    1
     8    28    27    1
     9    31    30    1
    10    76    75   ar
    11    80    78    1
    12    78    79   ar
    13    32    30    1
    14    30    24    1
    15    75    79   ar
    16    75    70    1
    17    27    29    1
    18    27    23    1
    19    70    69   ar
    20    70    71   ar
    21    21    20    1
    22    24    23   ar
    23    24    25   ar
    24    74    69    1
    25    23    22   ar
    26    69    68   ar
    27    20    15    1
    28    62    61    1
    29    40    38    1
    30    71    72    1
    31    71    67   ar
    32    45    39    1
    33    38    39   ar
    34    38    35   ar
    35    25    35    1
    36    25    26   ar
    37    22    26   ar
    38    22    16    1
    39    68    67   ar
    40    68    73    1
    41    39    36   ar
    42    67    60    1
    43    35    33   ar
    44    15    16   ar
    45    15    14   ar
    46    43    41    1
    47    16    17   ar
    48    61    60   ar
    49    61    57   ar
    50    36    46    1
    51    36    34   ar
    52    60    59   ar
    53    33    34   ar
    54    33    41    1
    55    46    50   ar
    56    46    47   ar
    57    50    49   ar
    58    50    51    1
    59    34    37    1
    60    14    19    1
    61    14    13   ar
    62    52    47    1
    63    52    53    1
    64    47    48   ar
    65    49    48   ar
    66    49    57    1
    67    48    54    1
    68    57    58   ar
    69    54    55    3
    70    41    42    1
    71    41    44    1
    72    55    56    1
    73    17    13   ar
    74    17    18    1
    75    66    65    1
    76    13     4    1
    77    59    58   ar
    78    59    65    1
    79    58    63    1
    80    11    12    3
    81     4     3   ar
    82     4     5   ar
    83    12     3    1
    84    63    64    1
    85     3     2   ar
    86     5     1   ar
    87     9     7    1
    88     1     2   ar
    89     1     6    1
    90     2     7    1
    91     7    10    1
    92     7     8    1
