@<TRIPOS>MOLECULE
mol_data/opt/b3lyp/geoms/mol2/12id6eh-6el-13ee-13eh-6ad-13ih13ef-.out
 99 106 0 0 0
SMALL
GASTEIGER

@<TRIPOS>ATOM
      1 C           0.9210    2.1868    3.3389 C.ar    1  LIG1        0.0968
      2 C           1.0631    1.6130    2.1149 C.ar    1  LIG1        0.0053
      3 C           0.8327    2.6880    1.1768 C.ar    1  LIG1        0.1003
      4 C           0.5671    3.8316    1.9157 C.ar    1  LIG1        0.1551
      5 O           0.6251    3.5157    3.2317 O.2     1  LIG1       -0.4612
      6 H           0.9964    1.8033    4.3442 H       1  LIG1        0.1032
      7 C           1.3794    0.1881    1.7851 C.3     1  LIG1       -0.0355
      8 H           2.3033    0.1118    1.2020 H       1  LIG1        0.0279
      9 H           0.5822   -0.2666    1.1877 H       1  LIG1        0.0279
     10 H           1.5020   -0.4052    2.6945 H       1  LIG1        0.0279
     11 N           0.8965    2.4440   -1.3938 N.1     1  LIG1       -0.1907
     12 C           0.8579    2.5635   -0.2355 C.1     1  LIG1        0.1032
     13 C          -0.5173    6.0945    2.3137 C.ar    1  LIG1        0.1246
     14 C           0.2741    5.2082    1.5311 C.ar    1  LIG1        0.0541
     15 C           0.7732    5.6909    0.3178 C.ar    1  LIG1       -0.0256
     16 C           0.5031    6.9934   -0.1094 C.ar    1  LIG1        0.0517
     17 C          -0.2645    7.8124    0.7616 C.ar    1  LIG1        0.0957
     18 N          -0.7501    7.3552    1.9143 N.ar    1  LIG1       -0.2358
     19 H           1.3811    5.0483   -0.3099 H       1  LIG1        0.0644
     20 C          -1.1471    5.7142    3.5429 C.1     1  LIG1       -0.0491
     21 C          -1.7145    5.4357    4.5736 C.1     1  LIG1       -0.1124
     22 H          -2.2091    5.1895    5.4845 H       1  LIG1        0.1232
     23 N           1.0177    7.4645   -1.3088 N.pl3   1  LIG1       -0.3563
     24 H           1.2530    6.7508   -1.9856 H       1  LIG1        0.1424
     25 H           0.5225    8.2440   -1.7198 H       1  LIG1        0.1424
     26 C          -1.8728    9.7580    0.4369 C.ar    1  LIG1        0.1233
     27 C          -0.5598    9.2350    0.4339 C.ar    1  LIG1        0.0395
     28 C           0.4857   10.1267    0.1573 C.ar    1  LIG1       -0.0059
     29 C           0.2262   11.4723   -0.0948 C.ar    1  LIG1        0.1481
     30 C          -1.1240   11.9070   -0.1124 C.ar    1  LIG1        0.1312
     31 N          -2.1188   11.0512    0.1664 N.ar    1  LIG1       -0.2326
     32 H           1.5055    9.7621    0.1767 H       1  LIG1        0.0662
     33 C          -3.0243    8.9387    0.6769 C.1     1  LIG1       -0.0491
     34 C          -4.0205    8.2749    0.8447 C.1     1  LIG1       -0.1124
     35 H          -4.8873    7.6790    1.0147 H       1  LIG1        0.1232
     36 O           1.1708   12.4124   -0.2939 O.3     1  LIG1       -0.4929
     37 C           2.5411   12.0358   -0.3123 C.3     1  LIG1        0.0789
     38 H           3.0907   12.9535   -0.5205 H       1  LIG1        0.0660
     39 H           2.8567   11.6286    0.6559 H       1  LIG1        0.0660
     40 H           2.7447   11.3013   -1.1009 H       1  LIG1        0.0660
     41 C          -1.5651   13.2814   -0.3639 C.ar    1  LIG1        0.0859
     42 C          -1.0355   14.4628   -0.9136 C.ar    1  LIG1        0.0675
     43 C          -2.0737   15.4633   -0.8432 C.ar    1  LIG1        0.0674
     44 C          -3.1951   14.8644   -0.2575 C.ar    1  LIG1        0.0814
     45 N          -2.8612   13.5620   -0.0030 N.ar    1  LIG1       -0.3497
     46 H          -3.4222   12.8578    0.4584 H       1  LIG1        0.1661
     47 C           0.2053   14.7190   -1.5490 C.1     1  LIG1       -0.0662
     48 C           1.2117   15.0434   -2.1387 C.1     1  LIG1       -0.1138
     49 H           2.0958   15.3223   -2.6626 H       1  LIG1        0.1232
     50 C          -1.9878   16.7756   -1.3649 C.1     1  LIG1       -0.0662
     51 C          -1.9046   17.8885   -1.8325 C.1     1  LIG1       -0.1138
     52 H          -1.8382   18.8728   -2.2332 H       1  LIG1        0.1232
     53 C          -4.5257   15.3614    0.0189 C.ar    1  LIG1        0.0820
     54 C          -4.9809   16.5644    0.5782 C.ar    1  LIG1        0.0726
     55 C          -6.4070   16.4761    0.6742 C.ar    1  LIG1        0.0665
     56 C          -6.7962   15.2300    0.1824 C.ar    1  LIG1        0.0706
     57 N          -5.6293   14.5810   -0.2080 N.ar    1  LIG1       -0.3505
     58 H          -5.5976   13.6803   -0.6578 H       1  LIG1        0.1660
     59 C          -4.2274   17.6654    1.0484 C.1     1  LIG1       -0.0656
     60 C          -3.6572   18.6423    1.4828 C.1     1  LIG1       -0.1138
     61 H          -3.1150   19.4799    1.8554 H       1  LIG1        0.1232
     62 N          -7.2260   17.4678    1.2188 N.pl3   1  LIG1       -0.3554
     63 H          -6.7094   18.3246    1.3875 H       1  LIG1        0.1424
     64 H          -8.0589   17.6604    0.6735 H       1  LIG1        0.1424
     65 C          -8.3722   13.6124   -0.9095 C.ar    1  LIG1        0.0376
     66 C          -8.1083   14.6253    0.0409 C.ar    1  LIG1        0.0195
     67 C          -9.2078   15.0250    0.8139 C.ar    1  LIG1       -0.0316
     68 C         -10.4501   14.3970    0.6598 C.ar    1  LIG1        0.0797
     69 C         -10.5724   13.2992   -0.2368 C.ar    1  LIG1        0.1047
     70 N          -9.5252   12.9738   -1.0342 N.ar    1  LIG1       -0.2516
     71 H          -9.1054   15.8277    1.5356 H       1  LIG1        0.0638
     72 H          -7.5976   13.3157   -1.6166 H       1  LIG1        0.0836
     73 N         -12.4614   15.5099    1.8609 N.1     1  LIG1       -0.1908
     74 C         -11.5725   14.9733    1.3342 C.1     1  LIG1        0.1014
     75 C         -11.7623   12.4889   -0.4305 C.ar    1  LIG1        0.0714
     76 C         -12.7944   12.0402    0.4018 C.ar    1  LIG1       -0.0023
     77 C         -13.5885   11.1443   -0.3720 C.ar    1  LIG1        0.0553
     78 C         -13.0184   11.0476   -1.6504 C.ar    1  LIG1        0.0859
     79 N         -11.9181   11.8830   -1.6618 N.ar    1  LIG1       -0.3501
     80 H         -11.1259   11.8063   -2.2849 H       1  LIG1        0.1661
     81 C         -13.0372   12.2901    1.8587 C.3     1  LIG1       -0.0359
     82 H         -13.5008   11.3997    2.2957 H       1  LIG1        0.0279
     83 H         -13.6987   13.1439    2.0447 H       1  LIG1        0.0279
     84 H         -12.1075   12.4901    2.3980 H       1  LIG1        0.0279
     85 N         -14.7100   10.4854    0.1337 N.pl3   1  LIG1       -0.3561
     86 H         -15.4086   11.1005    0.5319 H       1  LIG1        0.1424
     87 H         -15.1185    9.7988   -0.4876 H       1  LIG1        0.1424
     88 C         -13.4446   10.3994   -2.8677 C.ar    1  LIG1        0.0839
     89 C         -14.1585    9.2164   -3.1238 C.ar    1  LIG1        0.0927
     90 C         -14.2939    9.1180   -4.5493 C.ar    1  LIG1        0.1500
     91 C         -13.6720   10.2018   -5.1216 C.ar    1  LIG1        0.0454
     92 N         -13.1370   10.9565   -4.0875 N.ar    1  LIG1       -0.3554
     93 H         -12.8209   11.9084   -4.1845 H       1  LIG1        0.1655
     94 H         -13.5478   10.4860   -6.1552 H       1  LIG1        0.0845
     95 C         -14.5936    8.2459   -2.1917 C.1     1  LIG1       -0.0638
     96 C         -14.9810    7.4140   -1.3992 C.1     1  LIG1       -0.1137
     97 H         -15.2828    6.6624   -0.7077 H       1  LIG1        0.1232
     98 O         -14.9280    8.0699   -5.1438 O.3     1  LIG1       -0.5040
     99 H         -14.8838    8.1795   -6.1021 H       1  LIG1        0.2923
@<TRIPOS>BOND
     1    94    91    1
     2    99    98    1
     3    98    90    1
     4    91    90   ar
     5    91    92   ar
     6    90    89   ar
     7    93    92    1
     8    92    88   ar
     9    89    88   ar
    10    89    95    1
    11    88    78    1
    12    49    48    1
    13    80    79    1
    14    52    51    1
    15    95    96    3
    16    48    47    3
    17    24    23    1
    18    51    50    3
    19    25    23    1
    20    79    78   ar
    21    79    75   ar
    22    78    77   ar
    23    72    65    1
    24    47    42    1
    25    96    97    1
    26    11    12    3
    27    50    43    1
    28    23    16    1
    29    40    37    1
    30    70    65   ar
    31    70    69   ar
    32    42    43   ar
    33    42    41   ar
    34    65    66   ar
    35    43    44   ar
    36    58    57    1
    37    38    37    1
    38    87    85    1
    39    75    69    1
    40    75    76   ar
    41    77    85    1
    42    77    76   ar
    43    41    30    1
    44    41    45   ar
    45    37    36    1
    46    37    39    1
    47    19    15    1
    48    36    29    1
    49    44    45   ar
    50    44    53    1
    51    69    68   ar
    52    12     3    1
    53    57    53   ar
    54    57    56   ar
    55    30    29   ar
    56    30    31   ar
    57    16    15   ar
    58    16    17   ar
    59    29    28   ar
    60    45    46    1
    61    53    54   ar
    62    66    56    1
    63    66    67   ar
    64    85    86    1
    65    28    32    1
    66    28    27   ar
    67    31    26   ar
    68    56    55   ar
    69    15    14   ar
    70    76    81    1
    71    27    26   ar
    72    27    17    1
    73    26    33    1
    74    54    55   ar
    75    54    59    1
    76    68    67   ar
    77    68    74    1
    78    64    62    1
    79    55    62    1
    80    33    34    3
    81    17    18   ar
    82    67    71    1
    83    34    35    1
    84    59    60    3
    85     3     4   ar
    86     3     2   ar
    87     9     7    1
    88     8     7    1
    89    62    63    1
    90    74    73    3
    91    60    61    1
    92    14     4    1
    93    14    13   ar
    94     7     2    1
    95     7    10    1
    96    81    83    1
    97    81    82    1
    98    81    84    1
    99    18    13   ar
   100     4     5   ar
   101     2     1   ar
   102    13    20    1
   103     5     1   ar
   104     1     6    1
   105    20    21    3
   106    21    22    1
