@<TRIPOS>MOLECULE
mol_data/opt/b3lyp/geoms/mol2/12id6hf6lh-12df12lh-12ld13ii12fh-.out
 98 105 0 0 0
SMALL
GASTEIGER

@<TRIPOS>ATOM
      1 C           2.6231    2.0998    1.2609 C.ar    1  LIG1        0.0968
      2 C           1.6641    1.5861    0.4533 C.ar    1  LIG1        0.0053
      3 C           0.8900    2.7272    0.0132 C.ar    1  LIG1        0.1004
      4 C           1.4483    3.8666    0.5929 C.ar    1  LIG1        0.1557
      5 O           2.5061    3.4667    1.3534 O.2     1  LIG1       -0.4612
      6 H           3.4319    1.6598    1.8221 H       1  LIG1        0.1032
      7 C           1.4324    0.1550    0.0827 C.3     1  LIG1       -0.0355
      8 H           1.5044    0.0101   -1.0005 H       1  LIG1        0.0279
      9 H           0.4341   -0.1761    0.3879 H       1  LIG1        0.0279
     10 H           2.1669   -0.4968    0.5615 H       1  LIG1        0.0279
     11 N          -1.1621    2.6206   -1.5489 N.1     1  LIG1       -0.1907
     12 C          -0.2343    2.6626   -0.8425 C.1     1  LIG1        0.1032
     13 C           1.7796    6.3054    1.2690 C.ar    1  LIG1        0.1279
     14 C           1.1160    5.2759    0.5352 C.ar    1  LIG1        0.0615
     15 C           0.0588    5.6861   -0.2941 C.ar    1  LIG1       -0.0040
     16 C          -0.3521    7.0069   -0.3602 C.ar    1  LIG1        0.1437
     17 C           0.3173    7.9387    0.4633 C.ar    1  LIG1        0.1195
     18 N           1.3614    7.5793    1.2180 N.ar    1  LIG1       -0.2279
     19 H          -0.4480    4.9615   -0.9135 H       1  LIG1        0.0663
     20 N           2.8981    6.0953    2.0395 N.pl3   1  LIG1       -0.3426
     21 H           3.1186    6.8599    2.6600 H       1  LIG1        0.1437
     22 H           3.1070    5.1629    2.3548 H       1  LIG1        0.1437
     23 O          -1.3213    7.4110   -1.2247 O.3     1  LIG1       -0.5046
     24 H          -1.7061    6.6115   -1.6910 H       1  LIG1        0.2922
     25 C          -1.3922    9.8034    0.7718 C.ar    1  LIG1        0.2248
     26 C          -0.0702    9.3680    0.4887 C.ar    1  LIG1        0.0672
     27 C           0.8653   10.3640    0.2710 C.ar    1  LIG1       -0.0244
     28 C           0.5215   11.7334    0.2359 C.ar    1  LIG1        0.0549
     29 C          -0.8398   12.0383    0.4800 C.ar    1  LIG1        0.1318
     30 N          -1.7369   11.0650    0.7749 N.ar    1  LIG1       -0.2073
     31 H           1.8951   10.0743    0.0813 H       1  LIG1        0.0645
     32 O          -2.3166    8.8578    1.0813 O.3     1  LIG1       -0.4792
     33 C          -3.6111    9.3331    1.4732 C.3     1  LIG1        0.0804
     34 H          -4.1963    8.4358    1.6762 H       1  LIG1        0.0660
     35 H          -3.5405    9.9554    2.3700 H       1  LIG1        0.0660
     36 H          -4.0763    9.9198    0.6783 H       1  LIG1        0.0660
     37 N           1.4843   12.6541   -0.1466 N.pl3   1  LIG1       -0.3562
     38 H           2.4233   12.2829   -0.1830 H       1  LIG1        0.1424
     39 H           1.4641   13.5797    0.2584 H       1  LIG1        0.1424
     40 C          -1.4680   13.3501    0.3438 C.ar    1  LIG1        0.1769
     41 C          -1.0921   14.6955    0.3821 C.ar    1  LIG1        0.1411
     42 C          -2.2702   15.4654    0.0989 C.ar    1  LIG1        0.1844
     43 C          -3.2922   14.5557   -0.0645 C.ar    1  LIG1        0.2168
     44 O          -2.7961   13.2886    0.0793 O.2     1  LIG1       -0.4448
     45 N           1.1814   15.7044    1.0662 N.1     1  LIG1       -0.1906
     46 C           0.1525   15.2566    0.7488 C.1     1  LIG1        0.1067
     47 O          -2.2947   16.8080    0.0332 O.3     1  LIG1       -0.5023
     48 H          -3.1919   17.0885   -0.2435 H       1  LIG1        0.2923
     49 C          -4.6891   14.7059   -0.3211 C.ar    1  LIG1        0.2176
     50 C          -5.4787   15.8191   -0.5026 C.ar    1  LIG1        0.1904
     51 C          -6.8078   15.3739   -0.7746 C.ar    1  LIG1        0.1173
     52 C          -6.7489   13.9899   -0.7125 C.ar    1  LIG1        0.1987
     53 O          -5.4548   13.5899   -0.4426 O.2     1  LIG1       -0.4426
     54 O          -5.0444   17.1287   -0.4570 O.3     1  LIG1       -0.4896
     55 C          -5.5602   17.8695    0.6749 C.3     1  LIG1        0.0791
     56 H          -5.2084   18.8950    0.5527 H       1  LIG1        0.0660
     57 H          -6.6527   17.8425    0.6787 H       1  LIG1        0.0660
     58 H          -5.1763   17.4504    1.6107 H       1  LIG1        0.0660
     59 N          -7.8983   16.2154   -0.9777 N.pl3   1  LIG1       -0.3521
     60 H          -7.6692   17.0114   -1.5621 H       1  LIG1        0.1425
     61 H          -8.7168   15.7200   -1.3185 H       1  LIG1        0.1425
     62 C          -7.7293   12.9504   -0.8145 C.ar    1  LIG1        0.2153
     63 C          -9.0868   12.9402   -1.0306 C.ar    1  LIG1        0.1869
     64 C          -9.5096   11.5635   -1.0254 C.ar    1  LIG1        0.1412
     65 C          -8.3719   10.8060   -0.7686 C.ar    1  LIG1        0.1732
     66 O          -7.2977   11.6472   -0.6655 O.2     1  LIG1       -0.4450
     67 O          -9.8592   14.0379   -1.2855 O.3     1  LIG1       -0.4900
     68 C         -10.9781   14.2264   -0.3965 C.3     1  LIG1        0.0790
     69 H         -11.4563   15.1552   -0.7102 H       1  LIG1        0.0660
     70 H         -11.6914   13.4032   -0.4850 H       1  LIG1        0.0660
     71 H         -10.6351   14.3165    0.6397 H       1  LIG1        0.0660
     72 N         -11.8661   10.7596   -1.6997 N.1     1  LIG1       -0.1906
     73 C         -10.7960   11.1005   -1.3869 C.1     1  LIG1        0.1067
     74 C          -8.1399    9.4015   -0.6172 C.ar    1  LIG1        0.0872
     75 C          -8.9780    8.3859   -0.1316 C.ar    1  LIG1       -0.0185
     76 C          -8.2640    7.1641   -0.2310 C.ar    1  LIG1       -0.0184
     77 C          -7.0042    7.4614   -0.7676 C.ar    1  LIG1        0.0895
     78 N          -6.9386    8.8173   -0.9750 N.ar    1  LIG1       -0.3488
     79 H          -6.1379    9.2929   -1.3665 H       1  LIG1        0.1661
     80 C         -10.3431    8.5530    0.4661 C.3     1  LIG1       -0.0373
     81 H         -10.4667    9.5461    0.9062 H       1  LIG1        0.0278
     82 H         -10.5085    7.8169    1.2587 H       1  LIG1        0.0278
     83 H         -11.1438    8.4287   -0.2711 H       1  LIG1        0.0278
     84 C          -8.7716    5.8095    0.1703 C.3     1  LIG1       -0.0373
     85 H          -7.9613    5.1573    0.5012 H       1  LIG1        0.0278
     86 H          -9.2755    5.3007   -0.6610 H       1  LIG1        0.0278
     87 H          -9.4977    5.8894    0.9848 H       1  LIG1        0.0278
     88 C          -5.9141    6.6013   -1.1442 C.ar    1  LIG1        0.1942
     89 C          -4.6229    6.8555   -1.5504 C.ar    1  LIG1        0.1853
     90 C          -4.0480    5.5888   -1.9209 C.ar    1  LIG1        0.1057
     91 C          -5.0133    4.6549   -1.6810 C.ar    1  LIG1        0.1170
     92 O          -6.1457    5.2474   -1.2152 O.2     1  LIG1       -0.4558
     93 H          -5.0344    3.5806   -1.7767 H       1  LIG1        0.1050
     94 O          -4.0699    8.0989   -1.6347 O.3     1  LIG1       -0.5020
     95 H          -3.1602    8.0852   -1.2724 H       1  LIG1        0.2924
     96 N          -2.7221    5.3921   -2.4149 N.pl3   1  LIG1       -0.3527
     97 H          -2.4115    4.4297   -2.2709 H       1  LIG1        0.1425
     98 H          -2.6764    5.5848   -3.4148 H       1  LIG1        0.1425
@<TRIPOS>BOND
     1    98    96    1
     2    96    97    1
     3    96    90    1
     4    90    91   ar
     5    90    89   ar
     6    93    91    1
     7    72    73    3
     8    24    23    1
     9    91    92   ar
    10    94    89    1
    11    94    95    1
    12    60    59    1
    13    89    88   ar
    14    11    12    3
    15    73    64    1
    16    79    78    1
    17    61    59    1
    18    67    63    1
    19    67    68    1
    20    23    16    1
    21    92    88   ar
    22    88    77    1
    23    63    64   ar
    24    63    62   ar
    25    64    65   ar
    26     8     7    1
    27    59    51    1
    28    78    77   ar
    29    78    74   ar
    30    19    15    1
    31    12     3    1
    32    62    52    1
    33    62    66   ar
    34    51    52   ar
    35    51    50   ar
    36    65    66   ar
    37    65    74    1
    38    77    76   ar
    39    52    53   ar
    40    69    68    1
    41    86    84    1
    42    74    75   ar
    43    50    54    1
    44    50    49   ar
    45    70    68    1
    46    54    55    1
    47    53    49   ar
    48    68    71    1
    49    16    15   ar
    50    16    17   ar
    51    49    43    1
    52    15    14   ar
    53    83    80    1
    54    48    47    1
    55    76    75   ar
    56    76    84    1
    57    38    37    1
    58    37    28    1
    59    37    39    1
    60    75    80    1
    61    43    44   ar
    62    43    42   ar
    63     3     2   ar
    64     3     4   ar
    65    47    42    1
    66    44    40   ar
    67    31    27    1
    68     7     9    1
    69     7     2    1
    70     7    10    1
    71    42    41   ar
    72    84    85    1
    73    84    87    1
    74    28    27   ar
    75    28    29   ar
    76    27    26   ar
    77    40    41   ar
    78    40    29    1
    79    41    46    1
    80     2     1   ar
    81    17    26    1
    82    17    18   ar
    83    80    81    1
    84    80    82    1
    85    29    30   ar
    86    26    25   ar
    87    14     4    1
    88    14    13   ar
    89    56    55    1
    90     4     5   ar
    91    55    57    1
    92    55    58    1
    93    36    33    1
    94    46    45    3
    95    25    30   ar
    96    25    32    1
    97    32    33    1
    98    18    13   ar
    99     1     5   ar
   100     1     6    1
   101    13    20    1
   102    33    34    1
   103    33    35    1
   104    20    22    1
   105    20    21    1
