@<TRIPOS>MOLECULE
mol_data/opt/b3lyp/geoms/mol2/12ie12ie-12ie12ie.out
 50 53 0 0 0
SMALL
GASTEIGER

@<TRIPOS>ATOM
      1 C           0.1009    1.7475    0.0476 C.ar    1  LIG1        0.0968
      2 C           1.4497    1.6794    0.1846 C.ar    1  LIG1        0.0034
      3 C           1.9113    3.0536    0.2029 C.ar    1  LIG1        0.0763
      4 C           0.7802    3.8443    0.0678 C.ar    1  LIG1        0.1855
      5 O          -0.3242    3.0468   -0.0267 O.2     1  LIG1       -0.4583
      6 H          -0.6730    0.9983   -0.0126 H       1  LIG1        0.1032
      7 C           2.3088    0.4607    0.3021 C.3     1  LIG1       -0.0355
      8 H           2.8746    0.4667    1.2399 H       1  LIG1        0.0279
      9 H           3.0401    0.4132   -0.5120 H       1  LIG1        0.0279
     10 H           1.7067   -0.4511    0.2727 H       1  LIG1        0.0279
     11 C           3.2607    3.4469    0.3639 C.1     1  LIG1       -0.0655
     12 C           4.4353    3.7026    0.5157 C.1     1  LIG1       -0.1138
     13 H           5.4632    3.9439    0.6552 H       1  LIG1        0.1232
     14 C           0.5421    5.2568    0.0130 C.ar    1  LIG1        0.1760
     15 C          -0.6120    6.0061    0.0452 C.ar    1  LIG1        0.0145
     16 C          -0.1892    7.3792   -0.0455 C.ar    1  LIG1        0.0771
     17 C           1.1972    7.3634   -0.1269 C.ar    1  LIG1        0.1866
     18 O           1.6409    6.0764   -0.0909 O.2     1  LIG1       -0.4470
     19 C          -2.0308    5.5395    0.1489 C.3     1  LIG1       -0.0348
     20 H          -2.1370    4.7402    0.8860 H       1  LIG1        0.0279
     21 H          -2.3920    5.1452   -0.8078 H       1  LIG1        0.0279
     22 H          -2.6772    6.3734    0.4322 H       1  LIG1        0.0279
     23 C          -1.0558    8.4990   -0.0456 C.1     1  LIG1       -0.0655
     24 C          -1.8428    9.4185   -0.0402 C.1     1  LIG1       -0.1138
     25 H          -2.5110   10.2479   -0.0395 H       1  LIG1        0.1232
     26 C           2.1770    8.4037   -0.2427 C.ar    1  LIG1        0.1761
     27 C           3.5430    8.4220   -0.4229 C.ar    1  LIG1        0.0145
     28 C           3.9044    9.8161   -0.4816 C.ar    1  LIG1        0.0771
     29 C           2.7356   10.5418   -0.3147 C.ar    1  LIG1        0.1865
     30 O           1.6880    9.6853   -0.1741 O.2     1  LIG1       -0.4470
     31 C           4.4999    7.2849   -0.5908 C.3     1  LIG1       -0.0348
     32 H           5.3902    7.4448    0.0266 H       1  LIG1        0.0279
     33 H           4.8436    7.2205   -1.6304 H       1  LIG1        0.0279
     34 H           4.0509    6.3299   -0.3210 H       1  LIG1        0.0279
     35 C           5.2057   10.3085   -0.7501 C.1     1  LIG1       -0.0655
     36 C           6.3304   10.6839   -0.9959 C.1     1  LIG1       -0.1138
     37 H           7.3139   11.0236   -1.2240 H       1  LIG1        0.1232
     38 C           2.4387   11.9497   -0.2641 C.ar    1  LIG1        0.1750
     39 C           3.1129   13.0432    0.2239 C.ar    1  LIG1        0.0138
     40 C           2.2517   14.1752   -0.0412 C.ar    1  LIG1        0.0659
     41 C           1.1296   13.6712   -0.6473 C.ar    1  LIG1        0.1083
     42 O           1.2221   12.3329   -0.7895 O.2     1  LIG1       -0.4583
     43 H           0.2258   14.1349   -1.0100 H       1  LIG1        0.1042
     44 C           4.4252   13.0992    0.9384 C.3     1  LIG1       -0.0348
     45 H           4.4175   13.9095    1.6729 H       1  LIG1        0.0279
     46 H           5.2543   13.2842    0.2469 H       1  LIG1        0.0279
     47 H           4.6378   12.1589    1.4518 H       1  LIG1        0.0279
     48 C           2.5084   15.5309    0.2893 C.1     1  LIG1       -0.0662
     49 C           2.7454   16.6810    0.5817 C.1     1  LIG1       -0.1138
     50 H           2.9456   17.6964    0.8337 H       1  LIG1        0.1232
@<TRIPOS>BOND
     1    33    31    1
     2    37    36    1
     3    43    41    1
     4    36    35    3
     5    21    19    1
     6    42    41   ar
     7    42    38   ar
     8    35    28    1
     9    41    40   ar
    10    31    27    1
    11    31    34    1
    12    31    32    1
    13     9     7    1
    14    28    27   ar
    15    28    29   ar
    16    27    26   ar
    17    29    38    1
    18    29    30   ar
    19    38    39   ar
    20    26    30   ar
    21    26    17    1
    22    17    18   ar
    23    17    16   ar
    24    18    14   ar
    25    23    16    1
    26    23    24    3
    27    16    15   ar
    28    40    39   ar
    29    40    48    1
    30    24    25    1
    31     5     1   ar
    32     5     4   ar
    33     6     1    1
    34    14    15   ar
    35    14     4    1
    36    15    19    1
    37     1     2   ar
    38     4     3   ar
    39    19    22    1
    40    19    20    1
    41     2     3   ar
    42     2     7    1
    43     3    11    1
    44    39    44    1
    45    46    44    1
    46    10     7    1
    47    48    49    3
    48     7     8    1
    49    11    12    3
    50    12    13    1
    51    49    50    1
    52    44    47    1
    53    44    45    1
