@<TRIPOS>MOLECULE
mol_data/opt/b3lyp/geoms/mol2/12ie6fd6eh-6ah-.out
 49 52 0 0 0
SMALL
GASTEIGER

@<TRIPOS>ATOM
      1 C           0.5096    1.6865    1.2330 C.ar    1  LIG1        0.0967
      2 C           1.6601    1.5931    0.5229 C.ar    1  LIG1        0.0033
      3 C           1.9166    2.9243    0.0077 C.ar    1  LIG1        0.0734
      4 C           0.8862    3.7374    0.4517 C.ar    1  LIG1        0.1555
      5 O           0.0274    2.9717    1.2026 O.2     1  LIG1       -0.4612
      6 H          -0.0781    0.9781    1.7948 H       1  LIG1        0.1032
      7 C           2.5121    0.3849    0.2969 C.3     1  LIG1       -0.0355
      8 H           3.5265    0.5432    0.6777 H       1  LIG1        0.0279
      9 H           2.6010    0.1618   -0.7714 H       1  LIG1        0.0279
     10 H           2.0929   -0.4924    0.7955 H       1  LIG1        0.0279
     11 C           3.0301    3.2631   -0.7988 C.1     1  LIG1       -0.0656
     12 C           3.9994    3.4994   -1.4858 C.1     1  LIG1       -0.1138
     13 H           4.8462    3.7213   -2.0940 H       1  LIG1        0.1232
     14 C          -0.6229    5.7538    0.8289 C.ar    1  LIG1        0.2239
     15 C           0.5559    5.1456    0.2900 C.ar    1  LIG1        0.0810
     16 C           1.4027    5.9941   -0.4271 C.ar    1  LIG1       -0.0264
     17 C           1.0955    7.3489   -0.5947 C.ar    1  LIG1        0.0787
     18 C          -0.0996    7.8442   -0.0145 C.ar    1  LIG1        0.0949
     19 N          -0.9115    7.0395    0.6718 N.ar    1  LIG1       -0.2110
     20 H           2.3088    5.6001   -0.8698 H       1  LIG1        0.0640
     21 O          -1.5352    5.0813    1.5458 O.3     1  LIG1       -0.4919
     22 H          -1.2657    4.1523    1.6329 H       1  LIG1        0.2938
     23 N           2.7374    8.8080   -1.9756 N.1     1  LIG1       -0.1908
     24 C           1.9861    8.1669   -1.3591 C.1     1  LIG1        0.1013
     25 C          -1.8119    9.6473   -0.5380 C.ar    1  LIG1        0.1231
     26 C          -0.5093    9.2671   -0.1264 C.ar    1  LIG1        0.0373
     27 C           0.3914   10.2852    0.1745 C.ar    1  LIG1       -0.0271
     28 C           0.0185   11.6317    0.0978 C.ar    1  LIG1        0.0516
     29 C          -1.3299   11.9117   -0.2520 C.ar    1  LIG1        0.0945
     30 N          -2.1812   10.9362   -0.5838 N.ar    1  LIG1       -0.2359
     31 H           1.4044   10.0383    0.4772 H       1  LIG1        0.0644
     32 C          -2.7893    8.6966   -0.9796 C.1     1  LIG1       -0.0491
     33 C          -3.6254    7.9265   -1.3913 C.1     1  LIG1       -0.1124
     34 H          -4.3681    7.2432   -1.7320 H       1  LIG1        0.1232
     35 N           0.9452   12.6278    0.3924 N.pl3   1  LIG1       -0.3563
     36 H           1.9089   12.3489    0.2588 H       1  LIG1        0.1424
     37 H           0.7495   13.5261   -0.0298 H       1  LIG1        0.1424
     38 C          -2.7760   13.6309   -1.3467 C.ar    1  LIG1        0.0369
     39 C          -1.8789   13.2928   -0.3181 C.ar    1  LIG1        0.0220
     40 C          -1.5716   14.2771    0.6292 C.ar    1  LIG1       -0.0289
     41 C          -2.1540   15.5482    0.5240 C.ar    1  LIG1        0.0435
     42 C          -3.0203   15.7703   -0.5611 C.ar    1  LIG1        0.0482
     43 N          -3.3248   14.8416   -1.4682 N.ar    1  LIG1       -0.2608
     44 H          -0.9158   14.0521    1.4658 H       1  LIG1        0.0643
     45 H          -3.4895   16.7468   -0.6852 H       1  LIG1        0.0848
     46 H          -3.0481   12.8843   -2.0862 H       1  LIG1        0.0836
     47 N          -1.9401   16.5318    1.4854 N.pl3   1  LIG1       -0.3568
     48 H          -1.0801   16.4556    2.0101 H       1  LIG1        0.1424
     49 H          -2.1247   17.4792    1.1862 H       1  LIG1        0.1424
@<TRIPOS>BOND
     1    13    12    1
     2    46    38    1
     3    23    24    3
     4    34    33    1
     5    12    11    3
     6    43    38   ar
     7    43    42   ar
     8    33    32    3
     9    24    17    1
    10    38    39   ar
    11    32    25    1
    12    20    16    1
    13    11     3    1
    14     9     7    1
    15    45    42    1
    16    17    16   ar
    17    17    18   ar
    18    30    25   ar
    19    30    29   ar
    20    42    41   ar
    21    25    26   ar
    22    16    15   ar
    23    39    29    1
    24    39    40   ar
    25    29    28   ar
    26    26    18    1
    27    26    27   ar
    28    37    35    1
    29    18    19   ar
    30     3     4   ar
    31     3     2   ar
    32    28    27   ar
    33    28    35    1
    34    27    31    1
    35    36    35    1
    36    15     4    1
    37    15    14   ar
    38     7     2    1
    39     7     8    1
    40     7    10    1
    41     4     5   ar
    42     2     1   ar
    43    41    40   ar
    44    41    47    1
    45    40    44    1
    46    19    14   ar
    47    14    21    1
    48    49    47    1
    49     5     1   ar
    50     1     6    1
    51    47    48    1
    52    21    22    1
