@<TRIPOS>MOLECULE
mol_data/opt/b3lyp/geoms/mol2/12ie12ie12ie.out
 38 40 0 0 0
SMALL
GASTEIGER

@<TRIPOS>ATOM
      1 C           0.4153    1.8613    1.0131 C.ar    1  LIG1        0.0968
      2 C           1.6356    1.7856    0.4200 C.ar    1  LIG1        0.0034
      3 C           1.9132    3.1247   -0.0593 C.ar    1  LIG1        0.0763
      4 C           0.8293    3.9037    0.3086 C.ar    1  LIG1        0.1855
      5 O          -0.0872    3.1294    0.9592 O.2     1  LIG1       -0.4583
      6 H          -0.2120    1.1290    1.4975 H       1  LIG1        0.1032
      7 C           2.5166    0.5875    0.2583 C.3     1  LIG1       -0.0355
      8 H           3.4813    0.7345    0.7560 H       1  LIG1        0.0279
      9 H           2.7281    0.3932   -0.7987 H       1  LIG1        0.0279
     10 H           2.0490   -0.3053    0.6817 H       1  LIG1        0.0279
     11 C           3.0424    3.5013   -0.8271 C.1     1  LIG1       -0.0655
     12 C           4.0171    3.7726   -1.4928 C.1     1  LIG1       -0.1138
     13 H           4.8650    4.0192   -2.0886 H       1  LIG1        0.1232
     14 C           0.5057    5.2989    0.1458 C.ar    1  LIG1        0.1760
     15 C           1.2542    6.4498    0.1561 C.ar    1  LIG1        0.0145
     16 C           0.3187    7.5233   -0.0810 C.ar    1  LIG1        0.0771
     17 C          -0.9355    6.9433   -0.1775 C.ar    1  LIG1        0.1865
     18 O          -0.8246    5.5940   -0.0462 O.2     1  LIG1       -0.4470
     19 C           2.7219    6.6147    0.3896 C.3     1  LIG1       -0.0348
     20 H           2.9146    7.5474    0.9274 H       1  LIG1        0.0279
     21 H           3.2788    6.6539   -0.5527 H       1  LIG1        0.0279
     22 H           3.1257    5.7819    0.9690 H       1  LIG1        0.0279
     23 C           0.6632    8.8891   -0.2341 C.1     1  LIG1       -0.0655
     24 C           1.0049   10.0428   -0.3704 C.1     1  LIG1       -0.1138
     25 H           1.2962   11.0587   -0.5046 H       1  LIG1        0.1232
     26 C          -2.2607    7.4732   -0.3791 C.ar    1  LIG1        0.1750
     27 C          -2.8957    8.6191    0.0328 C.ar    1  LIG1        0.0138
     28 C          -4.2314    8.5382   -0.5185 C.ar    1  LIG1        0.0659
     29 C          -4.2951    7.3491   -1.1983 C.ar    1  LIG1        0.1083
     30 O          -3.1188    6.6925   -1.1259 O.2     1  LIG1       -0.4583
     31 H          -5.0855    6.8660   -1.7510 H       1  LIG1        0.1042
     32 C          -2.3846    9.7148    0.9127 C.3     1  LIG1       -0.0348
     33 H          -3.1950   10.1042    1.5358 H       1  LIG1        0.0279
     34 H          -1.9858   10.5501    0.3271 H       1  LIG1        0.0279
     35 H          -1.5799    9.3608    1.5605 H       1  LIG1        0.0279
     36 C          -5.2727    9.4885   -0.3585 C.1     1  LIG1       -0.0662
     37 C          -6.1479   10.3105   -0.2080 C.1     1  LIG1       -0.1138
     38 H          -6.9243   11.0289   -0.0824 H       1  LIG1        0.1232
@<TRIPOS>BOND
     1    13    12    1
     2    31    29    1
     3    12    11    3
     4    29    30   ar
     5    29    28   ar
     6    30    26   ar
     7    11     3    1
     8     9     7    1
     9    21    19    1
    10    28    36    1
    11    28    27   ar
    12    25    24    1
    13    26    17    1
    14    26    27   ar
    15    24    23    3
    16    36    37    3
    17    23    16    1
    18    37    38    1
    19    17    16   ar
    20    17    18   ar
    21    16    15   ar
    22     3     4   ar
    23     3     2   ar
    24    18    14   ar
    25    27    32    1
    26    14    15   ar
    27    14     4    1
    28    15    19    1
    29     7     2    1
    30     7    10    1
    31     7     8    1
    32     4     5   ar
    33    34    32    1
    34    19    20    1
    35    19    22    1
    36     2     1   ar
    37    32    33    1
    38    32    35    1
    39     5     1   ar
    40     1     6    1
