@<TRIPOS>MOLECULE
mol_data/opt/b3lyp/geoms/mol2/12ie12ie.out
 26 27 0 0 0
SMALL
GASTEIGER

@<TRIPOS>ATOM
      1 C           0.2084    1.8509    0.4879 C.ar    1  LIG1        0.0968
      2 C           1.5264    1.8099    0.1604 C.ar    1  LIG1        0.0034
      3 C           1.8856    3.1778   -0.1574 C.ar    1  LIG1        0.0763
      4 C           0.7420    3.9348    0.0268 C.ar    1  LIG1        0.1855
      5 O          -0.2835    3.1231    0.4167 O.2     1  LIG1       -0.4583
      6 H          -0.4997    1.0904    0.7788 H       1  LIG1        0.1032
      7 C           2.4330    0.6212    0.1057 C.3     1  LIG1       -0.0355
      8 H           3.2727    0.7307    0.8006 H       1  LIG1        0.0279
      9 H           2.8600    0.4964   -0.8952 H       1  LIG1        0.0279
     10 H           1.8964   -0.2956    0.3635 H       1  LIG1        0.0279
     11 C           3.1472    3.6042   -0.6403 C.1     1  LIG1       -0.0655
     12 C           4.2369    3.9215   -1.0630 C.1     1  LIG1       -0.1138
     13 H           5.1884    4.2088   -1.4462 H       1  LIG1        0.1232
     14 C           0.4501    5.3411   -0.1054 C.ar    1  LIG1        0.1750
     15 C           1.1647    6.4833    0.1563 C.ar    1  LIG1        0.0138
     16 C           0.2862    7.5775   -0.1997 C.ar    1  LIG1        0.0659
     17 C          -0.8845    7.0066   -0.6274 C.ar    1  LIG1        0.1083
     18 O          -0.8062    5.6599   -0.5784 O.2     1  LIG1       -0.4583
     19 H          -1.8162    7.4247   -0.9748 H       1  LIG1        0.1042
     20 C           2.5355    6.6222    0.7373 C.3     1  LIG1       -0.0348
     21 H           2.5862    7.5114    1.3724 H       1  LIG1        0.0279
     22 H           3.2962    6.7286   -0.0437 H       1  LIG1        0.0279
     23 H           2.8042    5.7469    1.3326 H       1  LIG1        0.0279
     24 C           0.5739    8.9630   -0.0958 C.1     1  LIG1       -0.0662
     25 C           0.8390   10.1396    0.0027 C.1     1  LIG1       -0.1138
     26 H           1.0636   11.1776    0.0846 H       1  LIG1        0.1232
@<TRIPOS>BOND
     1    13    12    1
     2    12    11    3
     3    19    17    1
     4     9     7    1
     5    11     3    1
     6    17    18   ar
     7    17    16   ar
     8    18    14   ar
     9    16    24    1
    10    16    15   ar
    11     3     4   ar
    12     3     2   ar
    13    14     4    1
    14    14    15   ar
    15    24    25    3
    16    22    20    1
    17    25    26    1
    18     4     5   ar
    19     7     2    1
    20     7    10    1
    21     7     8    1
    22    15    20    1
    23     2     1   ar
    24     5     1   ar
    25     1     6    1
    26    20    23    1
    27    20    21    1
