@<TRIPOS>MOLECULE
mol_data/opt/b3lyp/geoms/mol2/12ie12ie12ie-12ie.out
 50 53 0 0 0
SMALL
GASTEIGER

@<TRIPOS>ATOM
      1 C           0.3844    1.7033    0.4785 C.ar    1  LIG1        0.0968
      2 C           1.6231    1.7200   -0.0793 C.ar    1  LIG1        0.0034
      3 C           1.9344    3.1206   -0.2848 C.ar    1  LIG1        0.0763
      4 C           0.8487    3.8359    0.1925 C.ar    1  LIG1        0.1855
      5 O          -0.1006    2.9687    0.6531 O.2     1  LIG1       -0.4583
      6 H          -0.2681    0.9038    0.7940 H       1  LIG1        0.1032
      7 C           2.4946    0.5590   -0.4399 C.3     1  LIG1       -0.0355
      8 H           3.4429    0.5903    0.1077 H       1  LIG1        0.0279
      9 H           2.7410    0.5677   -1.5071 H       1  LIG1        0.0279
     10 H           2.0020   -0.3897   -0.2115 H       1  LIG1        0.0279
     11 C           3.0928    3.6142   -0.9329 C.1     1  LIG1       -0.0655
     12 C           4.0922    3.9874   -1.5064 C.1     1  LIG1       -0.1138
     13 H           4.9625    4.3257   -2.0190 H       1  LIG1        0.1232
     14 C           0.5446    5.2392    0.2899 C.ar    1  LIG1        0.1760
     15 C           1.2955    6.3646    0.5222 C.ar    1  LIG1        0.0145
     16 C           0.3666    7.4691    0.5103 C.ar    1  LIG1        0.0771
     17 C          -0.8910    6.9258    0.2847 C.ar    1  LIG1        0.1866
     18 O          -0.7849    5.5766    0.1478 O.2     1  LIG1       -0.4470
     19 C           2.7602    6.4716    0.8029 C.3     1  LIG1       -0.0348
     20 H           2.9486    7.2961    1.4961 H       1  LIG1        0.0279
     21 H           3.3324    6.6676   -0.1102 H       1  LIG1        0.0279
     22 H           3.1486    5.5475    1.2358 H       1  LIG1        0.0279
     23 C           0.7165    8.8177    0.7598 C.1     1  LIG1       -0.0655
     24 C           1.0899    9.9462    0.9934 C.1     1  LIG1       -0.1138
     25 H           1.4002   10.9432    1.2034 H       1  LIG1        0.1232
     26 C          -2.2120    7.4695    0.1812 C.ar    1  LIG1        0.1761
     27 C          -3.4609    6.8904    0.1590 C.ar    1  LIG1        0.0145
     28 C          -4.3946    7.9802    0.0426 C.ar    1  LIG1        0.0771
     29 C          -3.6418    9.1460    0.0031 C.ar    1  LIG1        0.1865
     30 O          -2.3193    8.8383    0.0873 O.2     1  LIG1       -0.4470
     31 C          -3.8311    5.4421    0.2305 C.3     1  LIG1       -0.0348
     32 H          -3.0849    4.8610    0.7736 H       1  LIG1        0.0279
     33 H          -3.9156    5.0085   -0.7734 H       1  LIG1        0.0279
     34 H          -4.8039    5.3277    0.7160 H       1  LIG1        0.0279
     35 C          -5.8027    7.8393   -0.0140 C.1     1  LIG1       -0.0655
     36 C          -6.9984    7.6558   -0.0574 C.1     1  LIG1       -0.1138
     37 H          -8.0538    7.5185   -0.0984 H       1  LIG1        0.1232
     38 C          -3.9968   10.5318   -0.1140 C.ar    1  LIG1        0.1750
     39 C          -3.2814   11.6991   -0.2647 C.ar    1  LIG1        0.0138
     40 C          -4.2740   12.7491   -0.3276 C.ar    1  LIG1        0.0659
     41 C          -5.4948   12.1358   -0.2127 C.ar    1  LIG1        0.1083
     42 O          -5.3466   10.8004   -0.0831 O.2     1  LIG1       -0.4583
     43 H          -6.5054   12.5122   -0.2047 H       1  LIG1        0.1042
     44 C          -1.8049   11.9071   -0.3811 C.3     1  LIG1       -0.0348
     45 H          -1.4966   12.7695    0.2190 H       1  LIG1        0.0279
     46 H          -1.5256   12.1272   -1.4189 H       1  LIG1        0.0279
     47 H          -1.2422   11.0319   -0.0583 H       1  LIG1        0.0279
     48 C          -4.0263   14.1382   -0.4762 C.1     1  LIG1       -0.0662
     49 C          -3.7945   15.3192   -0.6019 C.1     1  LIG1       -0.1138
     50 H          -3.5998   16.3605   -0.7137 H       1  LIG1        0.1232
@<TRIPOS>BOND
     1    13    12    1
     2     9     7    1
     3    12    11    3
     4    46    44    1
     5    11     3    1
     6    33    31    1
     7    50    49    1
     8    49    48    3
     9    48    40    1
    10     7    10    1
    11     7     2    1
    12     7     8    1
    13    44    39    1
    14    44    47    1
    15    44    45    1
    16    40    39   ar
    17    40    41   ar
    18     3     2   ar
    19     3     4   ar
    20    39    38   ar
    21    41    43    1
    22    41    42   ar
    23    38    42   ar
    24    38    29    1
    25    21    19    1
    26    37    36    1
    27     2     1   ar
    28    36    35    3
    29    35    28    1
    30    29    28   ar
    31    29    30   ar
    32    28    27   ar
    33    30    26   ar
    34    18    17   ar
    35    18    14   ar
    36    27    26   ar
    37    27    31    1
    38    26    17    1
    39     4    14    1
    40     4     5   ar
    41    31    34    1
    42    31    32    1
    43    17    16   ar
    44    14    15   ar
    45     1     5   ar
    46     1     6    1
    47    16    15   ar
    48    16    23    1
    49    15    19    1
    50    23    24    3
    51    19    22    1
    52    19    20    1
    53    24    25    1
