@<TRIPOS>MOLECULE
mol_data/opt/b3lyp/geoms/mol2/12ie12ie12ie12ie.out
 50 53 0 0 0
SMALL
GASTEIGER

@<TRIPOS>ATOM
      1 C           0.7808    2.0759    1.7701 C.ar    1  LIG1        0.0968
      2 C           1.8570    1.8851    0.9626 C.ar    1  LIG1        0.0034
      3 C           1.9989    3.1180    0.2145 C.ar    1  LIG1        0.0763
      4 C           0.9931    3.9607    0.6564 C.ar    1  LIG1        0.1855
      5 O           0.2469    3.3210    1.6031 O.2     1  LIG1       -0.4583
      6 H           0.2826    1.4453    2.4903 H       1  LIG1        0.1032
      7 C           2.7157    0.6671    0.8317 C.3     1  LIG1       -0.0355
      8 H           3.7574    0.8866    1.0898 H       1  LIG1        0.0279
      9 H           2.7131    0.2917   -0.1972 H       1  LIG1        0.0279
     10 H           2.3653   -0.1344    1.4873 H       1  LIG1        0.0279
     11 C           2.9396    3.3436   -0.8202 C.1     1  LIG1       -0.0655
     12 C           3.7523    3.4848   -1.7069 C.1     1  LIG1       -0.1138
     13 H           4.4554    3.6150   -2.4965 H       1  LIG1        0.1232
     14 C           0.6089    5.3099    0.3250 C.ar    1  LIG1        0.1760
     15 C           1.3164    6.4364   -0.0160 C.ar    1  LIG1        0.0145
     16 C           0.3272    7.4629   -0.2399 C.ar    1  LIG1        0.0771
     17 C          -0.9071    6.8895    0.0222 C.ar    1  LIG1        0.1866
     18 O          -0.7388    5.5822    0.3590 O.2     1  LIG1       -0.4470
     19 C           2.7967    6.6216   -0.1177 C.3     1  LIG1       -0.0348
     20 H           3.0722    7.6313    0.2000 H       1  LIG1        0.0279
     21 H           3.1506    6.4890   -1.1457 H       1  LIG1        0.0279
     22 H           3.3286    5.8976    0.5030 H       1  LIG1        0.0279
     23 C           0.6031    8.7754   -0.6966 C.1     1  LIG1       -0.0655
     24 C           0.8866    9.8813   -1.1002 C.1     1  LIG1       -0.1138
     25 H           1.1234   10.8528   -1.4678 H       1  LIG1        0.1232
     26 C          -2.2582    7.3884    0.0044 C.ar    1  LIG1        0.1761
     27 C          -2.8248    8.5993    0.3199 C.ar    1  LIG1        0.0145
     28 C          -4.2374    8.4434    0.0700 C.ar    1  LIG1        0.0771
     29 C          -4.4262    7.1338   -0.3414 C.ar    1  LIG1        0.1865
     30 O          -3.2279    6.4934   -0.3867 O.2     1  LIG1       -0.4470
     31 C          -2.1709    9.8362    0.8475 C.3     1  LIG1       -0.0348
     32 H          -2.8425   10.3483    1.5425 H       1  LIG1        0.0279
     33 H          -1.9275   10.5388    0.0433 H       1  LIG1        0.0279
     34 H          -1.2385    9.6012    1.3645 H       1  LIG1        0.0279
     35 C          -5.2052    9.4722    0.1820 C.1     1  LIG1       -0.0655
     36 C          -5.9947   10.3852    0.2790 C.1     1  LIG1       -0.1138
     37 H          -6.6956   11.1844    0.3489 H       1  LIG1        0.1232
     38 C          -5.5897    6.3680   -0.7115 C.ar    1  LIG1        0.1750
     39 C          -6.8905    6.3473   -0.2713 C.ar    1  LIG1        0.0138
     40 C          -7.5500    5.3349   -1.0676 C.ar    1  LIG1        0.0659
     41 C          -6.5931    4.8207   -1.9046 C.ar    1  LIG1        0.1083
     42 O          -5.4058    5.4288   -1.7052 O.2     1  LIG1       -0.4583
     43 H          -6.6203    4.0475   -2.6562 H       1  LIG1        0.1042
     44 C          -7.5254    7.1341    0.8306 C.3     1  LIG1       -0.0348
     45 H          -8.2836    6.5280    1.3347 H       1  LIG1        0.0279
     46 H          -8.0193    8.0349    0.4506 H       1  LIG1        0.0279
     47 H          -6.7852    7.4572    1.5655 H       1  LIG1        0.0279
     48 C          -8.9087    4.9368   -0.9752 C.1     1  LIG1       -0.0662
     49 C         -10.0700    4.6107   -0.8788 C.1     1  LIG1       -0.1138
     50 H         -11.0913    4.3177   -0.8024 H       1  LIG1        0.1232
@<TRIPOS>BOND
     1    43    41    1
     2    13    12    1
     3    41    42   ar
     4    41    40   ar
     5    12    11    3
     6    42    38   ar
     7    25    24    1
     8    21    19    1
     9    24    23    3
    10    40    48    1
    11    40    39   ar
    12    48    49    3
    13    49    50    1
    14    11     3    1
    15    38    29    1
    16    38    39   ar
    17    23    16    1
    18    30    29   ar
    19    30    26   ar
    20    29    28   ar
    21    39    44    1
    22    16    15   ar
    23    16    17   ar
    24     9     7    1
    25    19    15    1
    26    19    20    1
    27    19    22    1
    28    15    14   ar
    29    26    17    1
    30    26    27   ar
    31    17    18   ar
    32    33    31    1
    33    28    35    1
    34    28    27   ar
    35    35    36    3
    36     3     4   ar
    37     3     2   ar
    38    36    37    1
    39    27    31    1
    40    14    18   ar
    41    14     4    1
    42    46    44    1
    43     4     5   ar
    44    44    45    1
    45    44    47    1
    46     7     2    1
    47     7     8    1
    48     7    10    1
    49    31    34    1
    50    31    32    1
    51     2     1   ar
    52     5     1   ar
    53     1     6    1
