@<TRIPOS>MOLECULE
mol_data/opt/b3lyp/geoms/mol2/12ie12ie-12ie12ie-.out
 50 53 0 0 0
SMALL
GASTEIGER

@<TRIPOS>ATOM
      1 C           0.1814    1.7281    0.0352 C.ar    1  LIG1        0.0968
      2 C           1.4961    1.7091   -0.3029 C.ar    1  LIG1        0.0034
      3 C           1.9125    3.0974   -0.3338 C.ar    1  LIG1        0.0763
      4 C           0.7933    3.8448   -0.0003 C.ar    1  LIG1        0.1855
      5 O          -0.2629    3.0094    0.2249 O.2     1  LIG1       -0.4583
      6 H          -0.5543    0.9523    0.1787 H       1  LIG1        0.1032
      7 C           2.3607    0.5240   -0.5948 C.3     1  LIG1       -0.0355
      8 H           3.2040    0.4696    0.1022 H       1  LIG1        0.0279
      9 H           2.7831    0.5835   -1.6035 H       1  LIG1        0.0279
     10 H           1.7937   -0.4072   -0.5166 H       1  LIG1        0.0279
     11 C           3.2096    3.5452   -0.6781 C.1     1  LIG1       -0.0655
     12 C           4.3378    3.8564   -0.9916 C.1     1  LIG1       -0.1138
     13 H           5.3224    4.1467   -1.2758 H       1  LIG1        0.1232
     14 C           0.5351    5.2472    0.1466 C.ar    1  LIG1        0.1760
     15 C          -0.6225    5.9705    0.3188 C.ar    1  LIG1        0.0145
     16 C          -0.2126    7.3490    0.4028 C.ar    1  LIG1        0.0771
     17 C           1.1702    7.3630    0.2681 C.ar    1  LIG1        0.1866
     18 O           1.6220    6.0874    0.1137 O.2     1  LIG1       -0.4470
     19 C          -2.0318    5.4753    0.4192 C.3     1  LIG1       -0.0348
     20 H          -2.2466    5.0853    1.4209 H       1  LIG1        0.0279
     21 H          -2.2231    4.6660   -0.2888 H       1  LIG1        0.0279
     22 H          -2.7305    6.2923    0.2245 H       1  LIG1        0.0279
     23 C          -1.0901    8.4382    0.6215 C.1     1  LIG1       -0.0655
     24 C          -1.8996    9.3166    0.8220 C.1     1  LIG1       -0.1138
     25 H          -2.5956   10.1009    1.0098 H       1  LIG1        0.1232
     26 C           2.1532    8.4057    0.2737 C.ar    1  LIG1        0.1761
     27 C           3.5225    8.4181    0.4213 C.ar    1  LIG1        0.0145
     28 C           3.9111    9.8029    0.3500 C.ar    1  LIG1        0.0771
     29 C           2.7462   10.5342    0.1634 C.ar    1  LIG1        0.1865
     30 O           1.6809    9.6907    0.1174 O.2     1  LIG1       -0.4470
     31 C           4.4614    7.2780    0.6601 C.3     1  LIG1       -0.0348
     32 H           4.6529    7.1520    1.7330 H       1  LIG1        0.0279
     33 H           5.4262    7.4836    0.1872 H       1  LIG1        0.0279
     34 H           4.0688    6.3363    0.2768 H       1  LIG1        0.0279
     35 C           5.2419   10.2777    0.4462 C.1     1  LIG1       -0.0655
     36 C           6.3986   10.6242    0.5315 C.1     1  LIG1       -0.1138
     37 H           7.4090   10.9525    0.6076 H       1  LIG1        0.1232
     38 C           2.4902   11.9370    0.0030 C.ar    1  LIG1        0.1750
     39 C           1.3726   12.6806   -0.3062 C.ar    1  LIG1        0.0138
     40 C           1.8207   14.0557   -0.3142 C.ar    1  LIG1        0.0659
     41 C           3.1584   14.0296   -0.0145 C.ar    1  LIG1        0.1083
     42 O           3.5781   12.7616    0.1801 O.2     1  LIG1       -0.4583
     43 H           3.9000   14.8053    0.0921 H       1  LIG1        0.1042
     44 C          -0.0184   12.2282   -0.6186 C.3     1  LIG1       -0.0348
     45 H          -0.2218   11.2309   -0.2291 H       1  LIG1        0.0279
     46 H          -0.1857   12.2062   -1.7027 H       1  LIG1        0.0279
     47 H          -0.7456   12.9309   -0.1997 H       1  LIG1        0.0279
     48 C           1.0273   15.2021   -0.5781 C.1     1  LIG1       -0.0662
     49 C           0.3343   16.1679   -0.8043 C.1     1  LIG1       -0.1138
     50 H          -0.2679   17.0237   -1.0039 H       1  LIG1        0.1232
@<TRIPOS>BOND
     1    46    44    1
     2     9     7    1
     3    13    12    1
     4    50    49    1
     5    12    11    3
     6    49    48    3
     7    11     3    1
     8    44    39    1
     9    44    45    1
    10    44    47    1
    11     7    10    1
    12     7     2    1
    13     7     8    1
    14    48    40    1
    15     3     2   ar
    16     3     4   ar
    17    40    39   ar
    18    40    41   ar
    19    39    38   ar
    20     2     1   ar
    21    21    19    1
    22    41    43    1
    23    41    42   ar
    24     4    14    1
    25     4     5   ar
    26    38    29    1
    27    38    42   ar
    28     1     6    1
    29     1     5   ar
    30    18    14   ar
    31    18    17   ar
    32    30    29   ar
    33    30    26   ar
    34    14    15   ar
    35    29    28   ar
    36    33    31    1
    37    22    19    1
    38    17    26    1
    39    17    16   ar
    40    26    27   ar
    41    34    31    1
    42    15    16   ar
    43    15    19    1
    44    28    27   ar
    45    28    35    1
    46    16    23    1
    47    19    20    1
    48    27    31    1
    49    35    36    3
    50    36    37    1
    51    23    24    3
    52    31    32    1
    53    24    25    1
