@<TRIPOS>MOLECULE
mol_data/opt/b3lyp/geoms/mol2/12ie12ie12ie-12ie-.out
 50 53 0 0 0
SMALL
GASTEIGER

@<TRIPOS>ATOM
      1 C           0.4083    1.7472    0.7255 C.ar    1  LIG1        0.0968
      2 C           1.6632    1.7318    0.2055 C.ar    1  LIG1        0.0034
      3 C           1.9704    3.1144   -0.1018 C.ar    1  LIG1        0.0763
      4 C           0.8653    3.8549    0.2842 C.ar    1  LIG1        0.1855
      5 O          -0.0912    3.0176    0.7841 O.2     1  LIG1       -0.4583
      6 H          -0.2476    0.9689    1.0839 H       1  LIG1        0.1032
      7 C           2.5534    0.5538   -0.0350 C.3     1  LIG1       -0.0355
      8 H           3.4815    0.6341    0.5414 H       1  LIG1        0.0279
      9 H           2.8374    0.4831   -1.0904 H       1  LIG1        0.0279
     10 H           2.0580   -0.3787    0.2478 H       1  LIG1        0.0279
     11 C           3.1444    3.5647   -0.7533 C.1     1  LIG1       -0.0655
     12 C           4.1581    3.8984   -1.3261 C.1     1  LIG1       -0.1138
     13 H           5.0412    4.2020   -1.8387 H       1  LIG1        0.1232
     14 C           0.5468    5.2584    0.2620 C.ar    1  LIG1        0.1760
     15 C           1.2814    6.4077    0.4207 C.ar    1  LIG1        0.0145
     16 C           0.3431    7.4967    0.2981 C.ar    1  LIG1        0.0771
     17 C          -0.9027    6.9216    0.0909 C.ar    1  LIG1        0.1866
     18 O          -0.7825    5.5677    0.0647 O.2     1  LIG1       -0.4470
     19 C           2.7386    6.5551    0.7212 C.3     1  LIG1       -0.0348
     20 H           2.9044    7.4428    1.3377 H       1  LIG1        0.0279
     21 H           3.3291    6.6707   -0.1940 H       1  LIG1        0.0279
     22 H           3.1255    5.6794    1.2465 H       1  LIG1        0.0279
     23 C           0.6668    8.8696    0.4170 C.1     1  LIG1       -0.0655
     24 C           0.9966   10.0287    0.5306 C.1     1  LIG1       -0.1138
     25 H           1.2601   11.0565    0.6234 H       1  LIG1        0.1232
     26 C          -2.2212    7.4561   -0.0835 C.ar    1  LIG1        0.1761
     27 C          -3.4643    6.8767   -0.2133 C.ar    1  LIG1        0.0145
     28 C          -4.3837    7.9748   -0.3735 C.ar    1  LIG1        0.0771
     29 C          -3.6341    9.1391   -0.3064 C.ar    1  LIG1        0.1865
     30 O          -2.3211    8.8231   -0.1355 O.2     1  LIG1       -0.4470
     31 C          -3.8367    5.4269   -0.2319 C.3     1  LIG1       -0.0348
     32 H          -3.1067    4.8176    0.3013 H       1  LIG1        0.0279
     33 H          -3.8946    5.0492   -1.2602 H       1  LIG1        0.0279
     34 H          -4.8228    5.2847    0.2190 H       1  LIG1        0.0279
     35 C          -5.7719    7.8458   -0.6276 C.1     1  LIG1       -0.0655
     36 C          -6.9505    7.6878   -0.8558 C.1     1  LIG1       -0.1138
     37 H          -7.9862    7.5594   -1.0695 H       1  LIG1        0.1232
     38 C          -3.9636   10.5389   -0.3793 C.ar    1  LIG1        0.1750
     39 C          -5.0380   11.2828    0.0454 C.ar    1  LIG1        0.0138
     40 C          -4.7399   12.6445   -0.3424 C.ar    1  LIG1        0.0659
     41 C          -3.5107   12.6112   -0.9494 C.ar    1  LIG1        0.1083
     42 O          -3.0260   11.3526   -0.9808 O.2     1  LIG1       -0.4583
     43 H          -2.8897   13.3795   -1.3824 H       1  LIG1        0.1042
     44 C          -6.2488   10.8416    0.8039 C.3     1  LIG1       -0.0348
     45 H          -6.0454    9.9404    1.3863 H       1  LIG1        0.0279
     46 H          -7.0840   10.6118    0.1337 H       1  LIG1        0.0279
     47 H          -6.5756   11.6351    1.4819 H       1  LIG1        0.0279
     48 C          -5.5478   13.7875   -0.1103 C.1     1  LIG1       -0.0662
     49 C          -6.2506   14.7500    0.0996 C.1     1  LIG1       -0.1138
     50 H          -6.8633   15.6028    0.2785 H       1  LIG1        0.1232
@<TRIPOS>BOND
     1    13    12    1
     2    43    41    1
     3    12    11    3
     4    33    31    1
     5     9     7    1
     6    37    36    1
     7    42    41   ar
     8    42    38   ar
     9    41    40   ar
    10    36    35    3
    11    11     3    1
    12    35    28    1
    13    38    29    1
    14    38    39   ar
    15    28    29   ar
    16    28    27   ar
    17    40    48    1
    18    40    39   ar
    19    29    30   ar
    20    31    27    1
    21    31    34    1
    22    31    32    1
    23    27    26   ar
    24    21    19    1
    25    30    26   ar
    26    48    49    3
    27     3     2   ar
    28     3     4   ar
    29    26    17    1
    30     7     2    1
    31     7    10    1
    32     7     8    1
    33    39    44    1
    34    18    17   ar
    35    18    14   ar
    36    17    16   ar
    37    49    50    1
    38    46    44    1
    39     2     1   ar
    40    14     4    1
    41    14    15   ar
    42     4     5   ar
    43    16    23    1
    44    16    15   ar
    45    23    24    3
    46    15    19    1
    47    24    25    1
    48    19    22    1
    49    19    20    1
    50     1     5   ar
    51     1     6    1
    52    44    45    1
    53    44    47    1
