@<TRIPOS>MOLECULE
mol_data/opt/b3lyp/geoms/mol2/12ie12ie12ie12ie-.out
 50 53 0 0 0
SMALL
GASTEIGER

@<TRIPOS>ATOM
      1 C           0.8548    2.1108    1.8183 C.ar    1  LIG1        0.0968
      2 C           1.8961    1.9154    0.9675 C.ar    1  LIG1        0.0034
      3 C           2.0039    3.1426    0.2043 C.ar    1  LIG1        0.0763
      4 C           1.0165    3.9878    0.6822 C.ar    1  LIG1        0.1855
      5 O           0.3118    3.3539    1.6644 O.2     1  LIG1       -0.4583
      6 H           0.3891    1.4853    2.5643 H       1  LIG1        0.1032
      7 C           2.7508    0.6977    0.8102 C.3     1  LIG1       -0.0355
      8 H           3.8029    0.9226    1.0161 H       1  LIG1        0.0279
      9 H           2.7007    0.3100   -0.2129 H       1  LIG1        0.0279
     10 H           2.4339   -0.0966    1.4912 H       1  LIG1        0.0279
     11 C           2.8989    3.3604   -0.8717 C.1     1  LIG1       -0.0655
     12 C           3.6727    3.4945   -1.7937 C.1     1  LIG1       -0.1138
     13 H           4.3416    3.6186   -2.6134 H       1  LIG1        0.1232
     14 C           0.6167    5.3340    0.3590 C.ar    1  LIG1        0.1760
     15 C           1.3045    6.4587   -0.0245 C.ar    1  LIG1        0.0145
     16 C           0.3049    7.4831   -0.2094 C.ar    1  LIG1        0.0771
     17 C          -0.9154    6.9113    0.1176 C.ar    1  LIG1        0.1866
     18 O          -0.7293    5.6059    0.4558 O.2     1  LIG1       -0.4470
     19 C           2.7778    6.6450   -0.1989 C.3     1  LIG1       -0.0348
     20 H           3.0660    7.6584    0.0948 H       1  LIG1        0.0279
     21 H           3.0823    6.5024   -1.2413 H       1  LIG1        0.0279
     22 H           3.3404    5.9284    0.4030 H       1  LIG1        0.0279
     23 C           0.5598    8.7900   -0.6925 C.1     1  LIG1       -0.0655
     24 C           0.8271    9.8902   -1.1225 C.1     1  LIG1       -0.1138
     25 H           1.0482   10.8571   -1.5112 H       1  LIG1        0.1232
     26 C          -2.2668    7.4011    0.1620 C.ar    1  LIG1        0.1761
     27 C          -2.8382    8.6151    0.4569 C.ar    1  LIG1        0.0145
     28 C          -4.2621    8.4232    0.3274 C.ar    1  LIG1        0.0771
     29 C          -4.4503    7.0931   -0.0196 C.ar    1  LIG1        0.1865
     30 O          -3.2470    6.4730   -0.1238 O.2     1  LIG1       -0.4470
     31 C          -2.1780    9.8843    0.8919 C.3     1  LIG1       -0.0348
     32 H          -2.8326   10.4276    1.5789 H       1  LIG1        0.0279
     33 H          -1.9693   10.5421    0.0415 H       1  LIG1        0.0279
     34 H          -1.2262    9.6867    1.3889 H       1  LIG1        0.0279
     35 C          -5.2430    9.4174    0.5603 C.1     1  LIG1       -0.0655
     36 C          -6.0383   10.3047    0.7739 C.1     1  LIG1       -0.1138
     37 H          -6.7558   11.0708    0.9552 H       1  LIG1        0.1232
     38 C          -5.6136    6.2920   -0.2713 C.ar    1  LIG1        0.1750
     39 C          -5.8013    4.9541   -0.5378 C.ar    1  LIG1        0.0138
     40 C          -7.2304    4.7948   -0.6908 C.ar    1  LIG1        0.0659
     41 C          -7.7812    6.0368   -0.5035 C.ar    1  LIG1        0.1083
     42 O          -6.8202    6.9511   -0.2497 O.2     1  LIG1       -0.4583
     43 H          -8.7976    6.3967   -0.5189 H       1  LIG1        0.1042
     44 C          -4.7884    3.8593   -0.6659 C.3     1  LIG1       -0.0348
     45 H          -3.8754    4.0860   -0.1147 H       1  LIG1        0.0279
     46 H          -4.5101    3.7024   -1.7154 H       1  LIG1        0.0279
     47 H          -5.2047    2.9166   -0.2994 H       1  LIG1        0.0279
     48 C          -7.9227    3.5879   -0.9694 C.1     1  LIG1       -0.0662
     49 C          -8.4951    2.5484   -1.2057 C.1     1  LIG1       -0.1138
     50 H          -9.0069    1.6379   -1.4150 H       1  LIG1        0.1232
@<TRIPOS>BOND
     1    13    12    1
     2    12    11    3
     3    46    44    1
     4    25    24    1
     5    50    49    1
     6    21    19    1
     7    49    48    3
     8    24    23    3
     9    48    40    1
    10    11     3    1
    11    23    16    1
    12    40    39   ar
    13    40    41   ar
    14    44    39    1
    15    44    47    1
    16    44    45    1
    17    39    38   ar
    18    43    41    1
    19    41    42   ar
    20    38    42   ar
    21    38    29    1
    22     9     7    1
    23    16    15   ar
    24    16    17   ar
    25    19    15    1
    26    19    20    1
    27    19    22    1
    28    30    29   ar
    29    30    26   ar
    30    15    14   ar
    31    29    28   ar
    32    33    31    1
    33    17    26    1
    34    17    18   ar
    35    26    27   ar
    36     3     4   ar
    37     3     2   ar
    38    28    27   ar
    39    28    35    1
    40    14    18   ar
    41    14     4    1
    42    27    31    1
    43    35    36    3
    44     4     5   ar
    45    36    37    1
    46     7     2    1
    47     7     8    1
    48     7    10    1
    49    31    34    1
    50    31    32    1
    51     2     1   ar
    52     5     1   ar
    53     1     6    1
