@<TRIPOS>MOLECULE
mol_data/opt/b3lyp/geoms/mol2/12ie12ie-12ie.out
 38 40 0 0 0
SMALL
GASTEIGER

@<TRIPOS>ATOM
      1 C           0.1217    1.8041   -0.2745 C.ar    1  LIG1        0.0968
      2 C           1.4599    1.7330   -0.0581 C.ar    1  LIG1        0.0034
      3 C           1.9050    3.1044    0.0955 C.ar    1  LIG1        0.0763
      4 C           0.7768    3.8968   -0.0501 C.ar    1  LIG1        0.1855
      5 O          -0.3112    3.1032   -0.2761 O.2     1  LIG1       -0.4583
      6 H          -0.6393    1.0578   -0.4411 H       1  LIG1        0.1032
      7 C           2.3231    0.5139    0.0187 C.3     1  LIG1       -0.0355
      8 H           2.8277    0.4490    0.9886 H       1  LIG1        0.0279
      9 H           3.1054    0.5358   -0.7476 H       1  LIG1        0.0279
     10 H           1.7343   -0.3963   -0.1213 H       1  LIG1        0.0279
     11 C           3.2366    3.4921    0.3758 C.1     1  LIG1       -0.0655
     12 C           4.3951    3.7440    0.6252 C.1     1  LIG1       -0.1138
     13 H           5.4079    3.9823    0.8529 H       1  LIG1        0.1232
     14 C           0.5319    5.3094   -0.0101 C.ar    1  LIG1        0.1760
     15 C          -0.6232    6.0550    0.0358 C.ar    1  LIG1        0.0145
     16 C          -0.1995    7.4318    0.0591 C.ar    1  LIG1        0.0771
     17 C           1.1880    7.4204    0.0277 C.ar    1  LIG1        0.1865
     18 O           1.6322    6.1347   -0.0140 O.2     1  LIG1       -0.4470
     19 C          -2.0447    5.5864    0.0543 C.3     1  LIG1       -0.0348
     20 H          -2.1540    4.6612    0.6232 H       1  LIG1        0.0279
     21 H          -2.4115    5.3893   -0.9600 H       1  LIG1        0.0279
     22 H          -2.6861    6.3551    0.4925 H       1  LIG1        0.0279
     23 C          -1.0692    8.5486    0.1076 C.1     1  LIG1       -0.0655
     24 C          -1.8614    9.4629    0.1493 C.1     1  LIG1       -0.1138
     25 H          -2.5387   10.2842    0.1850 H       1  LIG1        0.1232
     26 C           2.1725    8.4652    0.0221 C.ar    1  LIG1        0.1750
     27 C           3.5419    8.4966   -0.1209 C.ar    1  LIG1        0.0138
     28 C           3.9019    9.8951   -0.0379 C.ar    1  LIG1        0.0659
     29 C           2.7322   10.5864    0.1444 C.ar    1  LIG1        0.1083
     30 O           1.6806    9.7408    0.1833 O.2     1  LIG1       -0.4583
     31 H           2.5122   11.6358    0.2598 H       1  LIG1        0.1042
     32 C           4.5055    7.3757   -0.3487 C.3     1  LIG1       -0.0348
     33 H           5.3799    7.4905    0.3006 H       1  LIG1        0.0279
     34 H           4.8749    7.3876   -1.3815 H       1  LIG1        0.0279
     35 H           4.0524    6.4028   -0.1614 H       1  LIG1        0.0279
     36 C           5.2100   10.4375   -0.1265 C.1     1  LIG1       -0.0662
     37 C           6.3332   10.8811   -0.2033 C.1     1  LIG1       -0.1138
     38 H           7.3185   11.2802   -0.2708 H       1  LIG1        0.1232
@<TRIPOS>BOND
     1    34    32    1
     2    21    19    1
     3     9     7    1
     4     6     1    1
     5    32    35    1
     6    32    27    1
     7    32    33    1
     8     5     1   ar
     9     5     4   ar
    10     1     2   ar
    11    38    37    1
    12    37    36    3
    13    36    28    1
    14    10     7    1
    15    27    28   ar
    16    27    26   ar
    17     2     7    1
    18     2     3   ar
    19     4    14    1
    20     4     3   ar
    21    28    29   ar
    22    18    14   ar
    23    18    17   ar
    24    14    15   ar
    25     7     8    1
    26    26    17    1
    27    26    30   ar
    28    17    16   ar
    29    15    19    1
    30    15    16   ar
    31    19    22    1
    32    19    20    1
    33    16    23    1
    34     3    11    1
    35    23    24    3
    36    29    30   ar
    37    29    31    1
    38    24    25    1
    39    11    12    3
    40    12    13    1
