@<TRIPOS>MOLECULE
mol_data/opt/b3lyp/geoms/mol2/12ie12ie-12ie-12ie.out
 50 53 0 0 0
SMALL
GASTEIGER

@<TRIPOS>ATOM
      1 C           0.0234    1.7489   -0.0418 C.ar    1  LIG1        0.0968
      2 C           1.2847    1.6954    0.4585 C.ar    1  LIG1        0.0034
      3 C           1.7345    3.0712    0.5347 C.ar    1  LIG1        0.0763
      4 C           0.6872    3.8459    0.0616 C.ar    1  LIG1        0.1855
      5 O          -0.3571    3.0407   -0.2905 O.2     1  LIG1       -0.4583
      6 H          -0.7103    0.9928   -0.2736 H       1  LIG1        0.1032
      7 C           2.0717    0.4886    0.8606 C.3     1  LIG1       -0.0355
      8 H           2.3563    0.5381    1.9171 H       1  LIG1        0.0279
      9 H           2.9994    0.4129    0.2832 H       1  LIG1        0.0279
     10 H           1.4972   -0.4281    0.7045 H       1  LIG1        0.0279
     11 C           2.9938    3.4901    1.0257 C.1     1  LIG1       -0.0655
     12 C           4.0838    3.7831    1.4652 C.1     1  LIG1       -0.1138
     13 H           5.0331    4.0599    1.8611 H       1  LIG1        0.1232
     14 C           0.5006    5.2561   -0.1181 C.ar    1  LIG1        0.1760
     15 C          -0.5808    6.0187   -0.4987 C.ar    1  LIG1        0.0145
     16 C          -0.1089    7.3803   -0.5014 C.ar    1  LIG1        0.0771
     17 C           1.2192    7.3452   -0.1008 C.ar    1  LIG1        0.1866
     18 O           1.5883    6.0529    0.1257 O.2     1  LIG1       -0.4470
     19 C          -1.9598    5.5710   -0.8728 C.3     1  LIG1       -0.0348
     20 H          -2.3298    4.8028   -0.1897 H       1  LIG1        0.0279
     21 H          -1.9812    5.1423   -1.8813 H       1  LIG1        0.0279
     22 H          -2.6471    6.4201   -0.8573 H       1  LIG1        0.0279
     23 C          -0.8622    8.5056   -0.9184 C.1     1  LIG1       -0.0655
     24 C          -1.5389    9.4361   -1.2963 C.1     1  LIG1       -0.1138
     25 H          -2.1203   10.2610   -1.6376 H       1  LIG1        0.1232
     26 C           2.2288    8.3469    0.1019 C.ar    1  LIG1        0.1761
     27 C           2.2138    9.6454    0.5524 C.ar    1  LIG1        0.0145
     28 C           3.5870   10.0853    0.5341 C.ar    1  LIG1        0.0771
     29 C           4.3394    9.0077    0.0886 C.ar    1  LIG1        0.1865
     30 O           3.5221    7.9560   -0.1758 O.2     1  LIG1       -0.4470
     31 C           1.0544   10.4572    1.0344 C.3     1  LIG1       -0.0348
     32 H           0.2581    9.8192    1.4232 H       1  LIG1        0.0279
     33 H           0.6222   11.0610    0.2292 H       1  LIG1        0.0279
     34 H           1.3800   11.1409    1.8233 H       1  LIG1        0.0279
     35 C           4.0409   11.3648    0.9361 C.1     1  LIG1       -0.0655
     36 C           4.3758   12.4721    1.2927 C.1     1  LIG1       -0.1138
     37 H           4.6923   13.4414    1.6005 H       1  LIG1        0.1232
     38 C           5.7392    8.7961   -0.1333 C.ar    1  LIG1        0.1750
     39 C           6.4623    7.7068   -0.5672 C.ar    1  LIG1        0.0138
     40 C           7.8396    8.1463   -0.5718 C.ar    1  LIG1        0.0659
     41 C           7.8328    9.4505   -0.1452 C.ar    1  LIG1        0.1083
     42 O           6.5732    9.8575    0.1233 O.2     1  LIG1       -0.4583
     43 H           8.6171   10.1745    0.0085 H       1  LIG1        0.1042
     44 C           5.9716    6.3522   -0.9748 C.3     1  LIG1       -0.0348
     45 H           6.8118    5.6575   -1.0493 H       1  LIG1        0.0279
     46 H           5.4789    6.3862   -1.9534 H       1  LIG1        0.0279
     47 H           5.2396    5.9513   -0.2691 H       1  LIG1        0.0279
     48 C           8.9744    7.3780   -0.9401 C.1     1  LIG1       -0.0662
     49 C           9.9304    6.7070   -1.2565 C.1     1  LIG1       -0.1138
     50 H          10.7778    6.1248   -1.5352 H       1  LIG1        0.1232
@<TRIPOS>BOND
     1    46    44    1
     2    21    19    1
     3    25    24    1
     4    50    49    1
     5    24    23    3
     6    49    48    3
     7    45    44    1
     8    44    39    1
     9    44    47    1
    10    48    40    1
    11    23    16    1
    12    19    22    1
    13    19    15    1
    14    19    20    1
    15    40    39   ar
    16    40    41   ar
    17    39    38   ar
    18    16    15   ar
    19    16    17   ar
    20    15    14   ar
    21     5     1   ar
    22     5     4   ar
    23     6     1    1
    24    30    29   ar
    25    30    26   ar
    26    41    43    1
    27    41    42   ar
    28    38    29    1
    29    38    42   ar
    30    14     4    1
    31    14    18   ar
    32    17    26    1
    33    17    18   ar
    34     1     2   ar
    35     4     3   ar
    36    29    28   ar
    37    26    27   ar
    38    33    31    1
    39     9     7    1
    40     2     3   ar
    41     2     7    1
    42    28    27   ar
    43    28    35    1
    44     3    11    1
    45    27    31    1
    46    10     7    1
    47     7     8    1
    48    35    36    3
    49    11    12    3
    50    31    32    1
    51    31    34    1
    52    36    37    1
    53    12    13    1
