@<TRIPOS>MOLECULE
mol_data/opt/b3lyp/geoms/mol2/12ie12ie-12ie-12ie-.out
 50 53 0 0 0
SMALL
GASTEIGER

@<TRIPOS>ATOM
      1 C           0.0325    1.7385    0.2532 C.ar    1  LIG1        0.0968
      2 C           1.3553    1.7089    0.5584 C.ar    1  LIG1        0.0034
      3 C           1.8025    3.0859    0.4972 C.ar    1  LIG1        0.0763
      4 C           0.6906    3.8377    0.1530 C.ar    1  LIG1        0.1855
      5 O          -0.3895    3.0169    0.0025 O.2     1  LIG1       -0.4583
      6 H          -0.7230    0.9728    0.1711 H       1  LIG1        0.1032
      7 C           2.2033    0.5228    0.8925 C.3     1  LIG1       -0.0355
      8 H           2.6474    0.6244    1.8885 H       1  LIG1        0.0279
      9 H           3.0312    0.4184    0.1830 H       1  LIG1        0.0279
     10 H           1.6182   -0.4003    0.8720 H       1  LIG1        0.0279
     11 C           3.1227    3.5282    0.7500 C.1     1  LIG1       -0.0655
     12 C           4.2668    3.8523    0.9770 C.1     1  LIG1       -0.1138
     13 H           5.2666    4.1676    1.1650 H       1  LIG1        0.1232
     14 C           0.4752    5.2407   -0.0606 C.ar    1  LIG1        0.1760
     15 C          -0.6390    5.9922   -0.3606 C.ar    1  LIG1        0.0145
     16 C          -0.1702    7.3518   -0.4577 C.ar    1  LIG1        0.0771
     17 C           1.1893    7.3276   -0.1863 C.ar    1  LIG1        0.1866
     18 O           1.5798    6.0443    0.0488 O.2     1  LIG1       -0.4470
     19 C          -2.0493    5.5454   -0.5908 C.3     1  LIG1       -0.0348
     20 H          -2.2821    4.6453   -0.0206 H       1  LIG1        0.0279
     21 H          -2.2260    5.3198   -1.6496 H       1  LIG1        0.0279
     22 H          -2.7470    6.3384   -0.3083 H       1  LIG1        0.0279
     23 C          -0.9639    8.4618   -0.8397 C.1     1  LIG1       -0.0655
     24 C          -1.6776    9.3778   -1.1829 C.1     1  LIG1       -0.1138
     25 H          -2.2932   10.1886   -1.4969 H       1  LIG1        0.1232
     26 C           2.2074    8.3417   -0.1087 C.ar    1  LIG1        0.1761
     27 C           2.2108    9.6494    0.3140 C.ar    1  LIG1        0.0145
     28 C           3.5623   10.1157    0.1205 C.ar    1  LIG1        0.0771
     29 C           4.2877    9.0411   -0.3687 C.ar    1  LIG1        0.1865
     30 O           3.4679    7.9663   -0.5131 O.2     1  LIG1       -0.4470
     31 C           1.0918   10.4540    0.8937 C.3     1  LIG1       -0.0348
     32 H           0.3426    9.8108    1.3598 H       1  LIG1        0.0279
     33 H           0.5793   11.0453    0.1272 H       1  LIG1        0.0279
     34 H           1.4790   11.1489    1.6443 H       1  LIG1        0.0279
     35 C           4.0092   11.4410    0.3475 C.1     1  LIG1       -0.0655
     36 C           4.3426   12.5885    0.5436 C.1     1  LIG1       -0.1138
     37 H           4.6435   13.5983    0.7009 H       1  LIG1        0.1232
     38 C           5.6703    8.8595   -0.7329 C.ar    1  LIG1        0.1750
     39 C           6.8543    9.3471   -0.2356 C.ar    1  LIG1        0.0138
     40 C           7.8883    8.7634   -1.0629 C.ar    1  LIG1        0.0659
     41 C           7.2463    7.9644   -1.9740 C.ar    1  LIG1        0.1083
     42 O           5.9106    8.0080   -1.7913 O.2     1  LIG1       -0.4583
     43 H           7.6050    7.3326   -2.7713 H       1  LIG1        0.1042
     44 C           7.0858   10.2407    0.9409 C.3     1  LIG1       -0.0348
     45 H           6.2687   10.1681    1.6618 H       1  LIG1        0.0279
     46 H           7.1601   11.2915    0.6407 H       1  LIG1        0.0279
     47 H           8.0220    9.9709    1.4380 H       1  LIG1        0.0279
     48 C           9.2876    8.9584   -0.9332 C.1     1  LIG1       -0.0662
     49 C          10.4776    9.1361   -0.8039 C.1     1  LIG1       -0.1138
     50 H          11.5268    9.2881   -0.6997 H       1  LIG1        0.1232
@<TRIPOS>BOND
     1    43    41    1
     2    41    42   ar
     3    41    40   ar
     4    42    38   ar
     5    21    19    1
     6    25    24    1
     7    24    23    3
     8    40    48    1
     9    40    39   ar
    10    48    49    3
    11    23    16    1
    12    49    50    1
    13    38    29    1
    14    38    39   ar
    15    19    15    1
    16    19    22    1
    17    19    20    1
    18    30    29   ar
    19    30    26   ar
    20    16    15   ar
    21    16    17   ar
    22    29    28   ar
    23    15    14   ar
    24    39    44    1
    25    17    26    1
    26    17    18   ar
    27    26    27   ar
    28    14    18   ar
    29    14     4    1
    30     5     4   ar
    31     5     1   ar
    32    28    27   ar
    33    28    35    1
    34    33    31    1
    35     4     3   ar
    36     6     1    1
    37     9     7    1
    38     1     2   ar
    39    27    31    1
    40    35    36    3
    41     3     2   ar
    42     3    11    1
    43    36    37    1
    44     2     7    1
    45    46    44    1
    46    11    12    3
    47    10     7    1
    48     7     8    1
    49    31    32    1
    50    31    34    1
    51    44    47    1
    52    44    45    1
    53    12    13    1
