@<TRIPOS>MOLECULE
mol_data/opt/b3lyp/geoms/mol2/12ie12ie-.out
 26 27 0 0 0
SMALL
GASTEIGER

@<TRIPOS>ATOM
      1 C           0.1995    1.8283   -0.0062 C.ar    1  LIG1        0.0968
      2 C           1.5569    1.8070    0.0010 C.ar    1  LIG1        0.0034
      3 C           1.9705    3.1966   -0.0080 C.ar    1  LIG1        0.0763
      4 C           0.8057    3.9458   -0.0208 C.ar    1  LIG1        0.1855
      5 O          -0.2750    3.1135   -0.0214 O.2     1  LIG1       -0.4583
      6 H          -0.5509    1.0534   -0.0042 H       1  LIG1        0.1032
      7 C           2.4651    0.6187    0.0154 C.3     1  LIG1       -0.0355
      8 H           3.1128    0.6284    0.8987 H       1  LIG1        0.0279
      9 H           3.1213    0.6135   -0.8616 H       1  LIG1        0.0279
     10 H           1.8953   -0.3142    0.0205 H       1  LIG1        0.0279
     11 C           3.3119    3.6481    0.0006 C.1     1  LIG1       -0.0655
     12 C           4.4779    3.9745    0.0092 C.1     1  LIG1       -0.1138
     13 H           5.4969    4.2841    0.0160 H       1  LIG1        0.1232
     14 C           0.5363    5.3571   -0.0343 C.ar    1  LIG1        0.1750
     15 C          -0.6207    6.1005    0.0106 C.ar    1  LIG1        0.0138
     16 C          -0.1889    7.4803   -0.0406 C.ar    1  LIG1        0.0659
     17 C           1.1803    7.4551   -0.1082 C.ar    1  LIG1        0.1083
     18 O           1.6332    6.1821   -0.1056 O.2     1  LIG1       -0.4583
     19 H           1.9260    8.2324   -0.1573 H       1  LIG1        0.1042
     20 C          -2.0428    5.6380    0.0832 C.3     1  LIG1       -0.0348
     21 H          -2.1313    4.6955    0.6255 H       1  LIG1        0.0279
     22 H          -2.4611    5.4805   -0.9186 H       1  LIG1        0.0279
     23 H          -2.6593    6.3937    0.5774 H       1  LIG1        0.0279
     24 C          -1.0211    8.6292   -0.0145 C.1     1  LIG1       -0.0662
     25 C          -1.7483    9.5962    0.0108 C.1     1  LIG1       -0.1138
     26 H          -2.3803   10.4534    0.0310 H       1  LIG1        0.1232
@<TRIPOS>BOND
     1    22    20    1
     2     9     7    1
     3    19    17    1
     4    17    18   ar
     5    17    16   ar
     6    18    14   ar
     7    16    24    1
     8    16    15   ar
     9    14     4    1
    10    14    15   ar
    11     5     4   ar
    12     5     1   ar
    13     4     3   ar
    14    24    25    3
    15     3    11    1
    16     3     2   ar
    17     1     6    1
    18     1     2   ar
    19    11    12    3
    20     2     7    1
    21    12    13    1
    22    15    20    1
    23    25    26    1
    24     7    10    1
    25     7     8    1
    26    20    23    1
    27    20    21    1
