@<TRIPOS>MOLECULE
mol_data/opt/b3lyp/geoms/mol2/12if12if-12if.out
 35 37 0 0 0
SMALL
GASTEIGER

@<TRIPOS>ATOM
      1 C           0.2209    1.7511    0.0971 C.ar    1  LIG1        0.0993
      2 C           1.5761    1.8176   -0.0400 C.ar    1  LIG1        0.0295
      3 C           1.8727    3.2188   -0.0995 C.ar    1  LIG1        0.1687
      4 C           0.6799    3.9007    0.0072 C.ar    1  LIG1        0.2114
      5 O          -0.3469    2.9926    0.1287 O.2     1  LIG1       -0.4557
      6 H          -0.4634    0.9211    0.1821 H       1  LIG1        0.1033
      7 C           2.5668    0.6986   -0.1171 C.3     1  LIG1       -0.0332
      8 H           3.2991    0.7623    0.6949 H       1  LIG1        0.0280
      9 H           3.1282    0.7319   -1.0571 H       1  LIG1        0.0280
     10 H           2.0702   -0.2731   -0.0517 H       1  LIG1        0.0280
     11 O           3.1269    3.7127   -0.2433 O.3     1  LIG1       -0.5030
     12 H           3.0674    4.6797   -0.2894 H       1  LIG1        0.2923
     13 C           0.4013    5.3044    0.0072 C.ar    1  LIG1        0.1809
     14 C          -0.7306    6.0846    0.0370 C.ar    1  LIG1        0.0407
     15 C          -0.2604    7.4373    0.0045 C.ar    1  LIG1        0.1694
     16 C           1.1144    7.4207   -0.0462 C.ar    1  LIG1        0.2124
     17 O           1.5244    6.0970   -0.0465 O.2     1  LIG1       -0.4444
     18 C          -2.1674    5.6612    0.0920 C.3     1  LIG1       -0.0325
     19 H          -2.2535    4.5744    0.0801 H       1  LIG1        0.0280
     20 H          -2.7345    6.0488   -0.7646 H       1  LIG1        0.0280
     21 H          -2.6615    6.0206    1.0046 H       1  LIG1        0.0280
     22 O          -1.0238    8.5617    0.0254 O.3     1  LIG1       -0.5029
     23 H          -1.9512    8.2999    0.0911 H       1  LIG1        0.2923
     24 C           2.1290    8.4325   -0.0897 C.ar    1  LIG1        0.1799
     25 C           3.4991    8.4012    0.0671 C.ar    1  LIG1        0.0399
     26 C           3.9171    9.7613   -0.1021 C.ar    1  LIG1        0.1581
     27 C           2.8052   10.5170   -0.3354 C.ar    1  LIG1        0.1343
     28 O           1.6983    9.7069   -0.3321 O.2     1  LIG1       -0.4557
     29 H           2.6322   11.5671   -0.5068 H       1  LIG1        0.1068
     30 C           4.4097    7.2494    0.3677 C.3     1  LIG1       -0.0325
     31 H           5.2999    7.6032    0.8950 H       1  LIG1        0.0280
     32 H           4.7595    6.7503   -0.5457 H       1  LIG1        0.0280
     33 H           3.9193    6.5009    0.9953 H       1  LIG1        0.0280
     34 O           5.2284   10.1289   -0.0124 O.3     1  LIG1       -0.5034
     35 H           5.2950   11.0882   -0.1001 H       1  LIG1        0.2923
@<TRIPOS>BOND
     1     9     7    1
     2    20    18    1
     3    32    30    1
     4    29    27    1
     5    27    28   ar
     6    27    26   ar
     7    28    24   ar
     8    12    11    1
     9    11     3    1
    10     7    10    1
    11     7     2    1
    12     7     8    1
    13    26    34    1
    14    26    25   ar
    15    35    34    1
    16     3     2   ar
    17     3     4   ar
    18    24    16    1
    19    24    25   ar
    20    17    16   ar
    21    17    13   ar
    22    16    15   ar
    23     2     1   ar
    24    15    22    1
    25    15    14   ar
    26    13     4    1
    27    13    14   ar
    28     4     5   ar
    29    22    23    1
    30    14    18    1
    31    25    30    1
    32    19    18    1
    33    18    21    1
    34     1     5   ar
    35     1     6    1
    36    30    31    1
    37    30    33    1
