@<TRIPOS>MOLECULE
mol_data/opt/b3lyp/geoms/mol2/12if12if.out
 24 25 0 0 0
SMALL
GASTEIGER

@<TRIPOS>ATOM
      1 C           0.3142    1.8433    0.6863 C.ar    1  LIG1        0.0993
      2 C           1.5343    1.8346    0.0757 C.ar    1  LIG1        0.0295
      3 C           1.7521    3.1977   -0.3106 C.ar    1  LIG1        0.1687
      4 C           0.6682    3.9341    0.1020 C.ar    1  LIG1        0.2114
      5 O          -0.2308    3.0881    0.7180 O.2     1  LIG1       -0.4557
      6 H          -0.2793    1.0585    1.1305 H       1  LIG1        0.1033
      7 C           2.4529    0.6793   -0.1728 C.3     1  LIG1       -0.0332
      8 H           3.4181    0.8228    0.3253 H       1  LIG1        0.0280
      9 H           2.6593    0.5605   -1.2419 H       1  LIG1        0.0280
     10 H           2.0183   -0.2542    0.1947 H       1  LIG1        0.0280
     11 O           2.8578    3.6083   -0.9913 O.3     1  LIG1       -0.5030
     12 H           2.7155    4.5207   -1.2816 H       1  LIG1        0.2923
     13 C           0.3632    5.3383   -0.0143 C.ar    1  LIG1        0.1798
     14 C           1.1453    6.4607    0.1413 C.ar    1  LIG1        0.0399
     15 C           0.2847    7.5634   -0.1764 C.ar    1  LIG1        0.1581
     16 C          -0.9436    7.0536   -0.4805 C.ar    1  LIG1        0.1343
     17 O          -0.9073    5.6872   -0.3938 O.2     1  LIG1       -0.4557
     18 H          -1.8907    7.4955   -0.7467 H       1  LIG1        0.1068
     19 C           2.5615    6.5686    0.6197 C.3     1  LIG1       -0.0325
     20 H           2.6334    7.2898    1.4406 H       1  LIG1        0.0280
     21 H           3.2370    6.9267   -0.1671 H       1  LIG1        0.0280
     22 H           2.9338    5.6058    0.9778 H       1  LIG1        0.0280
     23 O           0.7193    8.8556   -0.1248 O.3     1  LIG1       -0.5034
     24 H          -0.0202    9.4481   -0.3113 H       1  LIG1        0.2923
@<TRIPOS>BOND
     1    12    11    1
     2     9     7    1
     3    11     3    1
     4    18    16    1
     5    16    17   ar
     6    16    15   ar
     7    17    13   ar
     8    24    23    1
     9     3     2   ar
    10     3     4   ar
    11    15    23    1
    12    15    14   ar
    13     7     2    1
    14     7    10    1
    15     7     8    1
    16    21    19    1
    17    13     4    1
    18    13    14   ar
    19     2     1   ar
    20     4     5   ar
    21    14    19    1
    22    19    22    1
    23    19    20    1
    24     1     5   ar
    25     1     6    1
