@<TRIPOS>MOLECULE
mol_data/opt/b3lyp/geoms/mol2/12if12if-12if12if-.out
 46 49 0 0 0
SMALL
GASTEIGER

@<TRIPOS>ATOM
      1 C           0.2629    1.6462    0.0072 C.ar    1  LIG1        0.0993
      2 C           1.6187    1.7321   -0.1123 C.ar    1  LIG1        0.0295
      3 C           1.9012    3.1373   -0.1082 C.ar    1  LIG1        0.1687
      4 C           0.6997    3.8022    0.0144 C.ar    1  LIG1        0.2114
      5 O          -0.3184    2.8790    0.0859 O.2     1  LIG1       -0.4557
      6 H          -0.4132    0.8063    0.0498 H       1  LIG1        0.1033
      7 C           2.6218    0.6275   -0.2274 C.3     1  LIG1       -0.0332
      8 H           3.3428    0.6604    0.5964 H       1  LIG1        0.0280
      9 H           3.1946    0.7100   -1.1572 H       1  LIG1        0.0280
     10 H           2.1342   -0.3508   -0.2136 H       1  LIG1        0.0280
     11 O           3.1516    3.6481   -0.2159 O.3     1  LIG1       -0.5030
     12 H           3.0860    4.6157   -0.2139 H       1  LIG1        0.2923
     13 C           0.4034    5.2001    0.0683 C.ar    1  LIG1        0.1809
     14 C          -0.7412    5.9621    0.1266 C.ar    1  LIG1        0.0407
     15 C          -0.2920    7.3200    0.1450 C.ar    1  LIG1        0.1694
     16 C           1.0849    7.3266    0.0957 C.ar    1  LIG1        0.2125
     17 O           1.5151    6.0107    0.0472 O.2     1  LIG1       -0.4444
     18 C          -2.1715    5.5152    0.1648 C.3     1  LIG1       -0.0325
     19 H          -2.2428    4.4300    0.0867 H       1  LIG1        0.0280
     20 H          -2.7499    5.9457   -0.6633 H       1  LIG1        0.0280
     21 H          -2.6642    5.8106    1.1007 H       1  LIG1        0.0280
     22 O          -1.0725    8.4327    0.2037 O.3     1  LIG1       -0.5029
     23 H          -1.9967    8.1562    0.2545 H       1  LIG1        0.2923
     24 C           2.0753    8.3555    0.0915 C.ar    1  LIG1        0.1809
     25 C           3.4563    8.3475    0.1633 C.ar    1  LIG1        0.0407
     26 C           3.8366    9.7203    0.1073 C.ar    1  LIG1        0.1694
     27 C           2.6879   10.4775    0.0139 C.ar    1  LIG1        0.2124
     28 O           1.6013    9.6373    0.0011 O.2     1  LIG1       -0.4444
     29 C           4.4022    7.1912    0.2854 C.3     1  LIG1       -0.0325
     30 H           5.3760    7.5441    0.6334 H       1  LIG1        0.0280
     31 H           4.5658    6.6904   -0.6774 H       1  LIG1        0.0280
     32 H           4.0385    6.4450    0.9979 H       1  LIG1        0.0280
     33 O           5.1228   10.1465    0.1540 O.3     1  LIG1       -0.5029
     34 H           5.1147   11.1162    0.1216 H       1  LIG1        0.2923
     35 C           2.4939   11.8919   -0.0570 C.ar    1  LIG1        0.1799
     36 C           1.4049   12.7269   -0.1446 C.ar    1  LIG1        0.0399
     37 C           1.9563   14.0553   -0.1780 C.ar    1  LIG1        0.1581
     38 C           3.3124   13.9578   -0.1096 C.ar    1  LIG1        0.1343
     39 O           3.6592   12.6233   -0.0341 O.2     1  LIG1       -0.4557
     40 H           4.1159   14.6735   -0.1036 H       1  LIG1        0.1068
     41 C          -0.0531   12.3814   -0.1982 C.3     1  LIG1       -0.0325
     42 H          -0.2089   11.3055   -0.1067 H       1  LIG1        0.0280
     43 H          -0.5101   12.7020   -1.1444 H       1  LIG1        0.0280
     44 H          -0.6105   12.8658    0.6152 H       1  LIG1        0.0280
     45 O           1.2589   15.2233   -0.2613 O.3     1  LIG1       -0.5034
     46 H           0.3176   15.0136   -0.3093 H       1  LIG1        0.2923
@<TRIPOS>BOND
     1     9     7    1
     2    43    41    1
     3    31    29    1
     4    20    18    1
     5    46    45    1
     6    45    37    1
     7     7    10    1
     8     7     2    1
     9     7     8    1
    10    11    12    1
    11    11     3    1
    12    41    36    1
    13    41    42    1
    14    41    44    1
    15    37    36   ar
    16    37    38   ar
    17    36    35   ar
    18     2     3   ar
    19     2     1   ar
    20    38    40    1
    21    38    39   ar
    22     3     4   ar
    23    35    39   ar
    24    35    27    1
    25    28    27   ar
    26    28    24   ar
    27     1     6    1
    28     1     5   ar
    29    27    26   ar
    30     4    13    1
    31     4     5   ar
    32    17    13   ar
    33    17    16   ar
    34    13    14   ar
    35    19    18    1
    36    24    16    1
    37    24    25   ar
    38    16    15   ar
    39    26    33    1
    40    26    25   ar
    41    34    33    1
    42    14    15   ar
    43    14    18    1
    44    15    22    1
    45    25    29    1
    46    18    21    1
    47    22    23    1
    48    29    30    1
    49    29    32    1
