@<TRIPOS>MOLECULE
mol_data/opt/b3lyp/geoms/mol2/12if12if12if.out
 35 37 0 0 0
SMALL
GASTEIGER

@<TRIPOS>ATOM
      1 C           0.6626    1.8461    1.2006 C.ar    1  LIG1        0.0993
      2 C           1.7235    1.7854    0.3446 C.ar    1  LIG1        0.0295
      3 C           1.7940    3.0946   -0.2336 C.ar    1  LIG1        0.1687
      4 C           0.7916    3.8567    0.3184 C.ar    1  LIG1        0.2114
      5 O           0.0824    3.0748    1.2064 O.2     1  LIG1       -0.4557
      6 H           0.2129    1.1108    1.8506 H       1  LIG1        0.1033
      7 C           2.6173    0.6253    0.0354 C.3     1  LIG1       -0.0332
      8 H           3.6591    0.8442    0.2941 H       1  LIG1        0.0280
      9 H           2.5969    0.3843   -1.0329 H       1  LIG1        0.0280
     10 H           2.3111   -0.2655    0.5903 H       1  LIG1        0.0280
     11 O           2.7089    3.4354   -1.1825 O.3     1  LIG1       -0.5030
     12 H           2.4636    4.2961   -1.5508 H       1  LIG1        0.2923
     13 C           0.4011    5.2276    0.1109 C.ar    1  LIG1        0.1809
     14 C           1.1470    6.3737   -0.0698 C.ar    1  LIG1        0.0407
     15 C           0.1877    7.4047   -0.3091 C.ar    1  LIG1        0.1694
     16 C          -1.0666    6.8499   -0.2225 C.ar    1  LIG1        0.2124
     17 O          -0.9376    5.4998    0.0198 O.2     1  LIG1       -0.4444
     18 C           2.6315    6.5604    0.0176 C.3     1  LIG1       -0.0325
     19 H           2.8739    7.3898    0.6902 H       1  LIG1        0.0280
     20 H           3.0739    6.8113   -0.9547 H       1  LIG1        0.0280
     21 H           3.1230    5.6612    0.3959 H       1  LIG1        0.0280
     22 O           0.5391    8.6942   -0.5679 O.3     1  LIG1       -0.5029
     23 H          -0.2567    9.1837   -0.8205 H       1  LIG1        0.2923
     24 C          -2.3797    7.4311   -0.3386 C.ar    1  LIG1        0.1799
     25 C          -2.8988    8.6224    0.1182 C.ar    1  LIG1        0.0399
     26 C          -4.2433    8.6594   -0.3792 C.ar    1  LIG1        0.1581
     27 C          -4.4573    7.5059   -1.0758 C.ar    1  LIG1        0.1343
     28 O          -3.3185    6.7461   -1.0662 O.2     1  LIG1       -0.4557
     29 H          -5.3094    7.0917   -1.5912 H       1  LIG1        0.1068
     30 C          -2.2740    9.6460    1.0168 C.3     1  LIG1       -0.0325
     31 H          -2.9462    9.8835    1.8478 H       1  LIG1        0.0280
     32 H          -2.0810   10.5921    0.4956 H       1  LIG1        0.0280
     33 H          -1.3306    9.2860    1.4340 H       1  LIG1        0.0280
     34 O          -5.0803    9.7041   -0.1173 O.3     1  LIG1       -0.5034
     35 H          -5.9551    9.5103   -0.4779 H       1  LIG1        0.2923
@<TRIPOS>BOND
     1    29    27    1
     2    12    11    1
     3    11     3    1
     4    27    28   ar
     5    27    26   ar
     6    28    24   ar
     7     9     7    1
     8    20    18    1
     9    23    22    1
    10    22    15    1
    11    35    34    1
    12    26    34    1
    13    26    25   ar
    14    24    16    1
    15    24    25   ar
    16    15    16   ar
    17    15    14   ar
    18     3     4   ar
    19     3     2   ar
    20    16    17   ar
    21    14    18    1
    22    14    13   ar
    23    18    21    1
    24    18    19    1
    25    17    13   ar
    26     7     8    1
    27     7     2    1
    28     7    10    1
    29    13     4    1
    30    25    30    1
    31     4     5   ar
    32     2     1   ar
    33    32    30    1
    34    30    33    1
    35    30    31    1
    36     1     5   ar
    37     1     6    1
