@<TRIPOS>MOLECULE
mol_data/opt/b3lyp/geoms/mol2/12if12if12if-12if-.out
 46 49 0 0 0
SMALL
GASTEIGER

@<TRIPOS>ATOM
      1 C           0.7817    1.6349    0.7550 C.ar    1  LIG1        0.0993
      2 C           1.8805    1.7465   -0.0460 C.ar    1  LIG1        0.0295
      3 C           1.9324    3.1352   -0.3955 C.ar    1  LIG1        0.1687
      4 C           0.8817    3.7688    0.2266 C.ar    1  LIG1        0.2114
      5 O           0.1601    2.8305    0.9366 O.2     1  LIG1       -0.4557
      6 H           0.3292    0.7896    1.2511 H       1  LIG1        0.1033
      7 C           2.8262    0.6785   -0.4989 C.3     1  LIG1       -0.0332
      8 H           3.8476    0.8800   -0.1579 H       1  LIG1        0.0280
      9 H           2.8603    0.6180   -1.5921 H       1  LIG1        0.0280
     10 H           2.5276   -0.3000   -0.1136 H       1  LIG1        0.0280
     11 O           2.8750    3.6511   -1.2307 O.3     1  LIG1       -0.5030
     12 H           2.6215    4.5558   -1.4623 H       1  LIG1        0.2923
     13 C           0.4531    5.1411    0.2376 C.ar    1  LIG1        0.1809
     14 C           1.1533    6.3300    0.2550 C.ar    1  LIG1        0.0407
     15 C           0.1620    7.3560    0.1909 C.ar    1  LIG1        0.1694
     16 C          -1.0724    6.7405    0.1619 C.ar    1  LIG1        0.2125
     17 O          -0.9001    5.3781    0.1795 O.2     1  LIG1       -0.4444
     18 C           2.6276    6.5577    0.3988 C.3     1  LIG1       -0.0325
     19 H           2.8209    7.2936    1.1859 H       1  LIG1        0.0280
     20 H           3.0728    6.9631   -0.5184 H       1  LIG1        0.0280
     21 H           3.1522    5.6349    0.6574 H       1  LIG1        0.0280
     22 O           0.4539    8.6771    0.1984 O.3     1  LIG1       -0.5029
     23 H          -0.3794    9.1767    0.1916 H       1  LIG1        0.2923
     24 C          -2.3840    7.3039    0.1404 C.ar    1  LIG1        0.1809
     25 C          -3.6723    6.8207    0.1587 C.ar    1  LIG1        0.0407
     26 C          -4.5067    7.9832    0.1347 C.ar    1  LIG1        0.1694
     27 C          -3.7089    9.1037    0.0893 C.ar    1  LIG1        0.2124
     28 O          -2.3922    8.6751    0.0928 O.2     1  LIG1       -0.4444
     29 C          -4.1461    5.3998    0.2142 C.3     1  LIG1       -0.0325
     30 H          -3.3015    4.7105    0.2473 H       1  LIG1        0.0280
     31 H          -4.7515    5.1394   -0.6642 H       1  LIG1        0.0280
     32 H          -4.7587    5.2110    1.1061 H       1  LIG1        0.0280
     33 O          -5.8705    7.9930    0.1676 O.3     1  LIG1       -0.5029
     34 H          -6.1839    7.0812    0.2259 H       1  LIG1        0.2923
     35 C          -3.9065   10.5281    0.0636 C.ar    1  LIG1        0.1799
     36 C          -4.9677   11.3595   -0.2280 C.ar    1  LIG1        0.0399
     37 C          -4.4597   12.6899   -0.0399 C.ar    1  LIG1        0.1581
     38 C          -3.1532   12.5917    0.3325 C.ar    1  LIG1        0.1343
     39 O          -2.8029   11.2678    0.4018 O.2     1  LIG1       -0.4557
     40 H          -2.3881   13.3131    0.5635 H       1  LIG1        0.1068
     41 C          -6.3555   11.0399   -0.6952 C.3     1  LIG1       -0.0325
     42 H          -6.5424    9.9666   -0.6983 H       1  LIG1        0.0280
     43 H          -6.5308   11.4162   -1.7122 H       1  LIG1        0.0280
     44 H          -7.1120   11.4971   -0.0425 H       1  LIG1        0.0280
     45 O          -5.1438   13.8569   -0.2136 O.3     1  LIG1       -0.5034
     46 H          -6.0525   13.6442   -0.4613 H       1  LIG1        0.2923
@<TRIPOS>BOND
     1    43    41    1
     2     9     7    1
     3    12    11    1
     4    11     3    1
     5    42    41    1
     6    41    36    1
     7    41    44    1
     8    31    29    1
     9    20    18    1
    10     7     8    1
    11     7    10    1
    12     7     2    1
    13    46    45    1
    14     3     2   ar
    15     3     4   ar
    16    36    37   ar
    17    36    35   ar
    18    45    37    1
    19     2     1   ar
    20    37    38   ar
    21    35    27    1
    22    35    39   ar
    23    27    28   ar
    24    27    26   ar
    25    28    24   ar
    26    26    25   ar
    27    26    33    1
    28    24    25   ar
    29    24    16    1
    30    25    29    1
    31    16    17   ar
    32    16    15   ar
    33    33    34    1
    34    17    13   ar
    35    15    22    1
    36    15    14   ar
    37    23    22    1
    38    29    30    1
    39    29    32    1
    40     4    13    1
    41     4     5   ar
    42    13    14   ar
    43    14    18    1
    44    38    39   ar
    45    38    40    1
    46    18    21    1
    47    18    19    1
    48     1     5   ar
    49     1     6    1
