@<TRIPOS>MOLECULE
mol_data/opt/b3lyp/geoms/mol2/12if12if12if-12if.out
 46 49 0 0 0
SMALL
GASTEIGER

@<TRIPOS>ATOM
      1 C           0.7174    1.7020    0.8993 C.ar    1  LIG1        0.0993
      2 C           1.8208    1.7605    0.0989 C.ar    1  LIG1        0.0295
      3 C           1.8905    3.1292   -0.3194 C.ar    1  LIG1        0.1687
      4 C           0.8451    3.8055    0.2654 C.ar    1  LIG1        0.2114
      5 O           0.1095    2.9123    1.0179 O.2     1  LIG1       -0.4557
      6 H           0.2528    0.8880    1.4348 H       1  LIG1        0.1033
      7 C           2.7553    0.6601   -0.2960 C.3     1  LIG1       -0.0332
      8 H           3.7777    0.8660    0.0393 H       1  LIG1        0.0280
      9 H           2.7930    0.5447   -1.3845 H       1  LIG1        0.0280
     10 H           2.4433   -0.2944    0.1363 H       1  LIG1        0.0280
     11 O           2.8432    3.5919   -1.1745 O.3     1  LIG1       -0.5030
     12 H           2.5983    4.4845   -1.4568 H       1  LIG1        0.2923
     13 C           0.4320    5.1815    0.2053 C.ar    1  LIG1        0.1809
     14 C           1.1444    6.3624    0.1696 C.ar    1  LIG1        0.0407
     15 C           0.1643    7.3927    0.0451 C.ar    1  LIG1        0.1694
     16 C          -1.0772    6.7921    0.0386 C.ar    1  LIG1        0.2125
     17 O          -0.9178    5.4304    0.1248 O.2     1  LIG1       -0.4444
     18 C           2.6202    6.5824    0.3117 C.3     1  LIG1       -0.0325
     19 H           2.8189    7.3329    1.0836 H       1  LIG1        0.0280
     20 H           3.0685    6.9649   -0.6136 H       1  LIG1        0.0280
     21 H           3.1377    5.6617    0.5905 H       1  LIG1        0.0280
     22 O           0.4722    8.7109   -0.0224 O.3     1  LIG1       -0.5029
     23 H          -0.3554    9.2115   -0.0975 H       1  LIG1        0.2923
     24 C          -2.3883    7.3559   -0.0270 C.ar    1  LIG1        0.1809
     25 C          -3.6705    6.8599   -0.0828 C.ar    1  LIG1        0.0407
     26 C          -4.5196    8.0107   -0.1445 C.ar    1  LIG1        0.1694
     27 C          -3.7302    9.1384   -0.1273 C.ar    1  LIG1        0.2124
     28 O          -2.4077    8.7319   -0.0558 O.2     1  LIG1       -0.4444
     29 C          -4.1317    5.4337   -0.0787 C.3     1  LIG1       -0.0325
     30 H          -3.2841    4.7486   -0.0441 H       1  LIG1        0.0280
     31 H          -4.7147    5.1972   -0.9786 H       1  LIG1        0.0280
     32 H          -4.7651    5.2169    0.7916 H       1  LIG1        0.0280
     33 O          -5.8772    8.0152   -0.2049 O.3     1  LIG1       -0.5029
     34 H          -6.1880    7.1011   -0.1745 H       1  LIG1        0.2923
     35 C          -3.9925   10.5468   -0.1612 C.ar    1  LIG1        0.1799
     36 C          -3.2013   11.6573    0.0487 C.ar    1  LIG1        0.0399
     37 C          -4.0796   12.7727   -0.1426 C.ar    1  LIG1        0.1581
     38 C          -5.3192   12.2855   -0.4406 C.ar    1  LIG1        0.1343
     39 O          -5.2751   10.9148   -0.4566 O.2     1  LIG1       -0.4557
     40 H          -6.2748   12.7387   -0.6488 H       1  LIG1        0.1068
     41 C          -1.7514   11.7514    0.4165 C.3     1  LIG1       -0.0325
     42 H          -1.5531   12.7037    0.9155 H       1  LIG1        0.0280
     43 H          -1.0978   11.7114   -0.4649 H       1  LIG1        0.0280
     44 H          -1.4547   10.9466    1.0946 H       1  LIG1        0.0280
     45 O          -3.6486   14.0610   -0.0132 O.3     1  LIG1       -0.5034
     46 H          -4.3989   14.6587   -0.1232 H       1  LIG1        0.2923
@<TRIPOS>BOND
     1    12    11    1
     2     9     7    1
     3    11     3    1
     4    31    29    1
     5    40    38    1
     6    20    18    1
     7    43    41    1
     8    39    38   ar
     9    39    35   ar
    10    38    37   ar
    11     3     2   ar
    12     3     4   ar
    13     7     8    1
    14     7     2    1
    15     7    10    1
    16    33    34    1
    17    33    26    1
    18    35    27    1
    19    35    36   ar
    20    26    27   ar
    21    26    25   ar
    22    37    45    1
    23    37    36   ar
    24    27    28   ar
    25    46    45    1
    26    23    22    1
    27    25    29    1
    28    25    24   ar
    29    29    30    1
    30    29    32    1
    31    28    24   ar
    32    24    16    1
    33    22    15    1
    34    16    15   ar
    35    16    17   ar
    36    15    14   ar
    37    36    41    1
    38     2     1   ar
    39    17    13   ar
    40    14    13   ar
    41    14    18    1
    42    13     4    1
    43     4     5   ar
    44    18    21    1
    45    18    19    1
    46    41    42    1
    47    41    44    1
    48     1     5   ar
    49     1     6    1
