@<TRIPOS>MOLECULE
mol_data/opt/b3lyp/geoms/mol2/12if6el-12il4fl.out
 57 60 0 0 0
SMALL
GASTEIGER

@<TRIPOS>ATOM
      1 C           0.8998    1.6360    1.5201 C.ar    1  LIG1        0.0991
      2 C           1.6201    1.5278    0.3657 C.ar    1  LIG1        0.0294
      3 C           1.5980    2.8454   -0.1927 C.ar    1  LIG1        0.1656
      4 C           0.8760    3.6591    0.6528 C.ar    1  LIG1        0.1790
      5 O           0.4374    2.8979    1.7112 O.2     1  LIG1       -0.4588
      6 H           0.6380    0.9189    2.2833 H       1  LIG1        0.1033
      7 C           2.2836    0.3206   -0.2196 C.3     1  LIG1       -0.0332
      8 H           3.3690    0.4541   -0.2874 H       1  LIG1        0.0280
      9 H           1.9215    0.1243   -1.2345 H       1  LIG1        0.0280
     10 H           2.0900   -0.5674    0.3879 H       1  LIG1        0.0280
     11 O           2.1973    3.1543   -1.3803 O.3     1  LIG1       -0.5030
     12 H           1.8099    3.9747   -1.7162 H       1  LIG1        0.2923
     13 C          -0.6533    5.6558    1.0316 C.ar    1  LIG1        0.1249
     14 C           0.5640    5.0773    0.5874 C.ar    1  LIG1        0.0582
     15 C           1.5098    5.9507    0.0168 C.ar    1  LIG1       -0.0043
     16 C           1.2444    7.3119   -0.0895 C.ar    1  LIG1        0.1497
     17 C           0.0222    7.8085    0.4379 C.ar    1  LIG1        0.1492
     18 N          -0.8829    6.9773    0.9630 N.ar    1  LIG1       -0.2309
     19 H           2.4623    5.5510   -0.3100 H       1  LIG1        0.0663
     20 C          -1.7259    4.8661    1.5626 C.1     1  LIG1       -0.0491
     21 C          -2.6570    4.2258    1.9924 C.1     1  LIG1       -0.1124
     22 H          -3.4735    3.6613    2.3784 H       1  LIG1        0.1232
     23 O           2.0785    8.2076   -0.6807 O.3     1  LIG1       -0.4928
     24 C           3.2977    7.7369   -1.2381 C.3     1  LIG1        0.0789
     25 H           3.7837    8.6103   -1.6738 H       1  LIG1        0.0660
     26 H           3.9521    7.3025   -0.4725 H       1  LIG1        0.0660
     27 H           3.1194    6.9928   -2.0247 H       1  LIG1        0.0660
     28 C          -0.3349    9.2293    0.4020 C.ar    1  LIG1        0.1640
     29 C           0.3448   10.4088    0.6033 C.ar    1  LIG1        0.0393
     30 C          -0.6432   11.4409    0.4987 C.ar    1  LIG1        0.1693
     31 C          -1.8658   10.8405    0.2667 C.ar    1  LIG1        0.1810
     32 O          -1.6627    9.4870    0.1956 O.2     1  LIG1       -0.4490
     33 C           1.7835   10.6625    0.9344 C.3     1  LIG1       -0.0325
     34 H           1.8695   11.6007    1.4880 H       1  LIG1        0.0280
     35 H           2.3979   10.7489    0.0319 H       1  LIG1        0.0280
     36 H           2.2062    9.8577    1.5405 H       1  LIG1        0.0280
     37 O          -0.3120   12.7560    0.6377 O.3     1  LIG1       -0.4910
     38 C          -0.6523   13.6071   -0.4549 C.3     1  LIG1        0.0790
     39 H          -0.1987   14.5768   -0.2381 H       1  LIG1        0.0660
     40 H          -0.2462   13.2187   -1.3975 H       1  LIG1        0.0660
     41 H          -1.7346   13.7330   -0.5500 H       1  LIG1        0.0660
     42 C          -3.8082   12.3957    0.6854 C.ar    1  LIG1        0.1278
     43 C          -5.1359   12.7398    0.4455 C.ar    1  LIG1       -0.0160
     44 C          -3.2432   11.2732    0.0364 C.ar    1  LIG1        0.0657
     45 C          -5.9420   11.9825   -0.4089 C.ar    1  LIG1       -0.0165
     46 H          -5.5601   13.6057    0.9498 H       1  LIG1        0.0655
     47 C          -4.0651   10.5166   -0.8092 C.ar    1  LIG1       -0.0057
     48 C          -5.4010   10.8574   -1.0366 C.ar    1  LIG1        0.1210
     49 H          -3.6631    9.6388   -1.3007 H       1  LIG1        0.0662
     50 H          -6.9721   12.2784   -0.5651 H       1  LIG1        0.0655
     51 O          -3.0182   13.1021    1.5537 O.3     1  LIG1       -0.5061
     52 H          -3.5515   13.7908    1.9711 H       1  LIG1        0.2922
     53 O          -6.0861   10.0347   -1.8923 O.3     1  LIG1       -0.4951
     54 C          -7.4509   10.3218   -2.1362 C.3     1  LIG1        0.0788
     55 H          -7.8049    9.5507   -2.8223 H       1  LIG1        0.0660
     56 H          -8.0467   10.2833   -1.2144 H       1  LIG1        0.0660
     57 H          -7.5842   11.3066   -2.6044 H       1  LIG1        0.0660
@<TRIPOS>BOND
     1    55    54    1
     2    57    54    1
     3    54    53    1
     4    54    56    1
     5    27    24    1
     6    53    48    1
     7    12    11    1
     8    25    24    1
     9    40    38    1
    10    11     3    1
    11    49    47    1
    12    24    23    1
    13    24    26    1
    14     9     7    1
    15    48    47   ar
    16    48    45   ar
    17    47    44   ar
    18    23    16    1
    19    50    45    1
    20    41    38    1
    21    38    39    1
    22    38    37    1
    23    45    43   ar
    24    19    15    1
    25     8     7    1
    26     7     2    1
    27     7    10    1
    28     3     2   ar
    29     3     4   ar
    30    16    15   ar
    31    16    17   ar
    32    15    14   ar
    33    35    33    1
    34    44    31    1
    35    44    42   ar
    36    32    31   ar
    37    32    28   ar
    38    31    30   ar
    39     2     1   ar
    40    28    17    1
    41    28    29   ar
    42    17    18   ar
    43    43    42   ar
    44    43    46    1
    45    30    29   ar
    46    30    37    1
    47    14     4    1
    48    14    13   ar
    49    29    33    1
    50     4     5   ar
    51    42    51    1
    52    33    34    1
    53    33    36    1
    54    18    13   ar
    55    13    20    1
    56     1     5   ar
    57     1     6    1
    58    51    52    1
    59    20    21    3
    60    21    22    1
