@<TRIPOS>MOLECULE
mol_data/opt/b3lyp/geoms/mol2/12if12if12if12if.out
 46 49 0 0 0
SMALL
GASTEIGER

@<TRIPOS>ATOM
      1 C           1.2209    2.0778    1.8314 C.ar    1  LIG1        0.0993
      2 C           2.1287    1.8837    0.8312 C.ar    1  LIG1        0.0295
      3 C           2.0281    3.0614    0.0212 C.ar    1  LIG1        0.1687
      4 C           1.0880    3.8881    0.5898 C.ar    1  LIG1        0.2114
      5 O           0.5802    3.2699    1.7135 O.2     1  LIG1       -0.4557
      6 H           0.9268    1.4670    2.6716 H       1  LIG1        0.1033
      7 C           3.0236    0.7085    0.5898 C.3     1  LIG1       -0.0332
      8 H           4.0798    0.9980    0.6202 H       1  LIG1        0.0280
      9 H           2.8409    0.2680   -0.3963 H       1  LIG1        0.0280
     10 H           2.8637   -0.0675    1.3431 H       1  LIG1        0.0280
     11 O           2.7538    3.2396   -1.1170 O.3     1  LIG1       -0.5030
     12 H           2.4001    4.0056   -1.5909 H       1  LIG1        0.2923
     13 C           0.5892    5.1851    0.2109 C.ar    1  LIG1        0.1809
     14 C           1.2243    6.2964   -0.3040 C.ar    1  LIG1        0.0407
     15 C           0.1803    7.2416   -0.5407 C.ar    1  LIG1        0.1694
     16 C          -1.0055    6.6817   -0.1266 C.ar    1  LIG1        0.2125
     17 O          -0.7573    5.4025    0.3208 O.2     1  LIG1       -0.4444
     18 C           2.6873    6.5340   -0.5262 C.3     1  LIG1       -0.0325
     19 H           2.9950    7.4798   -0.0683 H       1  LIG1        0.0280
     20 H           2.9354    6.6111   -1.5921 H       1  LIG1        0.0280
     21 H           3.2903    5.7340   -0.0906 H       1  LIG1        0.0280
     22 O           0.4080    8.4685   -1.0846 O.3     1  LIG1       -0.5029
     23 H          -0.4447    8.8838   -1.2765 H       1  LIG1        0.2923
     24 C          -2.3509    7.1928   -0.0957 C.ar    1  LIG1        0.1809
     25 C          -2.8515    8.4407    0.2149 C.ar    1  LIG1        0.0407
     26 C          -4.2581    8.3408   -0.0106 C.ar    1  LIG1        0.1694
     27 C          -4.5379    7.0527   -0.4004 C.ar    1  LIG1        0.2124
     28 O          -3.3588    6.3451   -0.4702 O.2     1  LIG1       -0.4444
     29 C          -2.1333    9.6467    0.7404 C.3     1  LIG1       -0.0325
     30 H          -2.6350   10.0303    1.6347 H       1  LIG1        0.0280
     31 H          -2.1233   10.4695    0.0146 H       1  LIG1        0.0280
     32 H          -1.1005    9.4104    1.0064 H       1  LIG1        0.0280
     33 O          -5.1089    9.3896    0.1604 O.3     1  LIG1       -0.5029
     34 H          -5.9858    9.1280   -0.1546 H       1  LIG1        0.2923
     35 C          -5.7822    6.3977   -0.7145 C.ar    1  LIG1        0.1799
     36 C          -7.0269    6.4660   -0.1288 C.ar    1  LIG1        0.0399
     37 C          -7.8676    5.6344   -0.9402 C.ar    1  LIG1        0.1581
     38 C          -7.0934    5.1113   -1.9347 C.ar    1  LIG1        0.1343
     39 O          -5.8124    5.5783   -1.8131 O.2     1  LIG1       -0.4557
     40 H          -7.2819    4.4252   -2.7452 H       1  LIG1        0.1068
     41 C          -7.4433    7.1628    1.1309 C.3     1  LIG1       -0.0325
     42 H          -7.9800    6.4715    1.7887 H       1  LIG1        0.0280
     43 H          -8.1275    7.9980    0.9354 H       1  LIG1        0.0280
     44 H          -6.5779    7.5481    1.6752 H       1  LIG1        0.0280
     45 O          -9.1892    5.4508   -0.6578 O.3     1  LIG1       -0.5034
     46 H          -9.5597    4.8044   -1.2724 H       1  LIG1        0.2923
@<TRIPOS>BOND
     1    40    38    1
     2    38    39   ar
     3    38    37   ar
     4    39    35   ar
     5    20    18    1
     6    12    11    1
     7    23    22    1
     8    46    45    1
     9    11     3    1
    10    22    15    1
    11    37    45    1
    12    37    36   ar
    13    35    27    1
    14    35    36   ar
    15    15    14   ar
    16    15    16   ar
    17    18    14    1
    18    18    21    1
    19    18    19    1
    20    28    27   ar
    21    28    24   ar
    22    27    26   ar
    23     9     7    1
    24    14    13   ar
    25    34    33    1
    26    36    41    1
    27    16    24    1
    28    16    17   ar
    29    24    25   ar
    30    26    33    1
    31    26    25   ar
    32    31    29    1
    33     3     4   ar
    34     3     2   ar
    35    13    17   ar
    36    13     4    1
    37    25    29    1
    38     7     8    1
    39     7     2    1
    40     7    10    1
    41     4     5   ar
    42    29    32    1
    43    29    30    1
    44     2     1   ar
    45    43    41    1
    46    41    44    1
    47    41    42    1
    48     5     1   ar
    49     1     6    1
