@<TRIPOS>MOLECULE
mol_data/opt/b3lyp/geoms/mol2/12if12if-12if-12if.out
 46 49 0 0 0
SMALL
GASTEIGER

@<TRIPOS>ATOM
      1 C           0.2974    1.7283   -0.0601 C.ar    1  LIG1        0.0993
      2 C           1.6400    1.8474   -0.2685 C.ar    1  LIG1        0.0295
      3 C           1.8925    3.2588   -0.2584 C.ar    1  LIG1        0.1687
      4 C           0.6858    3.8917   -0.0449 C.ar    1  LIG1        0.2114
      5 O          -0.3056    2.9458    0.0787 O.2     1  LIG1       -0.4557
      6 H          -0.3554    0.8721    0.0126 H       1  LIG1        0.1033
      7 C           2.6576    0.7685   -0.4686 C.3     1  LIG1       -0.0332
      8 H           3.4346    0.8112    0.3021 H       1  LIG1        0.0280
      9 H           3.1606    0.8753   -1.4356 H       1  LIG1        0.0280
     10 H           2.1957   -0.2217   -0.4323 H       1  LIG1        0.0280
     11 O           3.1198    3.8007   -0.4364 O.3     1  LIG1       -0.5030
     12 H           3.0403    4.7678   -0.3949 H       1  LIG1        0.2923
     13 C           0.3787    5.2841    0.0538 C.ar    1  LIG1        0.1809
     14 C          -0.7503    6.0453    0.2523 C.ar    1  LIG1        0.0407
     15 C          -0.2940    7.4015    0.2439 C.ar    1  LIG1        0.1694
     16 C           1.0670    7.4122    0.0319 C.ar    1  LIG1        0.2125
     17 O           1.4765    6.0939   -0.0840 O.2     1  LIG1       -0.4444
     18 C          -2.1660    5.5964    0.4553 C.3     1  LIG1       -0.0325
     19 H          -2.2381    4.5096    0.4003 H       1  LIG1        0.0280
     20 H          -2.8368    6.0103   -0.3093 H       1  LIG1        0.0280
     21 H          -2.5537    5.9021    1.4363 H       1  LIG1        0.0280
     22 O          -1.0661    8.5108    0.4294 O.3     1  LIG1       -0.5029
     23 H          -1.9794    8.2309    0.5724 H       1  LIG1        0.2923
     24 C           2.1062    8.3964   -0.0671 C.ar    1  LIG1        0.1809
     25 C           2.1546    9.7633   -0.2557 C.ar    1  LIG1        0.0407
     26 C           3.5451   10.0967   -0.2487 C.ar    1  LIG1        0.1694
     27 C           4.2662    8.9367   -0.0722 C.ar    1  LIG1        0.2124
     28 O           3.3772    7.8917    0.0399 O.2     1  LIG1       -0.4444
     29 C           1.0496   10.7525   -0.4729 C.3     1  LIG1       -0.0325
     30 H           0.0690   10.2869   -0.3805 H       1  LIG1        0.0280
     31 H           1.1143   11.2086   -1.4699 H       1  LIG1        0.0280
     32 H           1.0923   11.5667    0.2635 H       1  LIG1        0.0280
     33 O           4.0826   11.3373   -0.3992 O.3     1  LIG1       -0.5029
     34 H           3.3602   11.9733   -0.4809 H       1  LIG1        0.2923
     35 C           5.6636    8.6268    0.0090 C.ar    1  LIG1        0.1799
     36 C           6.3536    7.4662    0.2928 C.ar    1  LIG1        0.0399
     37 C           7.7353    7.8344    0.2046 C.ar    1  LIG1        0.1581
     38 C           7.7988    9.1605   -0.1122 C.ar    1  LIG1        0.1343
     39 O           6.5271    9.6585   -0.2360 O.2     1  LIG1       -0.4557
     40 H           8.6061    9.8571   -0.2712 H       1  LIG1        0.1068
     41 C           5.8402    6.0993    0.6306 C.3     1  LIG1       -0.0325
     42 H           6.5384    5.5900    1.3009 H       1  LIG1        0.0280
     43 H           5.7362    5.4679   -0.2610 H       1  LIG1        0.0280
     44 H           4.8641    6.1487    1.1168 H       1  LIG1        0.0280
     45 O           8.7385    6.9356    0.4276 O.3     1  LIG1       -0.5034
     46 H           9.5885    7.3888    0.3618 H       1  LIG1        0.2923
@<TRIPOS>BOND
     1    31    29    1
     2     9     7    1
     3    34    33    1
     4    29    30    1
     5    29    25    1
     6    29    32    1
     7     7    10    1
     8     7     2    1
     9     7     8    1
    10    11    12    1
    11    11     3    1
    12    33    26    1
    13    20    18    1
    14    40    38    1
    15     2     3   ar
    16     2     1   ar
    17    43    41    1
    18     3     4   ar
    19    25    26   ar
    20    25    24   ar
    21    26    27   ar
    22    39    38   ar
    23    39    35   ar
    24    38    37   ar
    25    17    16   ar
    26    17    13   ar
    27    27    35    1
    28    27    28   ar
    29    24    16    1
    30    24    28   ar
    31     1     6    1
    32     1     5   ar
    33     4    13    1
    34     4     5   ar
    35    35    36   ar
    36    16    15   ar
    37    13    14   ar
    38    37    36   ar
    39    37    45    1
    40    15    14   ar
    41    15    22    1
    42    14    18    1
    43    36    41    1
    44    46    45    1
    45    19    18    1
    46    22    23    1
    47    18    21    1
    48    41    44    1
    49    41    42    1
