@<TRIPOS>MOLECULE
mol_data/opt/b3lyp/geoms/mol2/12if12if-.out
 24 25 0 0 0
SMALL
GASTEIGER

@<TRIPOS>ATOM
      1 C           0.2088    1.7635    0.0681 C.ar    1  LIG1        0.0993
      2 C           1.5715    1.7973    0.0342 C.ar    1  LIG1        0.0295
      3 C           1.9047    3.1915   -0.0056 C.ar    1  LIG1        0.1687
      4 C           0.7249    3.9008    0.0071 C.ar    1  LIG1        0.2114
      5 O          -0.3294    3.0184    0.0528 O.2     1  LIG1       -0.4557
      6 H          -0.4997    0.9504    0.1040 H       1  LIG1        0.1033
      7 C           2.5384    0.6549    0.0364 C.3     1  LIG1       -0.0332
      8 H           3.2108    0.7077    0.8994 H       1  LIG1        0.0280
      9 H           3.1676    0.6679   -0.8601 H       1  LIG1        0.0280
     10 H           2.0155   -0.3045    0.0709 H       1  LIG1        0.0280
     11 O           3.1769    3.6588   -0.0472 O.3     1  LIG1       -0.5030
     12 H           3.1355    4.6280   -0.0687 H       1  LIG1        0.2923
     13 C           0.4816    5.3140   -0.0196 C.ar    1  LIG1        0.1798
     14 C          -0.6302    6.1204   -0.0111 C.ar    1  LIG1        0.0399
     15 C          -0.1181    7.4651   -0.0546 C.ar    1  LIG1        0.1581
     16 C           1.2409    7.4022   -0.0861 C.ar    1  LIG1        0.1343
     17 O           1.6253    6.0765   -0.0648 O.2     1  LIG1       -0.4557
     18 H           2.0245    8.1387   -0.1221 H       1  LIG1        0.1068
     19 C          -2.0783    5.7363    0.0325 C.3     1  LIG1       -0.0325
     20 H          -2.1930    4.6522    0.0593 H       1  LIG1        0.0280
     21 H          -2.6218    6.1039   -0.8482 H       1  LIG1        0.0280
     22 H          -2.5789    6.1430    0.9214 H       1  LIG1        0.0280
     23 O          -0.8489    8.6151   -0.0633 O.3     1  LIG1       -0.5034
     24 H          -1.7860    8.3840   -0.0358 H       1  LIG1        0.2923
@<TRIPOS>BOND
     1     9     7    1
     2    21    19    1
     3    18    16    1
     4    16    17   ar
     5    16    15   ar
     6    12    11    1
     7    17    13   ar
     8    23    15    1
     9    23    24    1
    10    15    14   ar
    11    11     3    1
    12    13    14   ar
    13    13     4    1
    14    14    19    1
    15     3     4   ar
    16     3     2   ar
    17     4     5   ar
    18    19    20    1
    19    19    22    1
    20     2     7    1
    21     2     1   ar
    22     7    10    1
    23     7     8    1
    24     5     1   ar
    25     1     6    1
