@<TRIPOS>MOLECULE
mol_data/opt/b3lyp/geoms/mol2/12if4ia-4hd4eh.out
 53 56 0 0 0
SMALL
GASTEIGER

@<TRIPOS>ATOM
      1 C           0.3768    1.5889   -0.5758 C.ar    1  LIG1        0.0991
      2 C           1.7192    1.5694   -0.3407 C.ar    1  LIG1        0.0294
      3 C           2.0627    2.9418   -0.1042 C.ar    1  LIG1        0.1655
      4 C           0.9161    3.6953   -0.1835 C.ar    1  LIG1        0.1765
      5 O          -0.1291    2.8498   -0.5019 O.2     1  LIG1       -0.4589
      6 H          -0.3345    0.8078   -0.7979 H       1  LIG1        0.1033
      7 C           2.6592    0.4047   -0.3455 C.3     1  LIG1       -0.0332
      8 H           3.1148    0.2546    0.6395 H       1  LIG1        0.0280
      9 H           3.4781    0.5619   -1.0557 H       1  LIG1        0.0280
     10 H           2.1413   -0.5175   -0.6221 H       1  LIG1        0.0280
     11 O           3.3509    3.3471    0.1022 O.3     1  LIG1       -0.5030
     12 H           3.4054    4.2958   -0.0738 H       1  LIG1        0.2923
     13 C           1.1445    5.9540    0.9181 C.ar    1  LIG1       -0.0391
     14 C           0.8603    7.3247    0.8828 C.ar    1  LIG1       -0.0504
     15 C           0.6362    5.1295   -0.1161 C.ar    1  LIG1        0.0238
     16 C           0.0613    7.9087   -0.1134 C.ar    1  LIG1       -0.0158
     17 H           1.2315    7.9495    1.6902 H       1  LIG1        0.0626
     18 C          -0.1845    5.7077   -1.1029 C.ar    1  LIG1       -0.0501
     19 C          -0.4706    7.0653   -1.1039 C.ar    1  LIG1       -0.0533
     20 H          -0.5869    5.0700   -1.8833 H       1  LIG1        0.0625
     21 C           1.8972    5.3872    2.1015 C.3     1  LIG1       -0.0390
     22 H           1.9897    6.1363    2.8916 H       1  LIG1        0.0278
     23 H           2.9069    5.0418    1.8550 H       1  LIG1        0.0278
     24 H           1.3729    4.5176    2.5108 H       1  LIG1        0.0278
     25 H          -1.0903    7.4856   -1.8902 H       1  LIG1        0.0624
     26 C           0.7138   10.3701    0.0512 C.ar    1  LIG1        0.0330
     27 C           0.3215   11.7193    0.0488 C.ar    1  LIG1       -0.0315
     28 C          -0.2726    9.3584   -0.0993 C.ar    1  LIG1        0.0040
     29 C          -1.0019   12.1196   -0.1101 C.ar    1  LIG1        0.0025
     30 H           1.0847   12.4807    0.1706 H       1  LIG1        0.0643
     31 C          -1.5974    9.7615   -0.2652 C.ar    1  LIG1       -0.0343
     32 C          -1.9846   11.1106   -0.2730 C.ar    1  LIG1        0.0602
     33 H          -2.3636    9.0021   -0.3808 H       1  LIG1        0.0637
     34 N           2.0519   10.0588    0.2312 N.pl3   1  LIG1       -0.3575
     35 H           2.3424    9.1443   -0.0849 H       1  LIG1        0.1423
     36 H           2.7050   10.7939   -0.0000 H       1  LIG1        0.1423
     37 N          -4.5077   11.6103   -0.6216 N.1     1  LIG1       -0.1908
     38 C          -3.3702   11.4120   -0.4678 C.1     1  LIG1        0.0998
     39 C          -0.6943   14.5152   -0.9069 C.ar    1  LIG1        0.0325
     40 C          -1.0758   15.8672   -0.8043 C.ar    1  LIG1       -0.0440
     41 C          -1.3521   13.5667   -0.0788 C.ar    1  LIG1        0.0005
     42 C          -2.0678   16.2838    0.0685 C.ar    1  LIG1       -0.0399
     43 H          -0.5813   16.5932   -1.4413 H       1  LIG1        0.0630
     44 C          -2.3456   14.0011    0.7995 C.ar    1  LIG1       -0.0321
     45 C          -2.7284   15.3493    0.8846 C.ar    1  LIG1        0.0252
     46 H          -2.8365   13.2762    1.4410 H       1  LIG1        0.0642
     47 H          -2.3394   17.3347    0.1205 H       1  LIG1        0.0636
     48 C           0.3028   14.1588   -1.8661 C.1     1  LIG1       -0.0691
     49 C           1.1509   13.9172   -2.6968 C.1     1  LIG1       -0.1139
     50 H           1.8803   13.6916   -3.4392 H       1  LIG1        0.1232
     51 N          -3.6948   15.7501    1.7981 N.pl3   1  LIG1       -0.3579
     52 H          -4.1478   16.6302    1.5959 H       1  LIG1        0.1423
     53 H          -4.3531   15.0352    2.0760 H       1  LIG1        0.1423
@<TRIPOS>BOND
     1    50    49    1
     2    49    48    3
     3    25    19    1
     4    20    18    1
     5    48    39    1
     6    43    40    1
     7    19    18   ar
     8    19    16   ar
     9    18    15   ar
    10     9     7    1
    11    39    40   ar
    12    39    41   ar
    13    40    42   ar
    14     6     1    1
    15    10     7    1
    16    37    38    3
    17     1     5   ar
    18     1     2   ar
    19     5     4   ar
    20    38    32    1
    21    33    31    1
    22     7     2    1
    23     7     8    1
    24     2     3   ar
    25    32    31   ar
    26    32    29   ar
    27    31    28   ar
    28     4    15    1
    29     4     3   ar
    30    15    13   ar
    31    16    28    1
    32    16    14   ar
    33    29    41    1
    34    29    27   ar
    35     3    11    1
    36    28    26   ar
    37    35    34    1
    38    41    44   ar
    39    12    11    1
    40    36    34    1
    41    27    26   ar
    42    27    30    1
    43    26    34    1
    44    42    47    1
    45    42    45   ar
    46    44    45   ar
    47    44    46    1
    48    14    13   ar
    49    14    17    1
    50    45    51    1
    51    13    21    1
    52    52    51    1
    53    51    53    1
    54    23    21    1
    55    21    24    1
    56    21    22    1
