@<TRIPOS>MOLECULE
mol_data/opt/b3lyp/geoms/mol2/12if12if-12if12if.out
 46 49 0 0 0
SMALL
GASTEIGER

@<TRIPOS>ATOM
      1 C           0.3160    1.6768    0.2559 C.ar    1  LIG1        0.0993
      2 C           1.6746    1.7908    0.2271 C.ar    1  LIG1        0.0295
      3 C           1.9250    3.1998    0.1454 C.ar    1  LIG1        0.1687
      4 C           0.7036    3.8385    0.1287 C.ar    1  LIG1        0.2114
      5 O          -0.2965    2.8955    0.1978 O.2     1  LIG1       -0.4557
      6 H          -0.3427    0.8241    0.3143 H       1  LIG1        0.1033
      7 C           2.7078    0.7089    0.2708 C.3     1  LIG1       -0.0332
      8 H           3.3711    0.8308    1.1338 H       1  LIG1        0.0280
      9 H           3.3396    0.7297   -0.6236 H       1  LIG1        0.0280
     10 H           2.2426   -0.2783    0.3359 H       1  LIG1        0.0280
     11 O           3.1686    3.7365    0.1026 O.3     1  LIG1       -0.5030
     12 H           3.0816    4.7022    0.0767 H       1  LIG1        0.2923
     13 C           0.3745    5.2288    0.0572 C.ar    1  LIG1        0.1809
     14 C          -0.7841    5.9695    0.0959 C.ar    1  LIG1        0.0407
     15 C          -0.3669    7.3339   -0.0194 C.ar    1  LIG1        0.1694
     16 C           1.0066    7.3636   -0.1211 C.ar    1  LIG1        0.2125
     17 O           1.4653    6.0563   -0.0721 O.2     1  LIG1       -0.4444
     18 C          -2.2010    5.4994    0.2302 C.3     1  LIG1       -0.0325
     19 H          -2.2442    4.4137    0.3200 H       1  LIG1        0.0280
     20 H          -2.8056    5.7823   -0.6418 H       1  LIG1        0.0280
     21 H          -2.6844    5.9254    1.1192 H       1  LIG1        0.0280
     22 O          -1.1689    8.4288   -0.0329 O.3     1  LIG1       -0.5029
     23 H          -2.0878    8.1377    0.0289 H       1  LIG1        0.2923
     24 C           1.9780    8.4039   -0.2622 C.ar    1  LIG1        0.1809
     25 C           3.3392    8.3905   -0.5070 C.ar    1  LIG1        0.0407
     26 C           3.7138    9.7653   -0.5365 C.ar    1  LIG1        0.1694
     27 C           2.5923   10.5280   -0.3052 C.ar    1  LIG1        0.2124
     28 O           1.5154    9.6823   -0.1400 O.2     1  LIG1       -0.4444
     29 C           4.2639    7.2346   -0.7429 C.3     1  LIG1       -0.0325
     30 H           5.1594    7.5769   -1.2679 H       1  LIG1        0.0280
     31 H           3.7921    6.4575   -1.3506 H       1  LIG1        0.0280
     32 H           4.5988    6.7751    0.1962 H       1  LIG1        0.0280
     33 O           4.9842   10.1809   -0.7966 O.3     1  LIG1       -0.5029
     34 H           4.9639   11.1339   -0.9641 H       1  LIG1        0.2923
     35 C           2.3989   11.9516   -0.2380 C.ar    1  LIG1        0.1799
     36 C           3.1720   12.9552    0.3057 C.ar    1  LIG1        0.0399
     37 C           2.4820   14.1713   -0.0116 C.ar    1  LIG1        0.1581
     38 C           1.3491   13.8378   -0.6948 C.ar    1  LIG1        0.1343
     39 O           1.2899   12.4779   -0.8486 O.2     1  LIG1       -0.4557
     40 H           0.5267   14.4056   -1.1003 H       1  LIG1        0.1068
     41 C           4.4147   12.8469    1.1365 C.3     1  LIG1       -0.0325
     42 H           4.3277   13.4688    2.0334 H       1  LIG1        0.0280
     43 H           5.3063   13.1989    0.6020 H       1  LIG1        0.0280
     44 H           4.5916   11.8155    1.4508 H       1  LIG1        0.0280
     45 O           2.9536   15.3915    0.3769 O.3     1  LIG1       -0.5034
     46 H           2.3143   16.0722    0.1306 H       1  LIG1        0.2923
@<TRIPOS>BOND
     1    31    29    1
     2    30    29    1
     3    40    38    1
     4    34    33    1
     5    39    38   ar
     6    39    35   ar
     7    33    26    1
     8    29    25    1
     9    29    32    1
    10    38    37   ar
    11    20    18    1
    12     9     7    1
    13    26    25   ar
    14    26    27   ar
    15    25    24   ar
    16    27    35    1
    17    27    28   ar
    18    24    28   ar
    19    24    16    1
    20    35    36   ar
    21    16    17   ar
    22    16    15   ar
    23    17    13   ar
    24    22    15    1
    25    22    23    1
    26    15    14   ar
    27    37    36   ar
    28    37    45    1
    29    13    14   ar
    30    13     4    1
    31    12    11    1
    32    14    18    1
    33    11     3    1
    34     4     3   ar
    35     4     5   ar
    36    46    45    1
    37     3     2   ar
    38     5     1   ar
    39     2     1   ar
    40     2     7    1
    41    18    19    1
    42    18    21    1
    43     1     6    1
    44     7    10    1
    45     7     8    1
    46    36    41    1
    47    43    41    1
    48    41    44    1
    49    41    42    1
