@<TRIPOS>MOLECULE
mol_data/opt/b3lyp/geoms/mol2/12if12if12if12if-.out
 46 49 0 0 0
SMALL
GASTEIGER

@<TRIPOS>ATOM
      1 C           1.3391    2.0429    1.7216 C.ar    1  LIG1        0.0993
      2 C           2.1983    1.8834    0.6735 C.ar    1  LIG1        0.0295
      3 C           2.0646    3.0900   -0.0876 C.ar    1  LIG1        0.1687
      4 C           1.1555    3.8980    0.5541 C.ar    1  LIG1        0.2114
      5 O           0.6982    3.2401    1.6773 O.2     1  LIG1       -0.4557
      6 H           1.0830    1.4029    2.5524 H       1  LIG1        0.1033
      7 C           3.0770    0.7163    0.3479 C.3     1  LIG1       -0.0332
      8 H           4.1343    1.0028    0.3399 H       1  LIG1        0.0280
      9 H           2.8474    0.3127   -0.6442 H       1  LIG1        0.0280
     10 H           2.9497   -0.0866    1.0789 H       1  LIG1        0.0280
     11 O           2.7369    3.3071   -1.2513 O.3     1  LIG1       -0.5030
     12 H           2.3702    4.0950   -1.6770 H       1  LIG1        0.2923
     13 C           0.6442    5.2086    0.2470 C.ar    1  LIG1        0.1809
     14 C           1.2541    6.3362   -0.2627 C.ar    1  LIG1        0.0407
     15 C           0.2025    7.2899   -0.4151 C.ar    1  LIG1        0.1694
     16 C          -0.9626    6.7188    0.0429 C.ar    1  LIG1        0.2125
     17 O          -0.6951    5.4245    0.4340 O.2     1  LIG1       -0.4444
     18 C           2.7040    6.5813   -0.5536 C.3     1  LIG1       -0.0325
     19 H           3.0415    7.5020   -0.0665 H       1  LIG1        0.0280
     20 H           2.8915    6.7124   -1.6266 H       1  LIG1        0.0280
     21 H           3.3272    5.7596   -0.1937 H       1  LIG1        0.0280
     22 O           0.4076    8.5317   -0.9332 O.3     1  LIG1       -0.5029
     23 H          -0.4508    8.9559   -1.0724 H       1  LIG1        0.2923
     24 C          -2.3036    7.2217    0.1595 C.ar    1  LIG1        0.1809
     25 C          -2.8059    8.4640    0.4895 C.ar    1  LIG1        0.0407
     26 C          -4.2235    8.3428    0.3688 C.ar    1  LIG1        0.1694
     27 C          -4.5032    7.0447    0.0013 C.ar    1  LIG1        0.2124
     28 O          -3.3264    6.3531   -0.1402 O.2     1  LIG1       -0.4444
     29 C          -2.0769    9.6830    0.9674 C.3     1  LIG1       -0.0325
     30 H          -2.5478   10.0737    1.8752 H       1  LIG1        0.0280
     31 H          -2.1056   10.4960    0.2310 H       1  LIG1        0.0280
     32 H          -1.0319    9.4606    1.1952 H       1  LIG1        0.0280
     33 O          -5.0863    9.3573    0.6218 O.3     1  LIG1       -0.5029
     34 H          -5.9875    9.0158    0.5084 H       1  LIG1        0.2923
     35 C          -5.7543    6.3812   -0.2112 C.ar    1  LIG1        0.1799
     36 C          -6.1428    5.1041   -0.5375 C.ar    1  LIG1        0.0399
     37 C          -7.5803    5.1510   -0.5809 C.ar    1  LIG1        0.1581
     38 C          -7.9744    6.4205   -0.2867 C.ar    1  LIG1        0.1343
     39 O          -6.8544    7.1928   -0.0559 O.2     1  LIG1       -0.4557
     40 H          -8.9304    6.9079   -0.2057 H       1  LIG1        0.1068
     41 C          -5.2972    3.8939   -0.7964 C.3     1  LIG1       -0.0325
     42 H          -4.2376    4.1250   -0.6836 H       1  LIG1        0.0280
     43 H          -5.4457    3.5069   -1.8135 H       1  LIG1        0.0280
     44 H          -5.5325    3.0803   -0.0972 H       1  LIG1        0.0280
     45 O          -8.4205    4.1174   -0.8654 O.3     1  LIG1       -0.5034
     46 H          -7.8902    3.3287   -1.0358 H       1  LIG1        0.2923
@<TRIPOS>BOND
     1    43    41    1
     2    12    11    1
     3    20    18    1
     4    11     3    1
     5    23    22    1
     6    46    45    1
     7    22    15    1
     8    45    37    1
     9    41    42    1
    10    41    36    1
    11    41    44    1
    12     9     7    1
    13    37    36   ar
    14    37    38   ar
    15    18    14    1
    16    18    21    1
    17    18    19    1
    18    36    35   ar
    19    15    14   ar
    20    15    16   ar
    21    38    40    1
    22    38    39   ar
    23    14    13   ar
    24    35    39   ar
    25    35    27    1
    26    28    27   ar
    27    28    24   ar
    28     3     4   ar
    29     3     2   ar
    30    27    26   ar
    31    16    24    1
    32    16    17   ar
    33    24    25   ar
    34    31    29    1
    35    13    17   ar
    36    13     4    1
    37     8     7    1
    38     7     2    1
    39     7    10    1
    40    26    25   ar
    41    26    33    1
    42    25    29    1
    43    34    33    1
    44     4     5   ar
    45     2     1   ar
    46    29    32    1
    47    29    30    1
    48     5     1   ar
    49     1     6    1
