@<TRIPOS>MOLECULE
mol_data/opt/b3lyp/geoms/mol2/12if12if-12if-12if-.out
 46 49 0 0 0
SMALL
GASTEIGER

@<TRIPOS>ATOM
      1 C           0.2783    1.7090    0.1211 C.ar    1  LIG1        0.0993
      2 C           1.6302    1.8229   -0.0171 C.ar    1  LIG1        0.0295
      3 C           1.8829    3.2345   -0.0506 C.ar    1  LIG1        0.1687
      4 C           0.6654    3.8722    0.0693 C.ar    1  LIG1        0.2114
      5 O          -0.3316    2.9294    0.1763 O.2     1  LIG1       -0.4557
      6 H          -0.3772    0.8548    0.1926 H       1  LIG1        0.1033
      7 C           2.6577    0.7395   -0.1157 C.3     1  LIG1       -0.0332
      8 H           3.3913    0.8168    0.6938 H       1  LIG1        0.0280
      9 H           3.2130    0.8076   -1.0573 H       1  LIG1        0.0280
     10 H           2.1950   -0.2496   -0.0635 H       1  LIG1        0.0280
     11 O           3.1200    3.7635   -0.1784 O.3     1  LIG1       -0.5030
     12 H           3.0547    4.7329   -0.1728 H       1  LIG1        0.2923
     13 C           0.3502    5.2656    0.0936 C.ar    1  LIG1        0.1809
     14 C          -0.7887    6.0287    0.2164 C.ar    1  LIG1        0.0407
     15 C          -0.3368    7.3851    0.1635 C.ar    1  LIG1        0.1694
     16 C           1.0317    7.3925    0.0043 C.ar    1  LIG1        0.2125
     17 O           1.4485    6.0732   -0.0370 O.2     1  LIG1       -0.4444
     18 C          -2.2099    5.5826    0.3841 C.3     1  LIG1       -0.0325
     19 H          -2.2765    4.4941    0.3707 H       1  LIG1        0.0280
     20 H          -2.8526    5.9614   -0.4218 H       1  LIG1        0.0280
     21 H          -2.6357    5.9262    1.3364 H       1  LIG1        0.0280
     22 O          -1.1221    8.4963    0.2635 O.3     1  LIG1       -0.5029
     23 H          -2.0382    8.2164    0.3871 H       1  LIG1        0.2923
     24 C           2.0755    8.3717   -0.1062 C.ar    1  LIG1        0.1809
     25 C           2.1312    9.7412   -0.2792 C.ar    1  LIG1        0.0407
     26 C           3.5249   10.0535   -0.3147 C.ar    1  LIG1        0.1694
     27 C           4.2415    8.8892   -0.1602 C.ar    1  LIG1        0.2124
     28 O           3.3403    7.8557   -0.0297 O.2     1  LIG1       -0.4444
     29 C           1.0361   10.7492   -0.4580 C.3     1  LIG1       -0.0325
     30 H           0.0516   10.2923   -0.3654 H       1  LIG1        0.0280
     31 H           1.0901   11.2270   -1.4460 H       1  LIG1        0.0280
     32 H           1.0984   11.5459    0.2960 H       1  LIG1        0.0280
     33 O           4.0665   11.2934   -0.4997 O.3     1  LIG1       -0.5029
     34 H           3.3471   11.9284   -0.6098 H       1  LIG1        0.2923
     35 C           5.6363    8.5344   -0.1374 C.ar    1  LIG1        0.1799
     36 C           6.8032    9.2203    0.1280 C.ar    1  LIG1        0.0399
     37 C           7.8501    8.2523   -0.0418 C.ar    1  LIG1        0.1581
     38 C           7.2716    7.0659   -0.3792 C.ar    1  LIG1        0.1343
     39 O           5.9132    7.2285   -0.4436 O.2     1  LIG1       -0.4557
     40 H           7.6567    6.0818   -0.5856 H       1  LIG1        0.1068
     41 C           7.0179   10.6381    0.5646 C.3     1  LIG1       -0.0325
     42 H           6.0953   11.2163    0.5221 H       1  LIG1        0.0280
     43 H           7.7463   11.1485   -0.0807 H       1  LIG1        0.0280
     44 H           7.4019   10.6869    1.5927 H       1  LIG1        0.0280
     45 O           9.1897    8.4602    0.1176 O.3     1  LIG1       -0.5034
     46 H           9.3273    9.3862    0.3537 H       1  LIG1        0.2923
@<TRIPOS>BOND
     1    31    29    1
     2     9     7    1
     3    34    33    1
     4    40    38    1
     5    33    26    1
     6    29    30    1
     7    29    25    1
     8    29    32    1
     9    39    38   ar
    10    39    35   ar
    11    20    18    1
    12    38    37   ar
    13    26    25   ar
    14    26    27   ar
    15    25    24   ar
    16    11    12    1
    17    11     3    1
    18    27    35    1
    19    27    28   ar
    20    35    36   ar
    21     7    10    1
    22     7     2    1
    23     7     8    1
    24    24    28   ar
    25    24    16    1
    26    43    41    1
    27     3     2   ar
    28     3     4   ar
    29    37    45    1
    30    37    36   ar
    31    17    16   ar
    32    17    13   ar
    33     2     1   ar
    34    16    15   ar
    35     4    13    1
    36     4     5   ar
    37    13    14   ar
    38    45    46    1
    39     1     5   ar
    40     1     6    1
    41    36    41    1
    42    15    14   ar
    43    15    22    1
    44    14    18    1
    45    22    23    1
    46    19    18    1
    47    18    21    1
    48    42    41    1
    49    41    44    1
