@<TRIPOS>MOLECULE
mol_data/opt/b3lyp/geoms/mol2/12ig12ig-12ig-.out
 35 37 0 0 0
SMALL
GASTEIGER

@<TRIPOS>ATOM
      1 C           0.6486    1.9707    1.3576 C.ar    1  LIG1        0.0967
      2 C           1.6444    1.7927    0.4445 C.ar    1  LIG1        0.0012
      3 C           1.7711    3.0644   -0.2207 C.ar    1  LIG1        0.0566
      4 C           0.8564    3.9153    0.3542 C.ar    1  LIG1        0.1833
      5 O           0.1544    3.2353    1.3227 O.2     1  LIG1       -0.4584
      6 H           0.1933    1.3052    2.0753 H       1  LIG1        0.1032
      7 C           2.4247    0.5459    0.1647 C.3     1  LIG1       -0.0357
      8 H           3.4920    0.6823    0.3740 H       1  LIG1        0.0279
      9 H           2.3360    0.2511   -0.8869 H       1  LIG1        0.0279
     10 H           2.0681   -0.2850    0.7793 H       1  LIG1        0.0279
     11 S           2.8800    3.3501   -1.5722 S.3     1  LIG1       -0.1386
     12 H           2.2760    4.4706   -2.0178 H       1  LIG1        0.1072
     13 C           0.5031    5.2972    0.1184 C.ar    1  LIG1        0.1758
     14 C           1.2559    6.4428    0.0065 C.ar    1  LIG1        0.0123
     15 C           0.3157    7.4949   -0.2616 C.ar    1  LIG1        0.0573
     16 C          -0.9392    6.9312   -0.2527 C.ar    1  LIG1        0.1843
     17 O          -0.8289    5.5812   -0.0355 O.2     1  LIG1       -0.4472
     18 C           2.7360    6.5955    0.1744 C.3     1  LIG1       -0.0349
     19 H           2.9640    7.3598    0.9259 H       1  LIG1        0.0279
     20 H           3.2204    6.9072   -0.7585 H       1  LIG1        0.0279
     21 H           3.1935    5.6577    0.4946 H       1  LIG1        0.0279
     22 S           0.7952    9.1707   -0.5787 S.3     1  LIG1       -0.1386
     23 H          -0.3917    9.5598   -1.0865 H       1  LIG1        0.1072
     24 C          -2.2661    7.4723   -0.4412 C.ar    1  LIG1        0.1748
     25 C          -2.9179    8.5537    0.1044 C.ar    1  LIG1        0.0116
     26 C          -4.2222    8.5616   -0.5062 C.ar    1  LIG1        0.0462
     27 C          -4.2670    7.4921   -1.3515 C.ar    1  LIG1        0.1061
     28 O          -3.0885    6.8144   -1.3234 O.2     1  LIG1       -0.4584
     29 H          -5.0322    7.0939   -1.9993 H       1  LIG1        0.1041
     30 C          -2.4281    9.4840    1.1705 C.3     1  LIG1       -0.0350
     31 H          -3.1749    9.5791    1.9663 H       1  LIG1        0.0279
     32 H          -2.2394   10.4928    0.7840 H       1  LIG1        0.0279
     33 H          -1.4990    9.1189    1.6126 H       1  LIG1        0.0279
     34 S          -5.4695    9.7732   -0.1486 S.3     1  LIG1       -0.1393
     35 H          -6.5073    9.0820   -0.6594 H       1  LIG1        0.1072
@<TRIPOS>BOND
     1    12    11    1
     2    29    27    1
     3    11     3    1
     4    27    28   ar
     5    27    26   ar
     6    28    24   ar
     7    23    22    1
     8     9     7    1
     9    20    18    1
    10    35    34    1
    11    22    15    1
    12    26    34    1
    13    26    25   ar
    14    24    16    1
    15    24    25   ar
    16    15    16   ar
    17    15    14   ar
    18    16    17   ar
    19     3     4   ar
    20     3     2   ar
    21    17    13   ar
    22    14    13   ar
    23    14    18    1
    24    25    30    1
    25    13     4    1
    26     7     8    1
    27     7     2    1
    28     7    10    1
    29    18    21    1
    30    18    19    1
    31     4     5   ar
    32     2     1   ar
    33    32    30    1
    34    30    33    1
    35    30    31    1
    36     5     1   ar
    37     1     6    1
