@<TRIPOS>MOLECULE
mol_data/opt/b3lyp/geoms/mol2/12ig12ig12ig.out
 35 37 0 0 0
SMALL
GASTEIGER

@<TRIPOS>ATOM
      1 C           0.6326    1.9730    1.3552 C.ar    1  LIG1        0.0967
      2 C           1.6399    1.7939    0.4549 C.ar    1  LIG1        0.0012
      3 C           1.7748    3.0648   -0.2103 C.ar    1  LIG1        0.0566
      4 C           0.8527    3.9163    0.3519 C.ar    1  LIG1        0.1833
      5 O           0.1387    3.2374    1.3124 O.2     1  LIG1       -0.4584
      6 H           0.1683    1.3083    2.0679 H       1  LIG1        0.1032
      7 C           2.4238    0.5469    0.1866 C.3     1  LIG1       -0.0357
      8 H           3.4883    0.6835    0.4099 H       1  LIG1        0.0279
      9 H           2.3490    0.2513   -0.8659 H       1  LIG1        0.0279
     10 H           2.0591   -0.2834    0.7971 H       1  LIG1        0.0279
     11 S           2.9004    3.3488   -1.5483 S.3     1  LIG1       -0.1386
     12 H           2.3009    4.4676   -2.0041 H       1  LIG1        0.1072
     13 C           0.5021    5.2979    0.1101 C.ar    1  LIG1        0.1758
     14 C           1.2561    6.4433    0.0047 C.ar    1  LIG1        0.0123
     15 C           0.3188    7.4948   -0.2755 C.ar    1  LIG1        0.0573
     16 C          -0.9360    6.9312   -0.2796 C.ar    1  LIG1        0.1843
     17 O          -0.8281    5.5814   -0.0590 O.2     1  LIG1       -0.4472
     18 C           2.7341    6.5966    0.1892 C.3     1  LIG1       -0.0349
     19 H           2.9534    7.3632    0.9410 H       1  LIG1        0.0279
     20 H           3.2294    6.9055   -0.7389 H       1  LIG1        0.0279
     21 H           3.1879    5.6599    0.5176 H       1  LIG1        0.0279
     22 S           0.8015    9.1704   -0.5892 S.3     1  LIG1       -0.1386
     23 H          -0.3797    9.5586   -1.1109 H       1  LIG1        0.1072
     24 C          -2.2608    7.4717   -0.4841 C.ar    1  LIG1        0.1748
     25 C          -2.9196    8.5529    0.0535 C.ar    1  LIG1        0.0116
     26 C          -4.2166    8.5601   -0.5724 C.ar    1  LIG1        0.0462
     27 C          -4.2509    7.4904   -1.4179 C.ar    1  LIG1        0.1061
     28 O          -3.0725    6.8132   -1.3758 O.2     1  LIG1       -0.4584
     29 H          -5.0081    7.0917   -2.0746 H       1  LIG1        0.1041
     30 C          -2.4425    9.4841    1.1247 C.3     1  LIG1       -0.0350
     31 H          -3.1984    9.5793    1.9118 H       1  LIG1        0.0279
     32 H          -2.2498   10.4927    0.7396 H       1  LIG1        0.0279
     33 H          -1.5184    9.1196    1.5776 H       1  LIG1        0.0279
     34 S          -5.4687    9.7711   -0.2300 S.3     1  LIG1       -0.1393
     35 H          -6.5004    9.0782   -0.7504 H       1  LIG1        0.1072
@<TRIPOS>BOND
     1    29    27    1
     2    12    11    1
     3    11     3    1
     4    27    28   ar
     5    27    26   ar
     6    28    24   ar
     7    23    22    1
     8     9     7    1
     9    35    34    1
    10    20    18    1
    11    22    15    1
    12    26    34    1
    13    26    25   ar
    14    24    16    1
    15    24    25   ar
    16    16    15   ar
    17    16    17   ar
    18    15    14   ar
    19     3     4   ar
    20     3     2   ar
    21    17    13   ar
    22    14    13   ar
    23    14    18    1
    24    25    30    1
    25    13     4    1
    26     7     8    1
    27     7     2    1
    28     7    10    1
    29    18    21    1
    30    18    19    1
    31     4     5   ar
    32     2     1   ar
    33    32    30    1
    34    30    33    1
    35    30    31    1
    36     5     1   ar
    37     1     6    1
