@<TRIPOS>MOLECULE
mol_data/opt/b3lyp/geoms/mol2/12ig12ig-12ig.out
 35 37 0 0 0
SMALL
GASTEIGER

@<TRIPOS>ATOM
      1 C           0.6487    1.9749    1.3639 C.ar    1  LIG1        0.0967
      2 C           1.6442    1.7939    0.4508 C.ar    1  LIG1        0.0012
      3 C           1.7709    3.0636   -0.2183 C.ar    1  LIG1        0.0566
      4 C           0.8564    3.9163    0.3543 C.ar    1  LIG1        0.1833
      5 O           0.1547    3.2395    1.3252 O.2     1  LIG1       -0.4584
      6 H           0.1935    1.3118    2.0837 H       1  LIG1        0.1032
      7 C           2.4242    0.5461    0.1747 C.3     1  LIG1       -0.0357
      8 H           3.4914    0.6826    0.3845 H       1  LIG1        0.0279
      9 H           2.3361    0.2489   -0.8763 H       1  LIG1        0.0279
     10 H           2.0668   -0.2831    0.7909 H       1  LIG1        0.0279
     11 S           2.8792    3.3447   -1.5713 S.3     1  LIG1       -0.1386
     12 H           2.2756    4.4641   -2.0200 H       1  LIG1        0.1072
     13 C           0.5034    5.2977    0.1147 C.ar    1  LIG1        0.1758
     14 C           1.2562    6.4429   -0.0015 C.ar    1  LIG1        0.0123
     15 C           0.3158    7.4942   -0.2717 C.ar    1  LIG1        0.0573
     16 C          -0.9391    6.9309   -0.2596 C.ar    1  LIG1        0.1843
     17 O          -0.8288    5.5814   -0.0385 O.2     1  LIG1       -0.4472
     18 C           2.7365    6.5962    0.1643 C.3     1  LIG1       -0.0349
     19 H           2.9652    7.3626    0.9135 H       1  LIG1        0.0279
     20 H           3.2198    6.9055   -0.7699 H       1  LIG1        0.0279
     21 H           3.1946    5.6594    0.4866 H       1  LIG1        0.0279
     22 S           0.7952    9.1692   -0.5938 S.3     1  LIG1       -0.1386
     23 H          -0.3921    9.5571   -1.1015 H       1  LIG1        0.1072
     24 C          -2.2662    7.4716   -0.4483 C.ar    1  LIG1        0.1748
     25 C          -2.9178    8.5537    0.0960 C.ar    1  LIG1        0.0116
     26 C          -4.2225    8.5604   -0.5135 C.ar    1  LIG1        0.0462
     27 C          -4.2679    7.4895   -1.3570 C.ar    1  LIG1        0.1061
     28 O          -3.0893    6.8120   -1.3287 O.2     1  LIG1       -0.4584
     29 H          -5.0333    7.0901   -2.0036 H       1  LIG1        0.1041
     30 C          -2.4269    9.4864    1.1596 C.3     1  LIG1       -0.0350
     31 H          -3.1726    9.5826    1.9564 H       1  LIG1        0.0279
     32 H          -2.2396   10.4945    0.7707 H       1  LIG1        0.0279
     33 H          -1.4970    9.1228    1.6009 H       1  LIG1        0.0279
     34 S          -5.4700    9.7723   -0.1570 S.3     1  LIG1       -0.1393
     35 H          -6.5083    9.0790   -0.6637 H       1  LIG1        0.1072
@<TRIPOS>BOND
     1    12    11    1
     2    29    27    1
     3    11     3    1
     4    27    28   ar
     5    27    26   ar
     6    28    24   ar
     7    23    22    1
     8     9     7    1
     9    20    18    1
    10    35    34    1
    11    22    15    1
    12    26    34    1
    13    26    25   ar
    14    24    16    1
    15    24    25   ar
    16    15    16   ar
    17    15    14   ar
    18    16    17   ar
    19     3     4   ar
    20     3     2   ar
    21    17    13   ar
    22    14    13   ar
    23    14    18    1
    24    25    30    1
    25    13     4    1
    26    18    21    1
    27    18    19    1
    28     7     8    1
    29     7     2    1
    30     7    10    1
    31     4     5   ar
    32     2     1   ar
    33    32    30    1
    34    30    33    1
    35    30    31    1
    36     5     1   ar
    37     1     6    1
