@<TRIPOS>MOLECULE
mol_data/opt/b3lyp/geoms/mol2/12ig12ig-12ig-12ig-.out
 46 49 0 0 0
SMALL
GASTEIGER

@<TRIPOS>ATOM
      1 C           0.8461    1.6142    0.0890 C.ar    1  LIG1        0.0967
      2 C           2.0823    1.8746   -0.4219 C.ar    1  LIG1        0.0012
      3 C           2.1788    3.3118   -0.4497 C.ar    1  LIG1        0.0566
      4 C           1.0023    3.8061    0.0647 C.ar    1  LIG1        0.1833
      5 O           0.1741    2.7570    0.3859 O.2     1  LIG1       -0.4584
      6 H           0.3202    0.6925    0.2865 H       1  LIG1        0.1032
      7 C           3.1129    0.8916   -0.8836 C.3     1  LIG1       -0.0357
      8 H           4.0306    0.9592   -0.2879 H       1  LIG1        0.0279
      9 H           3.3909    1.0709   -1.9283 H       1  LIG1        0.0279
     10 H           2.7394   -0.1327   -0.8048 H       1  LIG1        0.0279
     11 S           3.5683    4.1829   -1.1198 S.3     1  LIG1       -0.1386
     12 H           2.9252    5.3530   -1.3090 H       1  LIG1        0.1072
     13 C           0.5024    5.1425    0.2890 C.ar    1  LIG1        0.1758
     14 C           1.0510    6.2601    0.8712 C.ar    1  LIG1        0.0123
     15 C           0.0369    7.2773    0.7846 C.ar    1  LIG1        0.0573
     16 C          -1.0585    6.7059    0.1720 C.ar    1  LIG1        0.1843
     17 O          -0.7807    5.4034   -0.1287 O.2     1  LIG1       -0.4472
     18 C           2.3787    6.3840    1.5490 C.3     1  LIG1       -0.0349
     19 H           2.2672    6.9110    2.5020 H       1  LIG1        0.0279
     20 H           3.0996    6.9526    0.9487 H       1  LIG1        0.0279
     21 H           2.8135    5.4008    1.7393 H       1  LIG1        0.0279
     22 S           0.0774    8.8680    1.5710 S.3     1  LIG1       -0.1386
     23 H           1.1087    9.3924    0.8731 H       1  LIG1        0.1072
     24 C          -2.3806    7.1779   -0.1747 C.ar    1  LIG1        0.1758
     25 C          -2.8447    8.3387   -0.7481 C.ar    1  LIG1        0.0123
     26 C          -4.2664    8.1699   -0.8475 C.ar    1  LIG1        0.0573
     27 C          -4.5689    6.9294   -0.3332 C.ar    1  LIG1        0.1843
     28 O          -3.4133    6.3130    0.0699 O.2     1  LIG1       -0.4472
     29 C          -2.0554    9.5048   -1.2526 C.3     1  LIG1       -0.0349
     30 H          -2.4568    9.8503   -2.2113 H       1  LIG1        0.0279
     31 H          -1.0076    9.2331   -1.3951 H       1  LIG1        0.0279
     32 H          -2.0848   10.3486   -0.5543 H       1  LIG1        0.0279
     33 S          -5.3419    9.3629   -1.5954 S.3     1  LIG1       -0.1386
     34 H          -6.3555    8.5061   -1.8355 H       1  LIG1        0.1072
     35 C          -5.8042    6.1936   -0.1840 C.ar    1  LIG1        0.1748
     36 C          -7.0327    6.5166    0.3396 C.ar    1  LIG1        0.0116
     37 C          -7.8395    5.3311    0.1793 C.ar    1  LIG1        0.0462
     38 C          -7.0439    4.3925   -0.4105 C.ar    1  LIG1        0.1061
     39 O          -5.8097    4.8924   -0.6463 O.2     1  LIG1       -0.4584
     40 H          -7.2191    3.3707   -0.7096 H       1  LIG1        0.1041
     41 C          -7.4448    7.7907    1.0071 C.3     1  LIG1       -0.0350
     42 H          -7.8133    7.5952    2.0201 H       1  LIG1        0.0279
     43 H          -8.2592    8.2830    0.4639 H       1  LIG1        0.0279
     44 H          -6.6093    8.4892    1.0776 H       1  LIG1        0.0279
     45 S          -9.5618    5.1199    0.5588 S.3     1  LIG1       -0.1393
     46 H          -9.4548    5.0738    1.9054 H       1  LIG1        0.1072
@<TRIPOS>BOND
     1    30    29    1
     2     9     7    1
     3    34    33    1
     4    33    26    1
     5    31    29    1
     6    12    11    1
     7    29    25    1
     8    29    32    1
     9    11     3    1
    10     7    10    1
    11     7     2    1
    12     7     8    1
    13    26    25   ar
    14    26    27   ar
    15    25    24   ar
    16    40    38    1
    17    39    38   ar
    18    39    35   ar
    19     3     2   ar
    20     3     4   ar
    21     2     1   ar
    22    38    37   ar
    23    27    35    1
    24    27    28   ar
    25    35    36   ar
    26    24    28   ar
    27    24    16    1
    28    17    16   ar
    29    17    13   ar
    30     4    13    1
    31     4     5   ar
    32     1     6    1
    33     1     5   ar
    34    16    15   ar
    35    37    36   ar
    36    37    45    1
    37    13    14   ar
    38    36    41    1
    39    43    41    1
    40    45    46    1
    41    15    14   ar
    42    15    22    1
    43    14    18    1
    44    23    22    1
    45    20    18    1
    46    41    44    1
    47    41    42    1
    48    18    21    1
    49    18    19    1
