@<TRIPOS>MOLECULE
mol_data/opt/b3lyp/geoms/mol2/12ig12ig12ig12ig.out
 46 49 0 0 0
SMALL
GASTEIGER

@<TRIPOS>ATOM
      1 C           1.1206    2.3166    2.1670 C.ar    1  LIG1        0.0967
      2 C           1.8989    1.9215    1.1203 C.ar    1  LIG1        0.0012
      3 C           1.8381    3.0108    0.1792 C.ar    1  LIG1        0.0566
      4 C           1.0446    3.9850    0.7383 C.ar    1  LIG1        0.1833
      5 O           0.5913    3.5506    1.9625 O.2     1  LIG1       -0.4584
      6 H           0.8533    1.8359    3.0957 H       1  LIG1        0.1032
      7 C           2.6381    0.6296    0.9589 C.3     1  LIG1       -0.0357
      8 H           3.7203    0.7898    0.8908 H       1  LIG1        0.0279
      9 H           2.3298    0.1087    0.0454 H       1  LIG1        0.0279
     10 H           2.4523   -0.0359    1.8060 H       1  LIG1        0.0279
     11 S           2.6168    2.9682   -1.4108 S.3     1  LIG1       -0.1386
     12 H           1.8867    3.9631   -1.9545 H       1  LIG1        0.1072
     13 C           0.6068    5.2869    0.2870 C.ar    1  LIG1        0.1758
     14 C           1.2826    6.3641   -0.2375 C.ar    1  LIG1        0.0123
     15 C           0.2758    7.3497   -0.5157 C.ar    1  LIG1        0.0573
     16 C          -0.9290    6.8273   -0.1057 C.ar    1  LIG1        0.1843
     17 O          -0.7339    5.5561    0.3719 O.2     1  LIG1       -0.4472
     18 C           2.7581    6.5198   -0.4390 C.3     1  LIG1       -0.0349
     19 H           3.1228    7.4292    0.0518 H       1  LIG1        0.0279
     20 H           3.0165    6.6021   -1.5013 H       1  LIG1        0.0279
     21 H           3.3025    5.6693   -0.0249 H       1  LIG1        0.0279
     22 S           0.6262    8.9034   -1.2922 S.3     1  LIG1       -0.1386
     23 H          -0.6518    9.1901   -1.6128 H       1  LIG1        0.1072
     24 C          -2.2823    7.3359   -0.1149 C.ar    1  LIG1        0.1758
     25 C          -2.8335    8.5227    0.3097 C.ar    1  LIG1        0.0123
     26 C          -4.2319    8.4287   -0.0037 C.ar    1  LIG1        0.0573
     27 C          -4.4431    7.1865   -0.5550 C.ar    1  LIG1        0.1843
     28 O          -3.2485    6.5172   -0.6379 O.2     1  LIG1       -0.4472
     29 C          -2.1550    9.6622    1.0048 C.3     1  LIG1       -0.0349
     30 H          -2.6510    9.8849    1.9564 H       1  LIG1        0.0279
     31 H          -2.1848   10.5792    0.4046 H       1  LIG1        0.0279
     32 H          -1.1095    9.4296    1.2146 H       1  LIG1        0.0279
     33 S          -5.3811    9.7479    0.2742 S.3     1  LIG1       -0.1386
     34 H          -6.3763    9.2223   -0.4685 H       1  LIG1        0.1072
     35 C          -5.6233    6.5137   -1.0510 C.ar    1  LIG1        0.1748
     36 C          -6.8692    6.2902   -0.5181 C.ar    1  LIG1        0.0116
     37 C          -7.5938    5.5620   -1.5314 C.ar    1  LIG1        0.0462
     38 C          -6.7376    5.3947   -2.5804 C.ar    1  LIG1        0.1061
     39 O          -5.5412    5.9675   -2.3170 O.2     1  LIG1       -0.4584
     40 H          -6.8436    4.9103   -3.5388 H       1  LIG1        0.1041
     41 C          -7.3659    6.6481    0.8474 C.3     1  LIG1       -0.0350
     42 H          -7.6965    5.7528    1.3854 H       1  LIG1        0.0279
     43 H          -8.2278    7.3225    0.7958 H       1  LIG1        0.0279
     44 H          -6.5860    7.1306    1.4391 H       1  LIG1        0.0279
     45 S          -9.2968    5.0575   -1.5084 S.3     1  LIG1       -0.1393
     46 H          -9.1829    4.0515   -0.6128 H       1  LIG1        0.1072
@<TRIPOS>BOND
     1    40    38    1
     2    38    39   ar
     3    38    37   ar
     4    39    35   ar
     5    12    11    1
     6    23    22    1
     7    37    45    1
     8    37    36   ar
     9    45    46    1
    10    20    18    1
    11    11     3    1
    12    22    15    1
    13    35    27    1
    14    35    36   ar
    15    28    27   ar
    16    28    24   ar
    17    27    26   ar
    18    36    41    1
    19    15    14   ar
    20    15    16   ar
    21    34    33    1
    22    18    14    1
    23    18    21    1
    24    18    19    1
    25    14    13   ar
    26    24    16    1
    27    24    25   ar
    28    16    17   ar
    29    26    33    1
    30    26    25   ar
    31     9     7    1
    32     3     4   ar
    33     3     2   ar
    34    13    17   ar
    35    13     4    1
    36    25    29    1
    37    31    29    1
    38     4     5   ar
    39    43    41    1
    40    41    42    1
    41    41    44    1
    42     8     7    1
    43     7     2    1
    44     7    10    1
    45    29    32    1
    46    29    30    1
    47     2     1   ar
    48     5     1   ar
    49     1     6    1
