@<TRIPOS>MOLECULE
mol_data/opt/b3lyp/geoms/mol2/12ig12ig12ig12ig-.out
 46 49 0 0 0
SMALL
GASTEIGER

@<TRIPOS>ATOM
      1 C           1.1185    2.3187    2.1711 C.ar    1  LIG1        0.0967
      2 C           1.8982    1.9227    1.1259 C.ar    1  LIG1        0.0012
      3 C           1.8387    3.0110    0.1837 C.ar    1  LIG1        0.0566
      4 C           1.0443    3.9857    0.7406 C.ar    1  LIG1        0.1833
      5 O           0.5893    3.5524    1.9646 O.2     1  LIG1       -0.4584
      6 H           0.8499    1.8389    3.1000 H       1  LIG1        0.1032
      7 C           2.6379    0.6307    0.9668 C.3     1  LIG1       -0.0357
      8 H           3.7203    0.7910    0.9008 H       1  LIG1        0.0279
      9 H           2.3314    0.1091    0.0532 H       1  LIG1        0.0279
     10 H           2.4507   -0.0342    1.8141 H       1  LIG1        0.0279
     11 S           2.6197    2.9670   -1.4054 S.3     1  LIG1       -0.1386
     12 H           1.8884    3.9596   -1.9519 H       1  LIG1        0.1072
     13 C           0.6067    5.2870    0.2874 C.ar    1  LIG1        0.1758
     14 C           1.2828    6.3636   -0.2381 C.ar    1  LIG1        0.0123
     15 C           0.2760    7.3486   -0.5185 C.ar    1  LIG1        0.0573
     16 C          -0.9290    6.8265   -0.1089 C.ar    1  LIG1        0.1843
     17 O          -0.7341    5.5560    0.3707 O.2     1  LIG1       -0.4472
     18 C           2.7584    6.5195   -0.4380 C.3     1  LIG1       -0.0349
     19 H           3.1225    7.4286    0.0538 H       1  LIG1        0.0279
     20 H           3.0178    6.6027   -1.5000 H       1  LIG1        0.0279
     21 H           3.3026    5.6688   -0.0240 H       1  LIG1        0.0279
     22 S           0.6268    8.9007   -1.2969 S.3     1  LIG1       -0.1386
     23 H          -0.6515    9.1892   -1.6147 H       1  LIG1        0.1072
     24 C          -2.2824    7.3352   -0.1196 C.ar    1  LIG1        0.1758
     25 C          -2.8337    8.5223    0.3036 C.ar    1  LIG1        0.0123
     26 C          -4.2318    8.4284   -0.0110 C.ar    1  LIG1        0.0573
     27 C          -4.4427    7.1858   -0.5615 C.ar    1  LIG1        0.1843
     28 O          -3.2482    6.5163   -0.6430 O.2     1  LIG1       -0.4472
     29 C          -2.1555    9.6621    0.9986 C.3     1  LIG1       -0.0349
     30 H          -2.6542    9.8878    1.9480 H       1  LIG1        0.0279
     31 H          -2.1816   10.5780    0.3964 H       1  LIG1        0.0279
     32 H          -1.1111    9.4281    1.2122 H       1  LIG1        0.0279
     33 S          -5.3811    9.7478    0.2652 S.3     1  LIG1       -0.1386
     34 H          -6.3750    9.2229   -0.4798 H       1  LIG1        0.1072
     35 C          -5.6225    6.5130   -1.0585 C.ar    1  LIG1        0.1748
     36 C          -6.8694    6.2908   -0.5274 C.ar    1  LIG1        0.0116
     37 C          -7.5927    5.5617   -1.5411 C.ar    1  LIG1        0.0462
     38 C          -6.7348    5.3927   -2.5885 C.ar    1  LIG1        0.1061
     39 O          -5.5386    5.9653   -2.3238 O.2     1  LIG1       -0.4584
     40 H          -6.8396    4.9075   -3.5465 H       1  LIG1        0.1041
     41 C          -7.3679    6.6498    0.8370 C.3     1  LIG1       -0.0350
     42 H          -7.6985    5.7549    1.3757 H       1  LIG1        0.0279
     43 H          -8.2303    7.3235    0.7837 H       1  LIG1        0.0279
     44 H          -6.5891    7.1336    1.4291 H       1  LIG1        0.0279
     45 S          -9.2960    5.0576   -1.5200 S.3     1  LIG1       -0.1393
     46 H          -9.1836    4.0528   -0.6228 H       1  LIG1        0.1072
@<TRIPOS>BOND
     1    40    38    1
     2    38    39   ar
     3    38    37   ar
     4    39    35   ar
     5    12    11    1
     6    23    22    1
     7    37    45    1
     8    37    36   ar
     9    45    46    1
    10    20    18    1
    11    11     3    1
    12    22    15    1
    13    35    27    1
    14    35    36   ar
    15    28    27   ar
    16    28    24   ar
    17    27    26   ar
    18    36    41    1
    19    15    14   ar
    20    15    16   ar
    21    34    33    1
    22    18    14    1
    23    18    21    1
    24    18    19    1
    25    14    13   ar
    26    24    16    1
    27    24    25   ar
    28    16    17   ar
    29    26    33    1
    30    26    25   ar
    31     9     7    1
    32     3     4   ar
    33     3     2   ar
    34    13    17   ar
    35    13     4    1
    36    25    29    1
    37    31    29    1
    38     4     5   ar
    39    43    41    1
    40    41    42    1
    41    41    44    1
    42     8     7    1
    43     7     2    1
    44     7    10    1
    45    29    32    1
    46    29    30    1
    47     2     1   ar
    48     5     1   ar
    49     1     6    1
