@<TRIPOS>MOLECULE
mol_data/opt/b3lyp/geoms/mol2/12ig12ig-12ig12ig.out
 46 49 0 0 0
SMALL
GASTEIGER

@<TRIPOS>ATOM
      1 C           1.1064    2.3288    2.2365 C.ar    1  LIG1        0.0967
      2 C           1.8923    1.9283    1.1976 C.ar    1  LIG1        0.0012
      3 C           1.8376    3.0122    0.2500 C.ar    1  LIG1        0.0566
      4 C           1.0395    3.9890    0.7978 C.ar    1  LIG1        0.1833
      5 O           0.5779    3.5613    2.0212 O.2     1  LIG1       -0.4584
      6 H           0.8327    1.8532    3.1661 H       1  LIG1        0.1032
      7 C           2.6334    0.6359    1.0488 C.3     1  LIG1       -0.0357
      8 H           3.7160    0.7964    0.9881 H       1  LIG1        0.0279
      9 H           2.3323    0.1100    0.1359 H       1  LIG1        0.0279
     10 H           2.4416   -0.0251    1.8981 H       1  LIG1        0.0279
     11 S           2.6274    2.9608   -1.3346 S.3     1  LIG1       -0.1386
     12 H           1.9005    3.9522   -1.8890 H       1  LIG1        0.1072
     13 C           0.6044    5.2882    0.3362 C.ar    1  LIG1        0.1758
     14 C           1.2834    6.3626   -0.1902 C.ar    1  LIG1        0.0123
     15 C           0.2782    7.3462   -0.4805 C.ar    1  LIG1        0.0573
     16 C          -0.9291    6.8259   -0.0754 C.ar    1  LIG1        0.1843
     17 O          -0.7369    5.5575    0.4109 O.2     1  LIG1       -0.4472
     18 C           2.7601    6.5177   -0.3826 C.3     1  LIG1       -0.0349
     19 H           3.1210    7.4305    0.1046 H       1  LIG1        0.0279
     20 H           3.0258    6.5931   -1.4437 H       1  LIG1        0.0279
     21 H           3.3022    5.6703    0.0409 H       1  LIG1        0.0279
     22 S           0.6333    8.8951   -1.2636 S.3     1  LIG1       -0.1386
     23 H          -0.6433    9.1828   -1.5886 H       1  LIG1        0.1072
     24 C          -2.2824    7.3345   -0.0958 C.ar    1  LIG1        0.1758
     25 C          -2.8361    8.5233    0.3195 C.ar    1  LIG1        0.0123
     26 C          -4.2324    8.4281   -0.0028 C.ar    1  LIG1        0.0573
     27 C          -4.4402    7.1834   -0.5494 C.ar    1  LIG1        0.1843
     28 O          -3.2453    6.5135   -0.6214 O.2     1  LIG1       -0.4472
     29 C          -2.1619    9.6659    1.0138 C.3     1  LIG1       -0.0349
     30 H          -2.6644    9.8935    1.9607 H       1  LIG1        0.0279
     31 H          -2.1872   10.5801    0.4090 H       1  LIG1        0.0279
     32 H          -1.1181    9.4340    1.2320 H       1  LIG1        0.0279
     33 S          -5.3835    9.7484    0.2621 S.3     1  LIG1       -0.1386
     34 H          -6.3723    9.2217   -0.4884 H       1  LIG1        0.1072
     35 C          -5.6171    6.5087   -1.0508 C.ar    1  LIG1        0.1748
     36 C          -6.8668    6.2877   -0.5257 C.ar    1  LIG1        0.0116
     37 C          -7.5844    5.5552   -1.5410 C.ar    1  LIG1        0.0462
     38 C          -6.7208    5.3832   -2.5832 C.ar    1  LIG1        0.1061
     39 O          -5.5262    5.9570   -2.3139 O.2     1  LIG1       -0.4584
     40 H          -6.8202    4.8949   -3.5403 H       1  LIG1        0.1041
     41 C          -7.3730    6.6517    0.8346 C.3     1  LIG1       -0.0350
     42 H          -7.7066    5.7587    1.3747 H       1  LIG1        0.0279
     43 H          -8.2351    7.3251    0.7739 H       1  LIG1        0.0279
     44 H          -6.5976    7.1377    1.4292 H       1  LIG1        0.0279
     45 S          -9.2875    5.0507   -1.5277 S.3     1  LIG1       -0.1393
     46 H          -9.1796    4.0480   -0.6276 H       1  LIG1        0.1072
@<TRIPOS>BOND
     1    40    38    1
     2    38    39   ar
     3    38    37   ar
     4    39    35   ar
     5    12    11    1
     6    23    22    1
     7    37    45    1
     8    37    36   ar
     9    45    46    1
    10    20    18    1
    11    11     3    1
    12    22    15    1
    13    35    27    1
    14    35    36   ar
    15    28    27   ar
    16    28    24   ar
    17    27    26   ar
    18    36    41    1
    19    34    33    1
    20    15    14   ar
    21    15    16   ar
    22    18    14    1
    23    18    21    1
    24    18    19    1
    25    14    13   ar
    26    24    16    1
    27    24    25   ar
    28    16    17   ar
    29    26    33    1
    30    26    25   ar
    31     9     7    1
    32     3     4   ar
    33     3     2   ar
    34    25    29    1
    35    13    17   ar
    36    13     4    1
    37    31    29    1
    38    43    41    1
    39     4     5   ar
    40    41    42    1
    41    41    44    1
    42     8     7    1
    43    29    32    1
    44    29    30    1
    45     7     2    1
    46     7    10    1
    47     2     1   ar
    48     5     1   ar
    49     1     6    1
