@<TRIPOS>MOLECULE
mol_data/opt/b3lyp/geoms/mol2/12ig.out
 13 13 0 0 0
SMALL
GASTEIGER

@<TRIPOS>ATOM
      1 C           0.0938    1.9075    0.0915 C.ar    1  LIG1        0.0957
      2 C           1.4539    1.8930    0.0168 C.ar    1  LIG1        0.0004
      3 C           1.8385    3.2840   -0.0471 C.ar    1  LIG1        0.0454
      4 C           0.6868    4.0115   -0.0066 C.ar    1  LIG1        0.1051
      5 O          -0.3929    3.1799    0.0800 O.2     1  LIG1       -0.4696
      6 H          -0.6413    1.1200    0.1569 H       1  LIG1        0.1032
      7 H           0.4759    5.0690   -0.0275 H       1  LIG1        0.1041
      8 C           2.3632    0.7031    0.0042 C.3     1  LIG1       -0.0357
      9 H           3.0674    0.7289    0.8438 H       1  LIG1        0.0279
     10 H           2.9576    0.6618   -0.9160 H       1  LIG1        0.0279
     11 H           1.7926   -0.2267    0.0748 H       1  LIG1        0.0279
     12 S           3.5237    3.8307   -0.1582 S.3     1  LIG1       -0.1393
     13 H           3.2607    5.1512   -0.1125 H       1  LIG1        0.1072
@<TRIPOS>BOND
     1    10     8    1
     2    12    13    1
     3    12     3    1
     4     3     4   ar
     5     3     2   ar
     6     7     4    1
     7     4     5   ar
     8     8     2    1
     9     8    11    1
    10     8     9    1
    11     2     1   ar
    12     5     1   ar
    13     1     6    1
