@<TRIPOS>MOLECULE
mol_data/opt/b3lyp/geoms/mol2/12ig12ig-.out
 24 25 0 0 0
SMALL
GASTEIGER

@<TRIPOS>ATOM
      1 C           0.3183    1.8720    0.7501 C.ar    1  LIG1        0.0967
      2 C           1.5293    1.8031    0.1290 C.ar    1  LIG1        0.0012
      3 C           1.7937    3.1460   -0.3214 C.ar    1  LIG1        0.0566
      4 C           0.7327    3.9239    0.0782 C.ar    1  LIG1        0.1833
      5 O          -0.1848    3.1340    0.7319 O.2     1  LIG1       -0.4584
      6 H          -0.2947    1.1256    1.2318 H       1  LIG1        0.1032
      7 C           2.3934    0.5971   -0.0717 C.3     1  LIG1       -0.0357
      8 H           3.3631    0.7082    0.4273 H       1  LIG1        0.0279
      9 H           2.5944    0.4258   -1.1352 H       1  LIG1        0.0279
     10 H           1.9133   -0.2995    0.3292 H       1  LIG1        0.0279
     11 S           3.2193    3.5925   -1.2735 S.3     1  LIG1       -0.1386
     12 H           2.7315    4.7699   -1.7143 H       1  LIG1        0.1072
     13 C           0.4194    5.3267   -0.0773 C.ar    1  LIG1        0.1747
     14 C           1.1406    6.4733    0.1598 C.ar    1  LIG1        0.0116
     15 C           0.2695    7.5577   -0.2136 C.ar    1  LIG1        0.0462
     16 C          -0.9024    6.9962   -0.6271 C.ar    1  LIG1        0.1061
     17 O          -0.8320    5.6396   -0.5504 O.2     1  LIG1       -0.4584
     18 H          -1.8364    7.4077   -0.9767 H       1  LIG1        0.1041
     19 C           2.5096    6.5940    0.7540 C.3     1  LIG1       -0.0350
     20 H           2.5047    7.3055    1.5872 H       1  LIG1        0.0279
     21 H           3.2447    6.9566    0.0254 H       1  LIG1        0.0279
     22 H           2.8601    5.6299    1.1274 H       1  LIG1        0.0279
     23 S           0.7287    9.2689   -0.1030 S.3     1  LIG1       -0.1393
     24 H          -0.5104    9.7719   -0.2683 H       1  LIG1        0.1072
@<TRIPOS>BOND
     1    12    11    1
     2    11     3    1
     3     9     7    1
     4    18    16    1
     5    16    17   ar
     6    16    15   ar
     7    17    13   ar
     8     3     4   ar
     9     3     2   ar
    10    24    23    1
    11    15    23    1
    12    15    14   ar
    13    13     4    1
    14    13    14   ar
    15     7     2    1
    16     7    10    1
    17     7     8    1
    18    21    19    1
    19     4     5   ar
    20     2     1   ar
    21    14    19    1
    22     5     1   ar
    23     1     6    1
    24    19    22    1
    25    19    20    1
