@<TRIPOS>MOLECULE
mol_data/opt/b3lyp/geoms/mol2/12ig12ig12ig-12ig-.out
 46 49 0 0 0
SMALL
GASTEIGER

@<TRIPOS>ATOM
      1 C           1.0954    2.3034    2.1703 C.ar    1  LIG1        0.0967
      2 C           1.8852    1.9137    1.1303 C.ar    1  LIG1        0.0012
      3 C           1.8350    3.0080    0.1944 C.ar    1  LIG1        0.0566
      4 C           1.0354    3.9793    0.7497 C.ar    1  LIG1        0.1833
      5 O           0.5685    3.5385    1.9665 O.2     1  LIG1       -0.4584
      6 H           0.8177    1.8178    3.0935 H       1  LIG1        0.1032
      7 C           2.6260    0.6225    0.9702 C.3     1  LIG1       -0.0357
      8 H           3.7090    0.7827    0.9160 H       1  LIG1        0.0279
      9 H           2.3284    0.1070    0.0501 H       1  LIG1        0.0279
     10 H           2.4300   -0.0479    1.8112 H       1  LIG1        0.0279
     11 S           2.6314    2.9736   -1.3875 S.3     1  LIG1       -0.1386
     12 H           1.9087    3.9728   -1.9332 H       1  LIG1        0.1072
     13 C           0.6029    5.2837    0.3004 C.ar    1  LIG1        0.1758
     14 C           1.2850    6.3634   -0.2107 C.ar    1  LIG1        0.0123
     15 C           0.2816    7.3507   -0.4953 C.ar    1  LIG1        0.0573
     16 C          -0.9279    6.8265   -0.1020 C.ar    1  LIG1        0.1843
     17 O          -0.7386    5.5527    0.3713 O.2     1  LIG1       -0.4472
     18 C           2.7628    6.5199   -0.3940 C.3     1  LIG1       -0.0349
     19 H           3.1219    7.4261    0.1069 H       1  LIG1        0.0279
     20 H           3.0336    6.6091   -1.4527 H       1  LIG1        0.0279
     21 H           3.3021    5.6667    0.0209 H       1  LIG1        0.0279
     22 S           0.6413    8.9077   -1.2598 S.3     1  LIG1       -0.1386
     23 H          -0.6335    9.1993   -1.5885 H       1  LIG1        0.1072
     24 C          -2.2809    7.3358   -0.1235 C.ar    1  LIG1        0.1758
     25 C          -2.8364    8.5202    0.3018 C.ar    1  LIG1        0.0123
     26 C          -4.2311    8.4288   -0.0280 C.ar    1  LIG1        0.0573
     27 C          -4.4365    7.1900   -0.5889 C.ar    1  LIG1        0.1843
     28 O          -3.2414    6.5207   -0.6624 O.2     1  LIG1       -0.4472
     29 C          -2.1651    9.6554    1.0111 C.3     1  LIG1       -0.0349
     30 H          -2.6735    9.8750    1.9568 H       1  LIG1        0.0279
     31 H          -2.1851   10.5751    0.4147 H       1  LIG1        0.0279
     32 H          -1.1231    9.4197    1.2340 H       1  LIG1        0.0279
     33 S          -5.3832    9.7465    0.2450 S.3     1  LIG1       -0.1386
     34 H          -6.3678    9.2287   -0.5171 H       1  LIG1        0.1072
     35 C          -5.6112    6.5211   -1.1032 C.ar    1  LIG1        0.1748
     36 C          -6.8638    6.2960   -0.5871 C.ar    1  LIG1        0.0116
     37 C          -7.5764    5.5740   -1.6134 C.ar    1  LIG1        0.0462
     38 C          -6.7073    5.4115   -2.6525 C.ar    1  LIG1        0.1061
     39 O          -5.5138    5.9817   -2.3711 O.2     1  LIG1       -0.4584
     40 H          -6.8019    4.9327   -3.6149 H       1  LIG1        0.1041
     41 C          -7.3770    6.6465    0.7741 C.3     1  LIG1       -0.0350
     42 H          -7.7138    5.7483    1.3034 H       1  LIG1        0.0279
     43 H          -8.2384    7.3210    0.7157 H       1  LIG1        0.0279
     44 H          -6.6044    7.1261    1.3777 H       1  LIG1        0.0279
     45 S          -9.2798    5.0704   -1.6140 S.3     1  LIG1       -0.1393
     46 H          -9.1774    4.0600   -0.7219 H       1  LIG1        0.1072
@<TRIPOS>BOND
     1    40    38    1
     2    38    39   ar
     3    38    37   ar
     4    39    35   ar
     5    12    11    1
     6    45    37    1
     7    45    46    1
     8    37    36   ar
     9    23    22    1
    10    20    18    1
    11    11     3    1
    12    22    15    1
    13    35    27    1
    14    35    36   ar
    15    28    27   ar
    16    28    24   ar
    17    27    26   ar
    18    36    41    1
    19    34    33    1
    20    15    14   ar
    21    15    16   ar
    22    18    14    1
    23    18    21    1
    24    18    19    1
    25    14    13   ar
    26    24    16    1
    27    24    25   ar
    28    16    17   ar
    29    26    33    1
    30    26    25   ar
    31     9     7    1
    32     3     4   ar
    33     3     2   ar
    34    13    17   ar
    35    13     4    1
    36    25    29    1
    37    31    29    1
    38    43    41    1
    39     4     5   ar
    40    41    42    1
    41    41    44    1
    42     8     7    1
    43     7     2    1
    44     7    10    1
    45    29    32    1
    46    29    30    1
    47     2     1   ar
    48     5     1   ar
    49     1     6    1
