@<TRIPOS>MOLECULE
mol_data/opt/b3lyp/geoms/mol2/12ig12ig12ig-12ig.out
 46 49 0 0 0
SMALL
GASTEIGER

@<TRIPOS>ATOM
      1 C           1.0704    2.3116    2.2212 C.ar    1  LIG1        0.0967
      2 C           1.8737    1.9203    1.1922 C.ar    1  LIG1        0.0012
      3 C           1.8342    3.0123    0.2532 C.ar    1  LIG1        0.0566
      4 C           1.0266    3.9840    0.7959 C.ar    1  LIG1        0.1833
      5 O           0.5449    3.5457    2.0078 O.2     1  LIG1       -0.4584
      6 H           0.7816    1.8279    3.1420 H       1  LIG1        0.1032
      7 C           2.6176    0.6294    1.0445 C.3     1  LIG1       -0.0357
      8 H           3.7011    0.7907    1.0028 H       1  LIG1        0.0279
      9 H           2.3317    0.1111    0.1224 H       1  LIG1        0.0279
     10 H           2.4123   -0.0389    1.8849 H       1  LIG1        0.0279
     11 S           2.6507    2.9751   -1.3183 S.3     1  LIG1       -0.1386
     12 H           1.9343    3.9726   -1.8753 H       1  LIG1        0.1072
     13 C           0.5988    5.2871    0.3383 C.ar    1  LIG1        0.1758
     14 C           1.2863    6.3668   -0.1656 C.ar    1  LIG1        0.0123
     15 C           0.2857    7.3523   -0.4654 C.ar    1  LIG1        0.0573
     16 C          -0.9284    6.8273   -0.0874 C.ar    1  LIG1        0.1843
     17 O          -0.7439    5.5547    0.3907 O.2     1  LIG1       -0.4472
     18 C           2.7662    6.5246   -0.3298 C.3     1  LIG1       -0.0349
     19 H           3.1180    7.4313    0.1754 H       1  LIG1        0.0279
     20 H           3.0504    6.6137   -1.3849 H       1  LIG1        0.0279
     21 H           3.3010    5.6720    0.0924 H       1  LIG1        0.0279
     22 S           0.6537    8.9085   -1.2276 S.3     1  LIG1       -0.1386
     23 H          -0.6171    9.1984   -1.5730 H       1  LIG1        0.1072
     24 C          -2.2815    7.3351   -0.1280 C.ar    1  LIG1        0.1758
     25 C          -2.8439    8.5194    0.2884 C.ar    1  LIG1        0.0123
     26 C          -4.2340    8.4261   -0.0602 C.ar    1  LIG1        0.0573
     27 C          -4.4305    7.1865   -0.6224 C.ar    1  LIG1        0.1843
     28 O          -3.2337    6.5184   -0.6789 O.2     1  LIG1       -0.4472
     29 C          -2.1834    9.6560    1.0053 C.3     1  LIG1       -0.0349
     30 H          -2.7046    9.8761    1.9439 H       1  LIG1        0.0279
     31 H          -2.1963   10.5751    0.4076 H       1  LIG1        0.0279
     32 H          -1.1442    9.4217    1.2424 H       1  LIG1        0.0279
     33 S          -5.3907    9.7433    0.1956 S.3     1  LIG1       -0.1386
     34 H          -6.3651    9.2232   -0.5779 H       1  LIG1        0.1072
     35 C          -5.5972    6.5155   -1.1516 C.ar    1  LIG1        0.1748
     36 C          -6.8566    6.2895   -0.6524 C.ar    1  LIG1        0.0116
     37 C          -7.5541    5.5651   -1.6873 C.ar    1  LIG1        0.0462
     38 C          -6.6705    5.4021   -2.7142 C.ar    1  LIG1        0.1061
     39 O          -5.4817    5.9742   -2.4172 O.2     1  LIG1       -0.4584
     40 H          -6.7513    4.9216   -3.6769 H       1  LIG1        0.1041
     41 C          -7.3890    6.6416    0.7010 C.3     1  LIG1       -0.0350
     42 H          -7.7323    5.7439    1.2269 H       1  LIG1        0.0279
     43 H          -8.2502    7.3151    0.6296 H       1  LIG1        0.0279
     44 H          -6.6254    7.1228    1.3146 H       1  LIG1        0.0279
     45 S          -9.2568    5.0595   -1.7110 S.3     1  LIG1       -0.1393
     46 H          -9.1658    4.0501   -0.8166 H       1  LIG1        0.1072
@<TRIPOS>BOND
     1    40    38    1
     2    38    39   ar
     3    38    37   ar
     4    39    35   ar
     5    12    11    1
     6    45    37    1
     7    45    46    1
     8    37    36   ar
     9    23    22    1
    10    20    18    1
    11    11     3    1
    12    22    15    1
    13    35    36   ar
    14    35    27    1
    15    28    27   ar
    16    28    24   ar
    17    36    41    1
    18    27    26   ar
    19    34    33    1
    20    15    14   ar
    21    15    16   ar
    22    18    14    1
    23    18    21    1
    24    18    19    1
    25    14    13   ar
    26    24    16    1
    27    24    25   ar
    28    16    17   ar
    29    26    33    1
    30    26    25   ar
    31     9     7    1
    32     3     4   ar
    33     3     2   ar
    34    25    29    1
    35    13    17   ar
    36    13     4    1
    37    31    29    1
    38    43    41    1
    39    41    42    1
    40    41    44    1
    41     4     5   ar
    42     8     7    1
    43    29    32    1
    44    29    30    1
    45     7     2    1
    46     7    10    1
    47     2     1   ar
    48     5     1   ar
    49     1     6    1
