@<TRIPOS>MOLECULE
mol_data/opt/b3lyp/geoms/mol2/12ig12ig-12ig12ig-.out
 46 49 0 0 0
SMALL
GASTEIGER

@<TRIPOS>ATOM
      1 C           1.1372    2.3195    2.1764 C.ar    1  LIG1        0.0967
      2 C           1.9078    1.9227    1.1248 C.ar    1  LIG1        0.0012
      3 C           1.8398    3.0101    0.1822 C.ar    1  LIG1        0.0566
      4 C           1.0501    3.9851    0.7451 C.ar    1  LIG1        0.1833
      5 O           0.6060    3.5530    1.9735 O.2     1  LIG1       -0.4584
      6 H           0.8767    1.8405    3.1081 H       1  LIG1        0.1032
      7 C           2.6463    0.6307    0.9604 C.3     1  LIG1       -0.0357
      8 H           3.7280    0.7911    0.8850 H       1  LIG1        0.0279
      9 H           2.3321    0.1084    0.0498 H       1  LIG1        0.0279
     10 H           2.4664   -0.0336    1.8098 H       1  LIG1        0.0279
     11 S           2.6067    2.9646   -1.4138 S.3     1  LIG1       -0.1386
     12 H           1.8717    3.9578   -1.9541 H       1  LIG1        0.1072
     13 C           0.6088    5.2862    0.2946 C.ar    1  LIG1        0.1758
     14 C           1.2805    6.3620   -0.2378 C.ar    1  LIG1        0.0123
     15 C           0.2716    7.3471   -0.5101 C.ar    1  LIG1        0.0573
     16 C          -0.9299    6.8258   -0.0893 C.ar    1  LIG1        0.1843
     17 O          -0.7312    5.5557    0.3897 O.2     1  LIG1       -0.4472
     18 C           2.7544    6.5173   -0.4509 C.3     1  LIG1       -0.0349
     19 H           3.1226    7.4283    0.0345 H       1  LIG1        0.0279
     20 H           3.0049    6.5966   -1.5154 H       1  LIG1        0.0279
     21 H           3.3021    5.6682   -0.0384 H       1  LIG1        0.0279
     22 S           0.6160    8.8985   -1.2928 S.3     1  LIG1       -0.1386
     23 H          -0.6649    9.1872   -1.5996 H       1  LIG1        0.1072
     24 C          -2.2831    7.3349   -0.0884 C.ar    1  LIG1        0.1758
     25 C          -2.8304    8.5226    0.3388 C.ar    1  LIG1        0.0123
     26 C          -4.2313    8.4289    0.0365 C.ar    1  LIG1        0.0573
     27 C          -4.4474    7.1860   -0.5112 C.ar    1  LIG1        0.1843
     28 O          -3.2538    6.5160   -0.6026 O.2     1  LIG1       -0.4472
     29 C          -2.1458    9.6627    1.0269 C.3     1  LIG1       -0.0349
     30 H          -2.6346    9.8875    1.9818 H       1  LIG1        0.0279
     31 H          -2.1794   10.5788    0.4255 H       1  LIG1        0.0279
     32 H          -1.0990    9.4297    1.2294 H       1  LIG1        0.0279
     33 S          -5.3777    9.7489    0.3219 S.3     1  LIG1       -0.1386
     34 H          -6.3780    9.2241   -0.4144 H       1  LIG1        0.1072
     35 C          -5.6318    6.5133   -0.9973 C.ar    1  LIG1        0.1748
     36 C          -6.8738    6.2917   -0.4546 C.ar    1  LIG1        0.0116
     37 C          -7.6066    5.5625   -1.4614 C.ar    1  LIG1        0.0462
     38 C          -6.7585    5.3929   -2.5166 C.ar    1  LIG1        0.1061
     39 O          -5.5597    5.9651   -2.2631 O.2     1  LIG1       -0.4584
     40 H          -6.8722    4.9073   -3.4735 H       1  LIG1        0.1041
     41 C          -7.3598    6.6516    0.9141 C.3     1  LIG1       -0.0350
     42 H          -7.6862    5.7572    1.4561 H       1  LIG1        0.0279
     43 H          -8.2220    7.3260    0.8682 H       1  LIG1        0.0279
     44 H          -6.5753    7.1351    1.4989 H       1  LIG1        0.0279
     45 S          -9.3099    5.0592   -1.4247 S.3     1  LIG1       -0.1393
     46 H          -9.1899    4.0545   -0.5285 H       1  LIG1        0.1072
@<TRIPOS>BOND
     1    40    38    1
     2    38    39   ar
     3    38    37   ar
     4    39    35   ar
     5    12    11    1
     6    23    22    1
     7    20    18    1
     8    37    45    1
     9    37    36   ar
    10    45    46    1
    11    11     3    1
    12    22    15    1
    13    35    27    1
    14    35    36   ar
    15    28    27   ar
    16    28    24   ar
    17    27    26   ar
    18    15    14   ar
    19    15    16   ar
    20    36    41    1
    21    18    14    1
    22    18    21    1
    23    18    19    1
    24    34    33    1
    25    14    13   ar
    26    16    24    1
    27    16    17   ar
    28    24    25   ar
    29    26    33    1
    30    26    25   ar
    31     9     7    1
    32     3     4   ar
    33     3     2   ar
    34    13    17   ar
    35    13     4    1
    36    25    29    1
    37    31    29    1
    38     4     5   ar
    39    43    41    1
    40     8     7    1
    41    41    42    1
    42    41    44    1
    43     7     2    1
    44     7    10    1
    45    29    32    1
    46    29    30    1
    47     2     1   ar
    48     5     1   ar
    49     1     6    1
