@<TRIPOS>MOLECULE
mol_data/opt/b3lyp/geoms/mol2/12ig12ig.out
 24 25 0 0 0
SMALL
GASTEIGER

@<TRIPOS>ATOM
      1 C           0.3128    1.8695    0.7396 C.ar    1  LIG1        0.0967
      2 C           1.5286    1.8028    0.1279 C.ar    1  LIG1        0.0012
      3 C           1.7961    3.1471   -0.3164 C.ar    1  LIG1        0.0566
      4 C           0.7316    3.9235    0.0770 C.ar    1  LIG1        0.1833
      5 O          -0.1906    3.1313    0.7214 O.2     1  LIG1       -0.4584
      6 H          -0.3038    1.1213    1.2143 H       1  LIG1        0.1032
      7 C           2.3947    0.5976   -0.0697 C.3     1  LIG1       -0.0357
      8 H           3.3608    0.7080    0.4363 H       1  LIG1        0.0279
      9 H           2.6033    0.4291   -1.1323 H       1  LIG1        0.0279
     10 H           1.9123   -0.3002    0.3255 H       1  LIG1        0.0279
     11 S           3.2291    3.5965   -1.2559 S.3     1  LIG1       -0.1386
     12 H           2.7459    4.7767   -1.6943 H       1  LIG1        0.1072
     13 C           0.4196    5.3268   -0.0763 C.ar    1  LIG1        0.1747
     14 C           1.1390    6.4725    0.1701 C.ar    1  LIG1        0.0116
     15 C           0.2711    7.5583   -0.2073 C.ar    1  LIG1        0.0462
     16 C          -0.8972    6.9982   -0.6325 C.ar    1  LIG1        0.1061
     17 O          -0.8278    5.6413   -0.5591 O.2     1  LIG1       -0.4584
     18 H          -1.8281    7.4107   -0.9887 H       1  LIG1        0.1041
     19 C           2.5025    6.5913    0.7770 C.3     1  LIG1       -0.0350
     20 H           2.4897    7.2996    1.6129 H       1  LIG1        0.0279
     21 H           3.2441    6.9570    0.0566 H       1  LIG1        0.0279
     22 H           2.8500    5.6259    1.1499 H       1  LIG1        0.0279
     23 S           0.7295    9.2689   -0.0875 S.3     1  LIG1       -0.1393
     24 H          -0.5087    9.7726   -0.2573 H       1  LIG1        0.1072
@<TRIPOS>BOND
     1    12    11    1
     2    11     3    1
     3     9     7    1
     4    18    16    1
     5    16    17   ar
     6    16    15   ar
     7    17    13   ar
     8     3     4   ar
     9     3     2   ar
    10    24    23    1
    11    15    23    1
    12    15    14   ar
    13    13     4    1
    14    13    14   ar
    15     7     2    1
    16     7    10    1
    17     7     8    1
    18    21    19    1
    19     4     5   ar
    20     2     1   ar
    21    14    19    1
    22     5     1   ar
    23     1     6    1
    24    19    22    1
    25    19    20    1
