@<TRIPOS>MOLECULE
mol_data/opt/b3lyp/geoms/mol2/12ig12ig-12ig-12ig.out
 46 49 0 0 0
SMALL
GASTEIGER

@<TRIPOS>ATOM
      1 C           0.8444    1.6138    0.1257 C.ar    1  LIG1        0.0967
      2 C           2.0857    1.8735   -0.3732 C.ar    1  LIG1        0.0012
      3 C           2.1825    3.3106   -0.4020 C.ar    1  LIG1        0.0566
      4 C           1.0009    3.8056    0.1000 C.ar    1  LIG1        0.1833
      5 O           0.1694    2.7570    0.4143 O.2     1  LIG1       -0.4584
      6 H           0.3165    0.6924    0.3192 H       1  LIG1        0.1032
      7 C           3.1208    0.8898   -0.8231 C.3     1  LIG1       -0.0357
      8 H           4.0325    0.9583   -0.2184 H       1  LIG1        0.0279
      9 H           3.4092    1.0676   -1.8652 H       1  LIG1        0.0279
     10 H           2.7465   -0.1344   -0.7466 H       1  LIG1        0.0279
     11 S           3.5785    4.1808   -1.0591 S.3     1  LIG1       -0.1386
     12 H           2.9374    5.3508   -1.2560 H       1  LIG1        0.1072
     13 C           0.4989    5.1423    0.3176 C.ar    1  LIG1        0.1758
     14 C           1.0418    6.2604    0.9043 C.ar    1  LIG1        0.0123
     15 C           0.0289    7.2778    0.8062 C.ar    1  LIG1        0.0573
     16 C          -1.0602    6.7060    0.1829 C.ar    1  LIG1        0.1843
     17 O          -0.7797    5.4032   -0.1137 O.2     1  LIG1       -0.4472
     18 C           2.3626    6.3846    1.5955 C.3     1  LIG1       -0.0349
     19 H           2.2420    6.9155    2.5451 H       1  LIG1        0.0279
     20 H           3.0908    6.9494    1.0005 H       1  LIG1        0.0279
     21 H           2.7935    5.4013    1.7941 H       1  LIG1        0.0279
     22 S           0.0617    8.8693    1.5914 S.3     1  LIG1       -0.1386
     23 H           1.0998    9.3930    0.9031 H       1  LIG1        0.1072
     24 C          -2.3787    7.1780   -0.1777 C.ar    1  LIG1        0.1758
     25 C          -2.8366    8.3384   -0.7568 C.ar    1  LIG1        0.0123
     26 C          -4.2574    8.1697   -0.8708 C.ar    1  LIG1        0.0573
     27 C          -4.5653    6.9297   -0.3587 C.ar    1  LIG1        0.1843
     28 O          -3.4140    6.3134    0.0567 O.2     1  LIG1       -0.4472
     29 C          -2.0421    9.5040   -1.2542 C.3     1  LIG1       -0.0349
     30 H          -2.4336    9.8487   -2.2172 H       1  LIG1        0.0279
     31 H          -0.9929    9.2320   -1.3856 H       1  LIG1        0.0279
     32 H          -2.0785   10.3484   -0.5570 H       1  LIG1        0.0279
     33 S          -5.3249    9.3623   -1.6305 S.3     1  LIG1       -0.1386
     34 H          -6.3346    8.5048   -1.8837 H       1  LIG1        0.1072
     35 C          -5.8022    6.1942   -0.2216 C.ar    1  LIG1        0.1748
     36 C          -7.0360    6.5176    0.2890 C.ar    1  LIG1        0.0116
     37 C          -7.8409    5.3319    0.1217 C.ar    1  LIG1        0.0462
     38 C          -7.0394    4.3927   -0.4588 C.ar    1  LIG1        0.1061
     39 O          -5.8027    4.8924   -0.6823 O.2     1  LIG1       -0.4584
     40 H          -7.2114    3.3706   -0.7585 H       1  LIG1        0.1041
     41 C          -7.4552    7.7927    0.9502 C.3     1  LIG1       -0.0350
     42 H          -7.8361    7.5984    1.9589 H       1  LIG1        0.0279
     43 H          -8.2625    8.2851    0.3968 H       1  LIG1        0.0279
     44 H          -6.6201    8.4906    1.0301 H       1  LIG1        0.0279
     45 S          -9.5674    5.1210    0.4838 S.3     1  LIG1       -0.1393
     46 H          -9.4740    5.0758    1.8315 H       1  LIG1        0.1072
@<TRIPOS>BOND
     1    30    29    1
     2    34    33    1
     3     9     7    1
     4    33    26    1
     5    31    29    1
     6    12    11    1
     7    29    25    1
     8    29    32    1
     9    11     3    1
    10    26    25   ar
    11    26    27   ar
    12     7    10    1
    13     7     2    1
    14     7     8    1
    15    40    38    1
    16    25    24   ar
    17    39    38   ar
    18    39    35   ar
    19    38    37   ar
    20     3     2   ar
    21     3     4   ar
    22     2     1   ar
    23    27    35    1
    24    27    28   ar
    25    35    36   ar
    26    24    28   ar
    27    24    16    1
    28    17    16   ar
    29    17    13   ar
    30     4    13    1
    31     4     5   ar
    32    37    36   ar
    33    37    45    1
    34     1     6    1
    35     1     5   ar
    36    16    15   ar
    37    36    41    1
    38    13    14   ar
    39    43    41    1
    40    45    46    1
    41    15    14   ar
    42    15    22    1
    43    23    22    1
    44    14    18    1
    45    41    44    1
    46    41    42    1
    47    20    18    1
    48    18    21    1
    49    18    19    1
