@<TRIPOS>MOLECULE
mol_data/opt/b3lyp/geoms/mol2/12ig12ig12ig-.out
 35 37 0 0 0
SMALL
GASTEIGER

@<TRIPOS>ATOM
      1 C           0.6306    1.9687    1.3489 C.ar    1  LIG1        0.0967
      2 C           1.6386    1.7920    0.4488 C.ar    1  LIG1        0.0012
      3 C           1.7741    3.0648   -0.2126 C.ar    1  LIG1        0.0566
      4 C           0.8518    3.9148    0.3513 C.ar    1  LIG1        0.1833
      5 O           0.1370    3.2333    1.3094 O.2     1  LIG1       -0.4584
      6 H           0.1658    1.3020    2.0594 H       1  LIG1        0.1032
      7 C           2.4225    0.5456    0.1775 C.3     1  LIG1       -0.0357
      8 H           3.4868    0.6814    0.4021 H       1  LIG1        0.0279
      9 H           2.3485    0.2531   -0.8759 H       1  LIG1        0.0279
     10 H           2.0571   -0.2864    0.7853 H       1  LIG1        0.0279
     11 S           2.9007    3.3524   -1.5490 S.3     1  LIG1       -0.1386
     12 H           2.3020    4.4729   -2.0017 H       1  LIG1        0.1072
     13 C           0.5016    5.2971    0.1132 C.ar    1  LIG1        0.1758
     14 C           1.2559    6.4428    0.0123 C.ar    1  LIG1        0.0123
     15 C           0.3191    7.4953   -0.2660 C.ar    1  LIG1        0.0573
     16 C          -0.9358    6.9318   -0.2733 C.ar    1  LIG1        0.1843
     17 O          -0.8283    5.5814   -0.0567 O.2     1  LIG1       -0.4472
     18 C           2.7338    6.5951    0.1987 C.3     1  LIG1       -0.0349
     19 H           2.9525    7.3601    0.9524 H       1  LIG1        0.0279
     20 H           3.2302    6.9059   -0.7281 H       1  LIG1        0.0279
     21 H           3.1869    5.6576    0.5256 H       1  LIG1        0.0279
     22 S           0.8026    9.1716   -0.5742 S.3     1  LIG1       -0.1386
     23 H          -0.3782    9.5619   -1.0953 H       1  LIG1        0.1072
     24 C          -2.2602    7.4734   -0.4777 C.ar    1  LIG1        0.1748
     25 C          -2.9189    8.5535    0.0620 C.ar    1  LIG1        0.0116
     26 C          -4.2152    8.5630   -0.5653 C.ar    1  LIG1        0.0462
     27 C          -4.2492    7.4956   -1.4137 C.ar    1  LIG1        0.1061
     28 O          -3.0712    6.8177   -1.3721 O.2     1  LIG1       -0.4584
     29 H          -5.0059    7.0991   -2.0723 H       1  LIG1        0.1041
     30 C          -2.4426    9.4813    1.1364 C.3     1  LIG1       -0.0350
     31 H          -3.1994    9.5746    1.9230 H       1  LIG1        0.0279
     32 H          -2.2491   10.4910    0.7546 H       1  LIG1        0.0279
     33 H          -1.5192    9.1151    1.5893 H       1  LIG1        0.0279
     34 S          -5.4671    9.7738   -0.2210 S.3     1  LIG1       -0.1393
     35 H          -6.4987    9.0826   -0.7440 H       1  LIG1        0.1072
@<TRIPOS>BOND
     1    29    27    1
     2    12    11    1
     3    11     3    1
     4    27    28   ar
     5    27    26   ar
     6    28    24   ar
     7    23    22    1
     8     9     7    1
     9    35    34    1
    10    20    18    1
    11    22    15    1
    12    26    34    1
    13    26    25   ar
    14    24    16    1
    15    24    25   ar
    16    16    15   ar
    17    16    17   ar
    18    15    14   ar
    19     3     4   ar
    20     3     2   ar
    21    17    13   ar
    22    14    13   ar
    23    14    18    1
    24    25    30    1
    25    13     4    1
    26     7     8    1
    27     7     2    1
    28     7    10    1
    29    18    21    1
    30    18    19    1
    31     4     5   ar
    32     2     1   ar
    33    32    30    1
    34    30    33    1
    35    30    31    1
    36     5     1   ar
    37     1     6    1
