@<TRIPOS>MOLECULE
mol_data/opt/b3lyp/geoms/mol2/12ih6ia-12ia-4he.out
 50 53 0 0 0
SMALL
GASTEIGER

@<TRIPOS>ATOM
      1 C           0.7200    1.6045    0.6553 C.ar    1  LIG1        0.0973
      2 C           1.8447    1.6979   -0.1090 C.ar    1  LIG1        0.0086
      3 C           1.9609    3.0925   -0.4436 C.ar    1  LIG1        0.0739
      4 C           0.8963    3.7446    0.1467 C.ar    1  LIG1        0.1573
      5 O           0.1299    2.8127    0.8236 O.2     1  LIG1       -0.4607
      6 H           0.2332    0.7674    1.1327 H       1  LIG1        0.1033
      7 C           2.7753    0.6004   -0.5243 C.3     1  LIG1       -0.0350
      8 H           3.7982    0.7875   -0.1771 H       1  LIG1        0.0279
      9 H           2.8175    0.4906   -1.6160 H       1  LIG1        0.0279
     10 H           2.4554   -0.3615   -0.1150 H       1  LIG1        0.0279
     11 N           3.0036    3.6452   -1.1981 N.pl3   1  LIG1       -0.3548
     12 H           3.3913    2.9898   -1.8668 H       1  LIG1        0.1424
     13 H           2.7429    4.5033   -1.6708 H       1  LIG1        0.1424
     14 C          -0.8320    5.6087    0.2422 C.ar    1  LIG1        0.0497
     15 C           0.5152    5.1480    0.1888 C.ar    1  LIG1        0.0401
     16 C           1.5173    6.1334    0.1491 C.ar    1  LIG1       -0.0472
     17 C           1.1883    7.4808    0.1539 C.ar    1  LIG1       -0.0320
     18 C          -0.1667    7.8402    0.2274 C.ar    1  LIG1        0.1066
     19 N          -1.1394    6.9060    0.2664 N.ar    1  LIG1       -0.2481
     20 H           2.5612    5.8348    0.1357 H       1  LIG1        0.0626
     21 C          -2.0104    4.6660    0.2637 C.3     1  LIG1       -0.0216
     22 H          -2.0807    4.1369    1.2190 H       1  LIG1        0.0293
     23 H          -1.9241    3.8998   -0.5130 H       1  LIG1        0.0293
     24 H          -2.9221    5.2443    0.1102 H       1  LIG1        0.0293
     25 H           1.9672    8.2307    0.0980 H       1  LIG1        0.0640
     26 C          -0.5958    9.2343    0.2579 C.ar    1  LIG1        0.1567
     27 C           0.0393   10.4324    0.5234 C.ar    1  LIG1       -0.0026
     28 C          -0.9630   11.4402    0.3954 C.ar    1  LIG1       -0.0122
     29 C          -2.1438   10.8114    0.0685 C.ar    1  LIG1        0.1378
     30 O          -1.9178    9.4697   -0.0150 O.2     1  LIG1       -0.4530
     31 C           1.4683   10.6802    0.9110 C.3     1  LIG1       -0.0360
     32 H           1.5727   11.6710    1.3618 H       1  LIG1        0.0279
     33 H           2.1443   10.6451    0.0472 H       1  LIG1        0.0279
     34 H           1.8269    9.9448    1.6378 H       1  LIG1        0.0279
     35 H          -0.8352   12.4924    0.6040 H       1  LIG1        0.0658
     36 C          -3.8303   12.5765   -0.5451 C.ar    1  LIG1        0.0354
     37 C          -5.1800   12.9380   -0.6952 C.ar    1  LIG1       -0.0392
     38 C          -3.5194   11.2503   -0.1413 C.ar    1  LIG1        0.0390
     39 C          -6.2015   12.0276   -0.4780 C.ar    1  LIG1       -0.0446
     40 H          -5.4190   13.9545   -0.9979 H       1  LIG1        0.0636
     41 C          -4.5651   10.3360    0.0529 C.ar    1  LIG1       -0.0339
     42 C          -5.9085   10.7000   -0.1086 C.ar    1  LIG1        0.0255
     43 H          -4.3183    9.3214    0.3429 H       1  LIG1        0.0637
     44 H          -7.2356   12.3311   -0.6024 H       1  LIG1        0.0630
     45 N          -2.8303   13.5215   -0.7635 N.pl3   1  LIG1       -0.3574
     46 H          -1.9536   13.1384   -1.0959 H       1  LIG1        0.1423
     47 H          -3.1272   14.3183   -1.3113 H       1  LIG1        0.1423
     48 C          -6.9555    9.7515    0.1032 C.1     1  LIG1       -0.0696
     49 C          -7.8485    8.9534    0.2802 C.1     1  LIG1       -0.1139
     50 H          -8.6292    8.2466    0.4386 H       1  LIG1        0.1232
@<TRIPOS>BOND
     1    12    11    1
     2    13    11    1
     3     9     7    1
     4    47    45    1
     5    11     3    1
     6    46    45    1
     7    40    37    1
     8    45    36    1
     9    37    36   ar
    10    37    39   ar
    11    44    39    1
    12    36    38   ar
    13     7     8    1
    14     7    10    1
    15     7     2    1
    16    23    21    1
    17    39    42   ar
    18     3     2   ar
    19     3     4   ar
    20    38    41   ar
    21    38    29    1
    22     2     1   ar
    23    42    41   ar
    24    42    48    1
    25    30    29   ar
    26    30    26   ar
    27    33    31    1
    28    41    43    1
    29    29    28   ar
    30    25    17    1
    31    48    49    3
    32    24    21    1
    33    20    16    1
    34     4    15    1
    35     4     5   ar
    36    16    17   ar
    37    16    15   ar
    38    17    18   ar
    39    15    14   ar
    40    18    26    1
    41    18    19   ar
    42    14    21    1
    43    14    19   ar
    44    26    27   ar
    45    21    22    1
    46    49    50    1
    47    28    27   ar
    48    28    35    1
    49    27    31    1
    50     1     5   ar
    51     1     6    1
    52    31    32    1
    53    31    34    1
