@<TRIPOS>MOLECULE
mol_data/opt/b3lyp/geoms/mol2/12ih13la-12fa-13ha.out
 44 47 0 0 0
SMALL
GASTEIGER

@<TRIPOS>ATOM
      1 C           0.0812    1.4172   -0.5422 C.ar    1  LIG1        0.0974
      2 C           1.4167    1.3054   -0.3053 C.ar    1  LIG1        0.0086
      3 C           1.8948    2.6483   -0.0865 C.ar    1  LIG1        0.0755
      4 C           0.8042    3.4828   -0.2209 C.ar    1  LIG1        0.1752
      5 O          -0.3210    2.7190   -0.4928 O.2     1  LIG1       -0.4592
      6 H          -0.6887    0.6901   -0.7508 H       1  LIG1        0.1033
      7 C           2.2452    0.0598   -0.2469 C.3     1  LIG1       -0.0350
      8 H           2.7695   -0.0197    0.7125 H       1  LIG1        0.0279
      9 H           3.0099    0.0390   -1.0345 H       1  LIG1        0.0279
     10 H           1.6271   -0.8339   -0.3695 H       1  LIG1        0.0279
     11 N           3.2013    2.9685    0.2950 N.pl3   1  LIG1       -0.3548
     12 H           3.8992    2.4385   -0.2143 H       1  LIG1        0.1424
     13 H           3.3900    3.9645    0.2324 H       1  LIG1        0.1424
     14 C           0.5743    4.8978   -0.1203 C.ar    1  LIG1        0.1266
     15 C           1.4202    6.0077   -0.0405 C.ar    1  LIG1        0.1490
     16 C           0.6347    7.1800    0.0460 C.ar    1  LIG1        0.0093
     17 C          -0.7005    6.7743    0.0068 C.ar    1  LIG1        0.0899
     18 N          -0.7126    5.4047   -0.0910 N.ar    1  LIG1       -0.3463
     19 H          -1.5381    4.8324   -0.1565 H       1  LIG1        0.1662
     20 O           2.7891    5.8975   -0.0681 O.3     1  LIG1       -0.4929
     21 C           3.5101    7.1067    0.1155 C.3     1  LIG1        0.0789
     22 H           4.5688    6.8431    0.0926 H       1  LIG1        0.0660
     23 H           3.2974    7.8216   -0.6892 H       1  LIG1        0.0660
     24 H           3.2704    7.5723    1.0798 H       1  LIG1        0.0660
     25 H           0.9672    8.2026    0.1223 H       1  LIG1        0.0677
     26 C          -1.9055    7.5430    0.0517 C.ar    1  LIG1        0.1930
     27 C          -2.1724    8.8916    0.1113 C.ar    1  LIG1        0.1648
     28 C          -3.5870    9.0567    0.1406 C.ar    1  LIG1        0.0280
     29 C          -4.1248    7.7896    0.0940 C.ar    1  LIG1        0.1573
     30 O          -3.1132    6.8622    0.0356 O.2     1  LIG1       -0.4480
     31 O          -1.2027    9.8528    0.1389 O.3     1  LIG1       -0.5031
     32 H          -1.6260   10.7158    0.2222 H       1  LIG1        0.2923
     33 H          -4.1420    9.9770    0.2539 H       1  LIG1        0.0693
     34 C          -5.4668    7.2938    0.0951 C.ar    1  LIG1        0.1031
     35 C          -6.6759    7.9591   -0.1221 C.ar    1  LIG1        0.0532
     36 C          -7.7178    7.0033    0.0229 C.ar    1  LIG1       -0.0230
     37 C          -7.1289    5.7874    0.3164 C.ar    1  LIG1        0.0041
     38 N          -5.7758    5.9651    0.3500 N.ar    1  LIG1       -0.3568
     39 H          -5.0859    5.2615    0.5543 H       1  LIG1        0.1655
     40 H          -7.5729    4.8196    0.4934 H       1  LIG1        0.0807
     41 N          -6.8085    9.3318   -0.3972 N.pl3   1  LIG1       -0.3562
     42 H          -6.0947    9.6639   -1.0392 H       1  LIG1        0.1424
     43 H          -7.7220    9.5569   -0.7735 H       1  LIG1        0.1424
     44 H          -8.7780    7.1882   -0.0818 H       1  LIG1        0.0651
@<TRIPOS>BOND
     1    42    41    1
     2     9     7    1
     3    43    41    1
     4     6     1    1
     5    23    21    1
     6     1     5   ar
     7     1     2   ar
     8     5     4   ar
     9    41    35    1
    10    10     7    1
    11     2     7    1
    12     2     3   ar
    13     7     8    1
    14     4    14    1
    15     4     3   ar
    16    12    11    1
    17    19    18    1
    18    35    36   ar
    19    35    34   ar
    20    14    18   ar
    21    14    15   ar
    22    18    17   ar
    23     3    11    1
    24    44    36    1
    25    20    15    1
    26    20    21    1
    27    15    16   ar
    28    17    16   ar
    29    17    26    1
    30    36    37   ar
    31    30    26   ar
    32    30    29   ar
    33    16    25    1
    34    26    27   ar
    35    22    21    1
    36    29    34    1
    37    29    28   ar
    38    34    38   ar
    39    27    31    1
    40    27    28   ar
    41    21    24    1
    42    31    32    1
    43    28    33    1
    44    13    11    1
    45    37    38   ar
    46    37    40    1
    47    38    39    1
