@<TRIPOS>MOLECULE
mol_data/opt/b3lyp/geoms/mol2/12ih13ai-12hh-12ih-.out
 48 51 0 0 0
SMALL
GASTEIGER

@<TRIPOS>ATOM
      1 C           0.4468    1.6548   -0.1829 C.ar    1  LIG1        0.0974
      2 C           1.8081    1.7284   -0.1777 C.ar    1  LIG1        0.0086
      3 C           2.1187    3.1292   -0.0539 C.ar    1  LIG1        0.0753
      4 C           0.9175    3.7979    0.0192 C.ar    1  LIG1        0.1716
      5 O          -0.1183    2.8877   -0.0662 O.2     1  LIG1       -0.4593
      6 H          -0.2380    0.8240   -0.2581 H       1  LIG1        0.1033
      7 C           2.7926    0.6046   -0.2810 C.3     1  LIG1       -0.0350
      8 H           3.4428    0.5569    0.6006 H       1  LIG1        0.0279
      9 H           3.4437    0.7116   -1.1587 H       1  LIG1        0.0279
     10 H           2.2829   -0.3584   -0.3713 H       1  LIG1        0.0279
     11 N           3.4031    3.6825    0.0183 N.pl3   1  LIG1       -0.3548
     12 H           4.0971    3.1221   -0.4630 H       1  LIG1        0.1424
     13 H           3.4341    4.6365   -0.3262 H       1  LIG1        0.1424
     14 C           0.5788    5.1881    0.1387 C.ar    1  LIG1        0.0847
     15 C           1.3455    6.2887    0.5172 C.ar    1  LIG1       -0.0297
     16 C           0.5248    7.4456    0.4596 C.ar    1  LIG1       -0.0214
     17 C          -0.7370    7.0267    0.0296 C.ar    1  LIG1        0.0875
     18 N          -0.6764    5.6578   -0.1573 N.ar    1  LIG1       -0.3491
     19 H          -1.4599    5.0843   -0.4290 H       1  LIG1        0.1661
     20 H           2.3626    6.2507    0.8825 H       1  LIG1        0.0643
     21 C           0.9305    8.8311    0.8733 C.3     1  LIG1       -0.0376
     22 H           0.0710    9.4074    1.2276 H       1  LIG1        0.0278
     23 H           1.4010    9.4017    0.0606 H       1  LIG1        0.0278
     24 H           1.6595    8.7895    1.6889 H       1  LIG1        0.0278
     25 C          -1.9751    7.7299   -0.1990 C.ar    1  LIG1        0.1745
     26 C          -2.2970    8.9835   -0.6732 C.ar    1  LIG1        0.0942
     27 C          -3.7266    9.0427   -0.7444 C.ar    1  LIG1        0.0958
     28 C          -4.1987    7.8245   -0.3124 C.ar    1  LIG1        0.1933
     29 O          -3.1262    7.0114    0.0108 O.2     1  LIG1       -0.4464
     30 N          -1.4740   10.0084   -1.1965 N.pl3   1  LIG1       -0.3535
     31 H          -1.4077   10.8092   -0.5729 H       1  LIG1        0.1425
     32 H          -0.5351    9.6717   -1.3804 H       1  LIG1        0.1425
     33 N          -4.4234   10.1652   -1.1990 N.pl3   1  LIG1       -0.3535
     34 H          -3.8597   10.6787   -1.8712 H       1  LIG1        0.1425
     35 H          -5.3264    9.9311   -1.5962 H       1  LIG1        0.1425
     36 C          -5.5241    7.2792   -0.1813 C.ar    1  LIG1        0.1763
     37 C          -6.7256    7.8341    0.2000 C.ar    1  LIG1        0.0191
     38 C          -7.6990    6.7793    0.0776 C.ar    1  LIG1        0.0665
     39 C          -7.0234    5.6712   -0.3472 C.ar    1  LIG1        0.1136
     40 O          -5.6919    5.9593   -0.5087 O.2     1  LIG1       -0.4576
     41 H          -7.3173    4.6515   -0.5392 H       1  LIG1        0.1049
     42 C          -6.9960    9.2053    0.7408 C.3     1  LIG1       -0.0342
     43 H          -7.5436    9.1398    1.6884 H       1  LIG1        0.0279
     44 H          -7.6102    9.8122    0.0608 H       1  LIG1        0.0279
     45 H          -6.0689    9.7545    0.9160 H       1  LIG1        0.0279
     46 N          -9.0468    6.9016    0.4543 N.pl3   1  LIG1       -0.3553
     47 H          -9.4665    7.7643    0.1263 H       1  LIG1        0.1424
     48 H          -9.6141    6.1182    0.1529 H       1  LIG1        0.1424
@<TRIPOS>BOND
     1    34    33    1
     2    35    33    1
     3    32    30    1
     4    33    27    1
     5    30    26    1
     6    30    31    1
     7     9     7    1
     8    27    26   ar
     9    27    28   ar
    10    26    25   ar
    11    41    39    1
    12    40    39   ar
    13    40    36   ar
    14    12    11    1
    15    19    18    1
    16    10     7    1
    17    39    38   ar
    18    13    11    1
    19    28    36    1
    20    28    29   ar
    21     7     2    1
    22     7     8    1
    23     6     1    1
    24    25    29   ar
    25    25    17    1
    26     1     2   ar
    27     1     5   ar
    28    36    37   ar
    29     2     3   ar
    30    18    17   ar
    31    18    14   ar
    32     5     4   ar
    33     3    11    1
    34     3     4   ar
    35     4    14    1
    36    17    16   ar
    37    23    21    1
    38    44    42    1
    39    38    37   ar
    40    38    46    1
    41    47    46    1
    42    14    15   ar
    43    48    46    1
    44    37    42    1
    45    16    15   ar
    46    16    21    1
    47    15    20    1
    48    42    45    1
    49    42    43    1
    50    21    22    1
    51    21    24    1
