@<TRIPOS>MOLECULE
mol_data/opt/b3lyp/geoms/mol2/12ii12ii12ii12ii-.out
 54 57 0 0 0
SMALL
GASTEIGER

@<TRIPOS>ATOM
      1 C           1.2550    2.3652   -2.3015 C.ar    1  LIG1        0.0959
      2 C           2.0515    2.0148   -1.2532 C.ar    1  LIG1       -0.0091
      3 C           1.9662    3.1069   -0.3144 C.ar    1  LIG1        0.0013
      4 C           1.1329    4.0381   -0.8857 C.ar    1  LIG1        0.1731
      5 O           0.6885    3.5857   -2.1063 O.2     1  LIG1       -0.4593
      6 H           0.9957    1.8664   -3.2234 H       1  LIG1        0.1032
      7 C           2.8360    0.7486   -1.0884 C.3     1  LIG1       -0.0365
      8 H           2.5290    0.1982   -0.1911 H       1  LIG1        0.0279
      9 H           3.9096    0.9478   -0.9899 H       1  LIG1        0.0279
     10 H           2.6989    0.0846   -1.9465 H       1  LIG1        0.0279
     11 C           2.6076    3.1591    1.0389 C.3     1  LIG1       -0.0358
     12 H           2.1899    3.9696    1.6409 H       1  LIG1        0.0279
     13 H           3.6923    3.3118    0.9779 H       1  LIG1        0.0279
     14 H           2.4483    2.2207    1.5821 H       1  LIG1        0.0279
     15 C           0.6650    5.3391   -0.4576 C.ar    1  LIG1        0.1741
     16 C           1.3005    6.4285    0.0885 C.ar    1  LIG1        0.0020
     17 C           0.2802    7.4121    0.3305 C.ar    1  LIG1        0.0020
     18 C          -0.8968    6.8642   -0.1232 C.ar    1  LIG1        0.1741
     19 O          -0.6751    5.5962   -0.5975 O.2     1  LIG1       -0.4481
     20 C           2.7668    6.5959    0.3490 C.3     1  LIG1       -0.0357
     21 H           3.1270    7.5530   -0.0447 H       1  LIG1        0.0279
     22 H           3.3419    5.7988   -0.1280 H       1  LIG1        0.0279
     23 H           3.0017    6.5826    1.4206 H       1  LIG1        0.0279
     24 C           0.4774    8.7403    0.9962 C.3     1  LIG1       -0.0357
     25 H          -0.4803    9.1793    1.2856 H       1  LIG1        0.0279
     26 H           0.9919    9.4593    0.3465 H       1  LIG1        0.0279
     27 H           1.0864    8.6358    1.9011 H       1  LIG1        0.0279
     28 C          -2.2559    7.3507   -0.1819 C.ar    1  LIG1        0.1741
     29 C          -2.8218    8.5489   -0.5450 C.ar    1  LIG1        0.0020
     30 C          -4.2424    8.3994   -0.3817 C.ar    1  LIG1        0.0020
     31 C          -4.4420    7.1076    0.0563 C.ar    1  LIG1        0.1741
     32 O          -3.2406    6.4655    0.1856 O.2     1  LIG1       -0.4481
     33 C          -2.1248    9.7589   -1.0883 C.3     1  LIG1       -0.0357
     34 H          -2.6352   10.1328   -1.9830 H       1  LIG1        0.0279
     35 H          -1.0934    9.5273   -1.3637 H       1  LIG1        0.0279
     36 H          -2.1031   10.5843   -0.3662 H       1  LIG1        0.0279
     37 C          -5.2613    9.4583   -0.6794 C.3     1  LIG1       -0.0357
     38 H          -6.2758    9.0675   -0.6109 H       1  LIG1        0.0279
     39 H          -5.1176    9.8678   -1.6864 H       1  LIG1        0.0279
     40 H          -5.1774   10.2993    0.0204 H       1  LIG1        0.0279
     41 C          -5.6095    6.3267    0.3875 C.ar    1  LIG1        0.1731
     42 C          -5.8164    4.9940    0.6679 C.ar    1  LIG1        0.0013
     43 C          -7.2302    4.8582    0.9215 C.ar    1  LIG1       -0.0091
     44 C          -7.7636    6.1014    0.7745 C.ar    1  LIG1        0.0959
     45 O          -6.7997    7.0110    0.4524 O.2     1  LIG1       -0.4593
     46 H          -8.7668    6.4896    0.8622 H       1  LIG1        0.1032
     47 C          -4.8228    3.8715    0.7071 C.3     1  LIG1       -0.0358
     48 H          -3.8378    4.1900    0.3680 H       1  LIG1        0.0279
     49 H          -5.1525    3.0379    0.0755 H       1  LIG1        0.0279
     50 H          -4.7155    3.4745    1.7247 H       1  LIG1        0.0279
     51 C          -7.9542    3.5941    1.2721 C.3     1  LIG1       -0.0365
     52 H          -7.5678    3.1533    2.1985 H       1  LIG1        0.0279
     53 H          -7.8431    2.8365    0.4873 H       1  LIG1        0.0279
     54 H          -9.0238    3.7753    1.4103 H       1  LIG1        0.0279
@<TRIPOS>BOND
     1     6     1    1
     2     1     5   ar
     3     1     2   ar
     4     5     4   ar
     5    34    33    1
     6    10     7    1
     7    39    37    1
     8    35    33    1
     9     2     7    1
    10     2     3   ar
    11     7     9    1
    12     7     8    1
    13    33    29    1
    14    33    36    1
    15     4    15    1
    16     4     3   ar
    17    37    38    1
    18    37    30    1
    19    37    40    1
    20    19    15   ar
    21    19    18   ar
    22    29    30   ar
    23    29    28   ar
    24    15    16   ar
    25    30    31   ar
    26     3    11    1
    27    28    18    1
    28    28    32   ar
    29    22    20    1
    30    18    17   ar
    31    21    20    1
    32    31    32   ar
    33    31    41    1
    34    49    47    1
    35    16    17   ar
    36    16    20    1
    37    17    24    1
    38    26    24    1
    39    20    23    1
    40    48    47    1
    41    41    45   ar
    42    41    42   ar
    43    45    44   ar
    44    53    51    1
    45    42    47    1
    46    42    43   ar
    47    47    50    1
    48    44    46    1
    49    44    43   ar
    50    43    51    1
    51    13    11    1
    52    24    25    1
    53    24    27    1
    54    11    14    1
    55    11    12    1
    56    51    54    1
    57    51    52    1
