@<TRIPOS>MOLECULE
mol_data/opt/b3lyp/geoms/mol2/12ii12ii.out
 28 29 0 0 0
SMALL
GASTEIGER

@<TRIPOS>ATOM
      1 C           0.3193    1.8375    0.7314 C.ar    1  LIG1        0.0959
      2 C           1.5697    1.7996    0.1923 C.ar    1  LIG1       -0.0091
      3 C           1.8549    3.1494   -0.2306 C.ar    1  LIG1        0.0013
      4 C           0.7526    3.8967    0.1053 C.ar    1  LIG1        0.1731
      5 O          -0.1974    3.0953    0.6944 O.2     1  LIG1       -0.4593
      6 H          -0.3167    1.0784    1.1616 H       1  LIG1        0.1032
      7 C           2.4613    0.6046    0.0419 C.3     1  LIG1       -0.0365
      8 H           3.4046    0.7328    0.5858 H       1  LIG1        0.0279
      9 H           2.7196    0.4241   -1.0084 H       1  LIG1        0.0279
     10 H           1.9782   -0.2992    0.4237 H       1  LIG1        0.0279
     11 C           3.0846    3.6071   -0.9544 C.3     1  LIG1       -0.0358
     12 H           3.9634    3.6411   -0.2985 H       1  LIG1        0.0279
     13 H           2.9436    4.6058   -1.3747 H       1  LIG1        0.0279
     14 H           3.3285    2.9268   -1.7784 H       1  LIG1        0.0279
     15 C           0.4307    5.3010   -0.0397 C.ar    1  LIG1        0.1731
     16 C           1.1291    6.4536    0.2248 C.ar    1  LIG1        0.0013
     17 C           0.2629    7.5442   -0.1527 C.ar    1  LIG1       -0.0091
     18 C          -0.8878    6.9658   -0.5965 C.ar    1  LIG1        0.0959
     19 O          -0.8122    5.6087   -0.5419 O.2     1  LIG1       -0.4593
     20 H          -1.8177    7.3723   -0.9647 H       1  LIG1        0.1032
     21 C           2.4871    6.5785    0.8460 C.3     1  LIG1       -0.0358
     22 H           3.2437    6.9127    0.1253 H       1  LIG1        0.0279
     23 H           2.8191    5.6229    1.2588 H       1  LIG1        0.0279
     24 H           2.4778    7.3117    1.6606 H       1  LIG1        0.0279
     25 C           0.5661    9.0082   -0.0498 C.3     1  LIG1       -0.0365
     26 H          -0.2844    9.6118   -0.3790 H       1  LIG1        0.0279
     27 H           1.4298    9.2865   -0.6651 H       1  LIG1        0.0279
     28 H           0.8004    9.2997    0.9811 H       1  LIG1        0.0279
@<TRIPOS>BOND
     1    14    11    1
     2    13    11    1
     3     9     7    1
     4    20    18    1
     5    11    12    1
     6    11     3    1
     7    27    25    1
     8    18    19   ar
     9    18    17   ar
    10    19    15   ar
    11    26    25    1
    12     3     4   ar
    13     3     2   ar
    14    17    25    1
    15    17    16   ar
    16    25    28    1
    17    15     4    1
    18    15    16   ar
    19     7     2    1
    20     7    10    1
    21     7     8    1
    22     4     5   ar
    23    22    21    1
    24     2     1   ar
    25    16    21    1
    26     5     1   ar
    27     1     6    1
    28    21    23    1
    29    21    24    1
