@<TRIPOS>MOLECULE
mol_data/opt/b3lyp/geoms/mol2/12ii12ii12ii-12ii.out
 54 57 0 0 0
SMALL
GASTEIGER

@<TRIPOS>ATOM
      1 C           0.7450    1.9773    1.5609 C.ar    1  LIG1        0.0959
      2 C           1.7315    1.7844    0.6413 C.ar    1  LIG1       -0.0091
      3 C           1.8583    3.0353   -0.0660 C.ar    1  LIG1        0.0013
      4 C           0.9442    3.8904    0.5018 C.ar    1  LIG1        0.1731
      5 O           0.2524    3.2437    1.5000 O.2     1  LIG1       -0.4593
      6 H           0.2944    1.3304    2.2986 H       1  LIG1        0.1032
      7 C           2.5095    0.5284    0.3915 C.3     1  LIG1       -0.0365
      8 H           3.5835    0.6787    0.5523 H       1  LIG1        0.0279
      9 H           2.3867    0.1764   -0.6398 H       1  LIG1        0.0279
     10 H           2.1838   -0.2765    1.0563 H       1  LIG1        0.0279
     11 C           2.7592    3.3026   -1.2333 C.3     1  LIG1       -0.0358
     12 H           3.8104    3.3978   -0.9339 H       1  LIG1        0.0279
     13 H           2.4741    4.2247   -1.7456 H       1  LIG1        0.0279
     14 H           2.7085    2.4842   -1.9605 H       1  LIG1        0.0279
     15 C           0.5971    5.2717    0.2543 C.ar    1  LIG1        0.1741
     16 C           1.3388    6.4090    0.0462 C.ar    1  LIG1        0.0020
     17 C           0.4029    7.4783   -0.1660 C.ar    1  LIG1        0.0020
     18 C          -0.8513    6.9185   -0.0436 C.ar    1  LIG1        0.1741
     19 O          -0.7427    5.5761    0.2089 O.2     1  LIG1       -0.4481
     20 C           2.8306    6.5458    0.0882 C.3     1  LIG1       -0.0357
     21 H           3.1265    7.3915    0.7189 H       1  LIG1        0.0279
     22 H           3.2575    6.7246   -0.9064 H       1  LIG1        0.0279
     23 H           3.2960    5.6445    0.4942 H       1  LIG1        0.0279
     24 C           0.7682    8.9037   -0.4537 C.3     1  LIG1       -0.0357
     25 H          -0.0919    9.4724   -0.8073 H       1  LIG1        0.0279
     26 H           1.5545    8.9582   -1.2150 H       1  LIG1        0.0279
     27 H           1.1550    9.4092    0.4408 H       1  LIG1        0.0279
     28 C          -2.1911    7.4412   -0.1286 C.ar    1  LIG1        0.1741
     29 C          -3.4351    6.8644   -0.2585 C.ar    1  LIG1        0.0020
     30 C          -4.3818    7.9436   -0.2884 C.ar    1  LIG1        0.0020
     31 C          -3.6524    9.1063   -0.1828 C.ar    1  LIG1        0.1741
     32 O          -2.3148    8.8095   -0.0837 O.2     1  LIG1       -0.4481
     33 C          -3.7869    5.4107   -0.3600 C.3     1  LIG1       -0.0357
     34 H          -2.8969    4.7855   -0.4223 H       1  LIG1        0.0279
     35 H          -4.4096    5.2213   -1.2422 H       1  LIG1        0.0279
     36 H          -4.3643    5.0820    0.5132 H       1  LIG1        0.0279
     37 C          -5.8678    7.7824   -0.4012 C.3     1  LIG1       -0.0357
     38 H          -6.2396    7.0656    0.3400 H       1  LIG1        0.0279
     39 H          -6.1522    7.3960   -1.3881 H       1  LIG1        0.0279
     40 H          -6.3853    8.7305   -0.2560 H       1  LIG1        0.0279
     41 C          -3.9997   10.5056   -0.1516 C.ar    1  LIG1        0.1731
     42 C          -3.3425   11.6431    0.2615 C.ar    1  LIG1        0.0013
     43 C          -4.2508   12.7373    0.0196 C.ar    1  LIG1       -0.0091
     44 C          -5.3775   12.1840   -0.5065 C.ar    1  LIG1        0.0959
     45 O          -5.2490   10.8313   -0.6242 O.2     1  LIG1       -0.4593
     46 H          -6.3181   12.5981   -0.8361 H       1  LIG1        0.1032
     47 C          -1.9778   11.7658    0.8695 C.3     1  LIG1       -0.0358
     48 H          -2.0020   12.4167    1.7510 H       1  LIG1        0.0279
     49 H          -1.2607   12.2090    0.1664 H       1  LIG1        0.0279
     50 H          -1.5860   10.7943    1.1717 H       1  LIG1        0.0279
     51 C          -3.9985   14.1866    0.3040 C.3     1  LIG1       -0.0365
     52 H          -4.8645   14.7986    0.0369 H       1  LIG1        0.0279
     53 H          -3.1369   14.5635   -0.2595 H       1  LIG1        0.0279
     54 H          -3.7856   14.3573    1.3660 H       1  LIG1        0.0279
@<TRIPOS>BOND
     1    14    11    1
     2    13    11    1
     3    39    37    1
     4    35    33    1
     5    11    12    1
     6    11     3    1
     7    26    24    1
     8    22    20    1
     9    46    44    1
    10    25    24    1
    11     9     7    1
    12    45    44   ar
    13    45    41   ar
    14    44    43   ar
    15    24    17    1
    16    24    27    1
    17    34    33    1
    18    37    30    1
    19    37    40    1
    20    37    38    1
    21    33    29    1
    22    33    36    1
    23    30    29   ar
    24    30    31   ar
    25    53    51    1
    26    29    28   ar
    27    31    41    1
    28    31    32   ar
    29    17    18   ar
    30    17    16   ar
    31    41    42   ar
    32    28    32   ar
    33    28    18    1
    34     3     4   ar
    35     3     2   ar
    36    18    19   ar
    37    43    42   ar
    38    43    51    1
    39    52    51    1
    40    16    20    1
    41    16    15   ar
    42    20    23    1
    43    20    21    1
    44    49    47    1
    45    19    15   ar
    46    15     4    1
    47    42    47    1
    48    51    54    1
    49     7     8    1
    50     7     2    1
    51     7    10    1
    52     4     5   ar
    53     2     1   ar
    54    47    50    1
    55    47    48    1
    56     5     1   ar
    57     1     6    1
