@<TRIPOS>MOLECULE
mol_data/opt/b3lyp/geoms/mol2/12ii12ii-12ii.out
 41 43 0 0 0
SMALL
GASTEIGER

@<TRIPOS>ATOM
      1 C           0.2012    1.7735   -0.4277 C.ar    1  LIG1        0.0959
      2 C           1.5060    1.7331   -0.0431 C.ar    1  LIG1       -0.0091
      3 C           1.8953    3.1010    0.1988 C.ar    1  LIG1        0.0013
      4 C           0.7821    3.8658   -0.0711 C.ar    1  LIG1        0.1731
      5 O          -0.2603    3.0568   -0.4567 O.2     1  LIG1       -0.4593
      6 H          -0.5105    1.0107   -0.7041 H       1  LIG1        0.1032
      7 C           2.3702    0.5187    0.1112 C.3     1  LIG1       -0.0365
      8 H           2.7553    0.4263    1.1335 H       1  LIG1        0.0279
      9 H           3.2394    0.5556   -0.5560 H       1  LIG1        0.0279
     10 H           1.8137   -0.3945   -0.1175 H       1  LIG1        0.0279
     11 C           3.2456    3.5479    0.6720 C.3     1  LIG1       -0.0358
     12 H           3.2285    4.5844    1.0095 H       1  LIG1        0.0279
     13 H           3.9980    3.4705   -0.1235 H       1  LIG1        0.0279
     14 H           3.5944    2.9214    1.5010 H       1  LIG1        0.0279
     15 C           0.5071    5.2809   -0.0281 C.ar    1  LIG1        0.1741
     16 C          -0.6468    6.0308   -0.0031 C.ar    1  LIG1        0.0020
     17 C          -0.2370    7.4070    0.0376 C.ar    1  LIG1        0.0020
     18 C           1.1394    7.4040    0.0431 C.ar    1  LIG1        0.1741
     19 O           1.6017    6.1108    0.0015 O.2     1  LIG1       -0.4481
     20 C          -2.0692    5.5571   -0.0051 C.3     1  LIG1       -0.0357
     21 H          -2.1300    4.4725    0.0804 H       1  LIG1        0.0279
     22 H          -2.5831    5.8486   -0.9297 H       1  LIG1        0.0279
     23 H          -2.6303    6.0034    0.8243 H       1  LIG1        0.0279
     24 C          -1.1689    8.5811    0.0584 C.3     1  LIG1       -0.0357
     25 H          -1.7443    8.6144    0.9922 H       1  LIG1        0.0279
     26 H          -1.8955    8.5172   -0.7601 H       1  LIG1        0.0279
     27 H          -0.6284    9.5229   -0.0319 H       1  LIG1        0.0279
     28 C           2.1438    8.4384    0.0759 C.ar    1  LIG1        0.1731
     29 C           3.4899    8.4715   -0.2132 C.ar    1  LIG1        0.0013
     30 C           3.9151    9.8288    0.0278 C.ar    1  LIG1       -0.0091
     31 C           2.8061   10.5066    0.4312 C.ar    1  LIG1        0.0959
     32 O           1.7187    9.6841    0.4727 O.2     1  LIG1       -0.4593
     33 H           2.6310   11.5333    0.7143 H       1  LIG1        0.1032
     34 C           4.3695    7.3612   -0.7037 C.3     1  LIG1       -0.0358
     35 H           5.0536    7.0119    0.0805 H       1  LIG1        0.0279
     36 H           4.9918    7.6985   -1.5407 H       1  LIG1        0.0279
     37 H           3.7838    6.5037   -1.0359 H       1  LIG1        0.0279
     38 C           5.3002   10.3741   -0.1442 C.3     1  LIG1       -0.0365
     39 H           5.3366   11.4420    0.0882 H       1  LIG1        0.0279
     40 H           5.6584   10.2450   -1.1724 H       1  LIG1        0.0279
     41 H           6.0175    9.8655    0.5106 H       1  LIG1        0.0279
@<TRIPOS>BOND
     1    36    34    1
     2    40    38    1
     3    37    34    1
     4    22    20    1
     5    26    24    1
     6     6     1    1
     7    34    29    1
     8    34    35    1
     9     9     7    1
    10     5     1   ar
    11     5     4   ar
    12     1     2   ar
    13    29    30   ar
    14    29    28   ar
    15    38    30    1
    16    38    39    1
    17    38    41    1
    18    13    11    1
    19    10     7    1
    20     4    15    1
    21     4     3   ar
    22     2     7    1
    23     2     3   ar
    24    27    24    1
    25    15    16   ar
    26    15    19   ar
    27    20    16    1
    28    20    21    1
    29    20    23    1
    30    16    17   ar
    31    19    18   ar
    32    30    31   ar
    33    17    18   ar
    34    17    24    1
    35    18    28    1
    36    24    25    1
    37    28    32   ar
    38     7     8    1
    39     3    11    1
    40    31    32   ar
    41    31    33    1
    42    11    12    1
    43    11    14    1
