@<TRIPOS>MOLECULE
mol_data/opt/b3lyp/geoms/mol2/12ii.out
 15 15 0 0 0
SMALL
GASTEIGER

@<TRIPOS>ATOM
      1 C           0.0897    1.8996    0.0882 C.ar    1  LIG1        0.0948
      2 C           1.4491    1.8781    0.0124 C.ar    1  LIG1       -0.0099
      3 C           1.8633    3.2650    0.0124 C.ar    1  LIG1       -0.0099
      4 C           0.7149    3.9926    0.0884 C.ar    1  LIG1        0.0948
      5 O          -0.3805    3.1799    0.1357 O.2     1  LIG1       -0.4705
      6 H          -0.6575    1.1208    0.1168 H       1  LIG1        0.1032
      7 H           0.5173    5.0534    0.1172 H       1  LIG1        0.1032
      8 C           2.3402    0.6751   -0.0572 C.3     1  LIG1       -0.0365
      9 H           3.0409    0.6428    0.7857 H       1  LIG1        0.0279
     10 H           2.9423    0.6717   -0.9737 H       1  LIG1        0.0279
     11 H           1.7582   -0.2506   -0.0398 H       1  LIG1        0.0279
     12 C           3.2683    3.7822   -0.0575 C.3     1  LIG1       -0.0365
     13 H           3.2893    4.8755   -0.0399 H       1  LIG1        0.0279
     14 H           3.7734    3.4550   -0.9741 H       1  LIG1        0.0279
     15 H           3.8721    3.4249    0.7853 H       1  LIG1        0.0279
@<TRIPOS>BOND
     1    14    12    1
     2    10     8    1
     3    12    13    1
     4    12     3    1
     5    12    15    1
     6     8    11    1
     7     8     2    1
     8     8     9    1
     9     3     2   ar
    10     3     4   ar
    11     2     1   ar
    12     1     6    1
    13     1     5   ar
    14     4     7    1
    15     4     5   ar
