@<TRIPOS>MOLECULE
mol_data/opt/b3lyp/geoms/mol2/12ii12ii-12ii-12ii-.out
 54 57 0 0 0
SMALL
GASTEIGER

@<TRIPOS>ATOM
      1 C          -0.0547    1.7767    0.7804 C.ar    1  LIG1        0.0959
      2 C           1.2975    1.7255    0.9238 C.ar    1  LIG1       -0.0091
      3 C           1.7804    3.0608    0.6680 C.ar    1  LIG1        0.0013
      4 C           0.6644    3.8190    0.3902 C.ar    1  LIG1        0.1731
      5 O          -0.4640    3.0374    0.4588 O.2     1  LIG1       -0.4593
      6 H          -0.8354    1.0369    0.8708 H       1  LIG1        0.1032
      7 C           2.1300    0.5296    1.2728 C.3     1  LIG1       -0.0365
      8 H           2.6972    0.6907    2.1970 H       1  LIG1        0.0279
      9 H           2.8591    0.3040    0.4857 H       1  LIG1        0.0279
     10 H           1.5079   -0.3586    1.4142 H       1  LIG1        0.0279
     11 C           3.2206    3.4770    0.7026 C.3     1  LIG1       -0.0358
     12 H           3.3540    4.5040    0.3647 H       1  LIG1        0.0279
     13 H           3.8301    2.8228    0.0676 H       1  LIG1        0.0279
     14 H           3.6290    3.4019    1.7185 H       1  LIG1        0.0279
     15 C           0.4588    5.2084    0.0586 C.ar    1  LIG1        0.1741
     16 C          -0.6231    5.9417   -0.3798 C.ar    1  LIG1        0.0020
     17 C          -0.1499    7.2893   -0.5439 C.ar    1  LIG1        0.0020
     18 C           1.1752    7.2878   -0.1809 C.ar    1  LIG1        0.1741
     19 O           1.5535    6.0192    0.1874 O.2     1  LIG1       -0.4481
     20 C          -2.0163    5.4740   -0.6771 C.3     1  LIG1       -0.0357
     21 H          -2.0967    4.3897   -0.6109 H       1  LIG1        0.0279
     22 H          -2.3261    5.7812   -1.6831 H       1  LIG1        0.0279
     23 H          -2.7400    5.9079    0.0244 H       1  LIG1        0.0279
     24 C          -0.9449    8.4371   -1.0877 C.3     1  LIG1       -0.0357
     25 H          -1.5015    8.1357   -1.9821 H       1  LIG1        0.0279
     26 H          -0.2939    9.2699   -1.3634 H       1  LIG1        0.0279
     27 H          -1.6814    8.8105   -0.3656 H       1  LIG1        0.0279
     28 C           2.1969    8.3076   -0.1230 C.ar    1  LIG1        0.1741
     29 C           2.2062    9.6062    0.3300 C.ar    1  LIG1        0.0020
     30 C           3.5320   10.1066    0.0876 C.ar    1  LIG1        0.0020
     31 C           4.2440    9.0654   -0.4581 C.ar    1  LIG1        0.1741
     32 O           3.4377    7.9645   -0.5973 O.2     1  LIG1       -0.4481
     33 C           1.0905   10.3536    0.9953 C.3     1  LIG1       -0.0357
     34 H           0.2842    9.6762    1.2864 H       1  LIG1        0.0279
     35 H           0.6601   11.1252    0.3447 H       1  LIG1        0.0279
     36 H           1.4462   10.8608    1.8991 H       1  LIG1        0.0279
     37 C           4.0088   11.5035    0.3467 C.3     1  LIG1       -0.0357
     38 H           3.2978   12.2386   -0.0470 H       1  LIG1        0.0279
     39 H           4.9750   11.6815   -0.1312 H       1  LIG1        0.0279
     40 H           4.1223   11.7109    1.4180 H       1  LIG1        0.0279
     41 C           5.6200    8.9309   -0.8861 C.ar    1  LIG1        0.1731
     42 C           6.8182    9.2861   -0.3151 C.ar    1  LIG1        0.0013
     43 C           7.8419    8.8950   -1.2534 C.ar    1  LIG1       -0.0091
     44 C           7.1844    8.3241   -2.3013 C.ar    1  LIG1        0.0959
     45 O           5.8388    8.3346   -2.1061 O.2     1  LIG1       -0.4593
     46 H           7.5242    7.8754   -3.2227 H       1  LIG1        0.1032
     47 C           7.0454    9.8889    1.0379 C.3     1  LIG1       -0.0358
     48 H           6.1340    9.8587    1.6398 H       1  LIG1        0.0279
     49 H           7.3717   10.9346    0.9763 H       1  LIG1        0.0279
     50 H           7.8254    9.3437    1.5815 H       1  LIG1        0.0279
     51 C           9.3219    9.0623   -1.0888 C.3     1  LIG1       -0.0365
     52 H           9.6881    8.5499   -0.1911 H       1  LIG1        0.0279
     53 H           9.6012   10.1180   -0.9910 H       1  LIG1        0.0279
     54 H           9.8634    8.6538   -1.9466 H       1  LIG1        0.0279
@<TRIPOS>BOND
     1    46    44    1
     2    44    45   ar
     3    44    43   ar
     4    45    41   ar
     5    25    24    1
     6    54    51    1
     7    22    20    1
     8    26    24    1
     9    43    51    1
    10    43    42   ar
    11    51    53    1
    12    51    52    1
    13    24    17    1
    14    24    27    1
    15    41    31    1
    16    41    42   ar
    17    20    21    1
    18    20    16    1
    19    20    23    1
    20    32    31   ar
    21    32    28   ar
    22    17    16   ar
    23    17    18   ar
    24    31    30   ar
    25    16    15   ar
    26    42    47    1
    27    18    28    1
    28    18    19   ar
    29    39    37    1
    30    28    29   ar
    31    38    37    1
    32    15    19   ar
    33    15     4    1
    34    13    11    1
    35    30    29   ar
    36    30    37    1
    37    29    33    1
    38    35    33    1
    39    37    40    1
    40    12    11    1
    41     4     5   ar
    42     4     3   ar
    43     5     1   ar
    44     9     7    1
    45     3    11    1
    46     3     2   ar
    47    11    14    1
    48     1     6    1
    49     1     2   ar
    50     2     7    1
    51    49    47    1
    52    33    34    1
    53    33    36    1
    54    47    50    1
    55    47    48    1
    56     7    10    1
    57     7     8    1
