@<TRIPOS>MOLECULE
mol_data/opt/b3lyp/geoms/mol2/12ii12ii12ii12ii.out
 54 57 0 0 0
SMALL
GASTEIGER

@<TRIPOS>ATOM
      1 C           0.8038    1.5871   -0.1147 C.ar    1  LIG1        0.0959
      2 C           1.9752    1.8099    0.5444 C.ar    1  LIG1       -0.0091
      3 C           2.1102    3.2437    0.6299 C.ar    1  LIG1        0.0013
      4 C           1.0097    3.7691   -0.0039 C.ar    1  LIG1        0.1731
      5 O           0.2005    2.7559   -0.4595 O.2     1  LIG1       -0.4593
      6 H           0.2824    0.6855   -0.3988 H       1  LIG1        0.1032
      7 C           2.9208    0.7850    1.0928 C.3     1  LIG1       -0.0365
      8 H           3.0518    0.8956    2.1759 H       1  LIG1        0.0279
      9 H           3.9158    0.8692    0.6399 H       1  LIG1        0.0279
     10 H           2.5559   -0.2289    0.9060 H       1  LIG1        0.0279
     11 C           3.2018    3.9869    1.3383 C.3     1  LIG1       -0.0358
     12 H           2.9372    5.0383    1.4742 H       1  LIG1        0.0279
     13 H           4.1524    3.9495    0.7918 H       1  LIG1        0.0279
     14 H           3.3874    3.5562    2.3289 H       1  LIG1        0.0279
     15 C           0.5725    5.1243   -0.2624 C.ar    1  LIG1        0.1741
     16 C           1.2220    6.2431   -0.7282 C.ar    1  LIG1        0.0020
     17 C           0.2379    7.2905   -0.7715 C.ar    1  LIG1        0.0020
     18 C          -0.9378    6.7312   -0.3288 C.ar    1  LIG1        0.1741
     19 O          -0.7447    5.4105   -0.0170 O.2     1  LIG1       -0.4481
     20 C           2.6418    6.3427   -1.1966 C.3     1  LIG1       -0.0357
     21 H           2.6982    6.8420   -2.1706 H       1  LIG1        0.0279
     22 H           3.0884    5.3513   -1.3028 H       1  LIG1        0.0279
     23 H           3.2677    6.9205   -0.5054 H       1  LIG1        0.0279
     24 C           0.4470    8.6790   -1.2947 C.3     1  LIG1       -0.0357
     25 H           1.0290    9.3005   -0.6031 H       1  LIG1        0.0279
     26 H          -0.5084    9.1788   -1.4704 H       1  LIG1        0.0279
     27 H           0.9947    8.6606   -2.2438 H       1  LIG1        0.0279
     28 C          -2.2727    7.2591   -0.1476 C.ar    1  LIG1        0.1741
     29 C          -2.7515    8.4207    0.4113 C.ar    1  LIG1        0.0020
     30 C          -4.1809    8.3772    0.2642 C.ar    1  LIG1        0.0020
     31 C          -4.4693    7.1767   -0.3398 C.ar    1  LIG1        0.1741
     32 O          -3.3121    6.4896   -0.6008 O.2     1  LIG1       -0.4481
     33 C          -1.9675    9.5047    1.0867 C.3     1  LIG1       -0.0357
     34 H          -2.4135    9.7650    2.0533 H       1  LIG1        0.0279
     35 H          -1.9355   10.4260    0.4916 H       1  LIG1        0.0279
     36 H          -0.9372    9.1892    1.2674 H       1  LIG1        0.0279
     37 C          -5.1422    9.4577    0.6568 C.3     1  LIG1       -0.0357
     38 H          -5.2574    9.5354    1.7451 H       1  LIG1        0.0279
     39 H          -6.1311    9.2745    0.2297 H       1  LIG1        0.0279
     40 H          -4.7976   10.4355    0.3018 H       1  LIG1        0.0279
     41 C          -5.7120    6.5428   -0.7259 C.ar    1  LIG1        0.1731
     42 C          -6.9120    6.3625   -0.0815 C.ar    1  LIG1        0.0013
     43 C          -7.7648    5.6614   -1.0101 C.ar    1  LIG1       -0.0091
     44 C          -7.0105    5.4623   -2.1270 C.ar    1  LIG1        0.0959
     45 O          -5.7649    5.9879   -1.9830 O.2     1  LIG1       -0.4593
     46 H          -7.2112    4.9754   -3.0696 H       1  LIG1        0.1032
     47 C          -7.2624    6.7409    1.3255 C.3     1  LIG1       -0.0358
     48 H          -7.7283    5.8994    1.8509 H       1  LIG1        0.0279
     49 H          -7.9742    7.5749    1.3653 H       1  LIG1        0.0279
     50 H          -6.3722    7.0345    1.8868 H       1  LIG1        0.0279
     51 C          -9.1784    5.2228   -0.7756 C.3     1  LIG1       -0.0365
     52 H          -9.5750    4.6885   -1.6435 H       1  LIG1        0.0279
     53 H          -9.8395    6.0752   -0.5790 H       1  LIG1        0.0279
     54 H          -9.2542    4.5526    0.0890 H       1  LIG1        0.0279
@<TRIPOS>BOND
     1    46    44    1
     2    27    24    1
     3    21    20    1
     4    44    45   ar
     5    44    43   ar
     6    45    41   ar
     7    52    51    1
     8    26    24    1
     9    22    20    1
    10    24    17    1
    11    24    25    1
    12    20    16    1
    13    20    23    1
    14    43    51    1
    15    43    42   ar
    16    51    53    1
    17    51    54    1
    18    17    16   ar
    19    17    18   ar
    20    16    15   ar
    21    41    31    1
    22    41    42   ar
    23    32    31   ar
    24    32    28   ar
    25     5     1   ar
    26     5     4   ar
    27     6     1    1
    28    31    30   ar
    29    18    28    1
    30    18    19   ar
    31    15    19   ar
    32    15     4    1
    33    28    29   ar
    34     1     2   ar
    35    42    47    1
    36     4     3   ar
    37    39    37    1
    38    30    29   ar
    39    30    37    1
    40    40    37    1
    41    29    33    1
    42    35    33    1
    43     2     3   ar
    44     2     7    1
    45     3    11    1
    46     9     7    1
    47    37    38    1
    48    13    11    1
    49    10     7    1
    50    33    36    1
    51    33    34    1
    52     7     8    1
    53    47    49    1
    54    47    48    1
    55    47    50    1
    56    11    12    1
    57    11    14    1
