@<TRIPOS>MOLECULE
mol_data/opt/b3lyp/geoms/mol2/12ii12ii-.out
 28 29 0 0 0
SMALL
GASTEIGER

@<TRIPOS>ATOM
      1 C           0.1826    1.8081   -0.1315 C.ar    1  LIG1        0.0959
      2 C           1.5398    1.7826   -0.0436 C.ar    1  LIG1       -0.0091
      3 C           1.9656    3.1608    0.0047 C.ar    1  LIG1        0.0013
      4 C           0.8158    3.9154   -0.0621 C.ar    1  LIG1        0.1731
      5 O          -0.2804    3.0914   -0.1468 O.2     1  LIG1       -0.4593
      6 H          -0.5690    1.0358   -0.1902 H       1  LIG1        0.1032
      7 C           2.4260    0.5753   -0.0009 C.3     1  LIG1       -0.0365
      8 H           3.0252    0.5487    0.9169 H       1  LIG1        0.0279
      9 H           3.1293    0.5623   -0.8419 H       1  LIG1        0.0279
     10 H           1.8405   -0.3474   -0.0424 H       1  LIG1        0.0279
     11 C           3.3901    3.6159    0.1142 C.3     1  LIG1       -0.0358
     12 H           3.4582    4.6959    0.2371 H       1  LIG1        0.0279
     13 H           3.9637    3.3424   -0.7806 H       1  LIG1        0.0279
     14 H           3.8882    3.1395    0.9672 H       1  LIG1        0.0279
     15 C           0.5425    5.3346   -0.0621 C.ar    1  LIG1        0.1731
     16 C          -0.6073    6.0892    0.0046 C.ar    1  LIG1        0.0013
     17 C          -0.1815    7.4674   -0.0438 C.ar    1  LIG1       -0.0091
     18 C           1.1757    7.4419   -0.1316 C.ar    1  LIG1        0.0959
     19 O           1.6387    6.1586   -0.1469 O.2     1  LIG1       -0.4593
     20 H           1.9273    8.2142   -0.1904 H       1  LIG1        0.1032
     21 C          -2.0319    5.6341    0.1141 C.3     1  LIG1       -0.0358
     22 H          -2.1000    4.5541    0.2371 H       1  LIG1        0.0279
     23 H          -2.6055    5.9076   -0.7806 H       1  LIG1        0.0279
     24 H          -2.5300    6.1106    0.9672 H       1  LIG1        0.0279
     25 C          -1.0677    8.6747   -0.0011 C.3     1  LIG1       -0.0365
     26 H          -1.6669    8.7014    0.9167 H       1  LIG1        0.0279
     27 H          -1.7710    8.6876   -0.8421 H       1  LIG1        0.0279
     28 H          -0.4823    9.5974   -0.0427 H       1  LIG1        0.0279
@<TRIPOS>BOND
     1    27    25    1
     2     9     7    1
     3    23    21    1
     4    13    11    1
     5    20    18    1
     6     6     1    1
     7    19    18   ar
     8    19    15   ar
     9     5     1   ar
    10     5     4   ar
    11    18    17   ar
    12     1     2   ar
    13    15     4    1
    14    15    16   ar
    15     4     3   ar
    16    17    25    1
    17    17    16   ar
    18     2     7    1
    19     2     3   ar
    20    28    25    1
    21    10     7    1
    22    25    26    1
    23     7     8    1
    24    16    21    1
    25     3    11    1
    26    21    22    1
    27    21    24    1
    28    11    12    1
    29    11    14    1
