@<TRIPOS>MOLECULE
mol_data/opt/b3lyp/geoms/mol2/12ii12ii12ii.out
 41 43 0 0 0
SMALL
GASTEIGER

@<TRIPOS>ATOM
      1 C           0.6060    1.7009   -0.8177 C.ar    1  LIG1        0.0959
      2 C           1.6848    1.7723    0.0113 C.ar    1  LIG1       -0.0091
      3 C           1.8420    3.1703    0.3304 C.ar    1  LIG1        0.0013
      4 C           0.8481    3.8315   -0.3504 C.ar    1  LIG1        0.1731
      5 O           0.0820    2.9334   -1.0546 O.2     1  LIG1       -0.4593
      6 H           0.1048    0.8748   -1.2991 H       1  LIG1        0.1032
      7 C           2.5241    0.6369    0.5135 C.3     1  LIG1       -0.0365
      8 H           2.5195    0.5862    1.6090 H       1  LIG1        0.0279
      9 H           3.5706    0.7386    0.2024 H       1  LIG1        0.0279
     10 H           2.1575   -0.3219    0.1365 H       1  LIG1        0.0279
     11 C           2.8488    3.7532    1.2751 C.3     1  LIG1       -0.0358
     12 H           2.5903    4.7816    1.5386 H       1  LIG1        0.0279
     13 H           3.8604    3.7608    0.8505 H       1  LIG1        0.0279
     14 H           2.8971    3.1706    2.2022 H       1  LIG1        0.0279
     15 C           0.4812    5.2279   -0.4493 C.ar    1  LIG1        0.1741
     16 C           1.2128    6.3744   -0.6497 C.ar    1  LIG1        0.0020
     17 C           0.2685    7.4590   -0.6497 C.ar    1  LIG1        0.0020
     18 C          -0.9678    6.8921   -0.4493 C.ar    1  LIG1        0.1741
     19 O          -0.8497    5.5320   -0.3265 O.2     1  LIG1       -0.4481
     20 C           2.6837    6.4819   -0.9154 C.3     1  LIG1       -0.0357
     21 H           2.8787    7.1318   -1.7760 H       1  LIG1        0.0279
     22 H           3.1142    5.5013   -1.1319 H       1  LIG1        0.0279
     23 H           3.2295    6.9076   -0.0644 H       1  LIG1        0.0279
     24 C           0.5774    8.9010   -0.9156 C.3     1  LIG1       -0.0357
     25 H           1.0751    9.3829   -0.0651 H       1  LIG1        0.0279
     26 H          -0.3347    9.4626   -1.1312 H       1  LIG1        0.0279
     27 H           1.2471    9.0046   -1.7769 H       1  LIG1        0.0279
     28 C          -2.3004    7.4477   -0.3503 C.ar    1  LIG1        0.1731
     29 C          -2.8185    8.5232    0.3305 C.ar    1  LIG1        0.0013
     30 C          -4.2249    8.5598    0.0114 C.ar    1  LIG1       -0.0091
     31 C          -4.4440    7.5010   -0.8175 C.ar    1  LIG1        0.0959
     32 O          -3.2954    6.8124   -1.0544 O.2     1  LIG1       -0.4593
     33 H          -5.3314    7.1182   -1.2990 H       1  LIG1        0.1032
     34 C          -2.1027    9.4401    1.2752 C.3     1  LIG1       -0.0358
     35 H          -2.6728    9.5678    2.2025 H       1  LIG1        0.0279
     36 H          -1.9563   10.4412    0.8508 H       1  LIG1        0.0279
     37 H          -1.1194    9.0429    1.5383 H       1  LIG1        0.0279
     38 C          -5.2339    9.5474    0.5136 C.3     1  LIG1       -0.0365
     39 H          -6.2341    9.3164    0.1364 H       1  LIG1        0.0279
     40 H          -4.9891   10.5699    0.2026 H       1  LIG1        0.0279
     41 H          -5.2849    9.5497    1.6090 H       1  LIG1        0.0279
@<TRIPOS>BOND
     1    27    24    1
     2    21    20    1
     3     6     1    1
     4    33    31    1
     5    22    20    1
     6    26    24    1
     7     5     1   ar
     8     5     4   ar
     9    32    31   ar
    10    32    28   ar
    11    24    17    1
    12    24    25    1
    13    20    16    1
    14    20    23    1
    15     1     2   ar
    16    31    30   ar
    17    17    16   ar
    18    17    18   ar
    19    16    15   ar
    20    18    28    1
    21    18    19   ar
    22    15     4    1
    23    15    19   ar
    24     4     3   ar
    25    28    29   ar
    26     2     3   ar
    27     2     7    1
    28    30    29   ar
    29    30    38    1
    30    39    38    1
    31    10     7    1
    32     9     7    1
    33    40    38    1
    34     3    11    1
    35    29    34    1
    36     7     8    1
    37    38    41    1
    38    13    11    1
    39    36    34    1
    40    11    12    1
    41    11    14    1
    42    34    37    1
    43    34    35    1
