@<TRIPOS>MOLECULE
mol_data/opt/b3lyp/geoms/mol2/12ii12ii-12ii12ii.out
 54 57 0 0 0
SMALL
GASTEIGER

@<TRIPOS>ATOM
      1 C           0.2213    1.7077   -0.5063 C.ar    1  LIG1        0.0959
      2 C           1.4759    1.6697    0.0201 C.ar    1  LIG1       -0.0091
      3 C           1.8506    3.0416    0.2619 C.ar    1  LIG1        0.0013
      4 C           0.7820    3.8056   -0.1516 C.ar    1  LIG1        0.1731
      5 O          -0.2209    2.9925   -0.6242 O.2     1  LIG1       -0.4593
      6 H          -0.4640    0.9418   -0.8359 H       1  LIG1        0.1032
      7 C           2.3046    0.4544    0.3048 C.3     1  LIG1       -0.0365
      8 H           2.5691    0.3873    1.3668 H       1  LIG1        0.0279
      9 H           3.2449    0.4671   -0.2588 H       1  LIG1        0.0279
     10 H           1.7690   -0.4609    0.0381 H       1  LIG1        0.0279
     11 C           3.1438    3.4940    0.8699 C.3     1  LIG1       -0.0358
     12 H           3.0991    4.5406    1.1720 H       1  LIG1        0.0279
     13 H           3.9801    3.3869    0.1668 H       1  LIG1        0.0279
     14 H           3.3909    2.8915    1.7514 H       1  LIG1        0.0279
     15 C           0.5197    5.2233   -0.1829 C.ar    1  LIG1        0.1741
     16 C          -0.6250    5.9805   -0.2887 C.ar    1  LIG1        0.0020
     17 C          -0.2092    7.3545   -0.2588 C.ar    1  LIG1        0.0020
     18 C           1.1621    7.3436   -0.1288 C.ar    1  LIG1        0.1741
     19 O           1.6150    6.0465   -0.0838 O.2     1  LIG1       -0.4481
     20 C          -2.0448    5.5130   -0.4016 C.3     1  LIG1       -0.0357
     21 H          -2.1241    4.4358   -0.2563 H       1  LIG1        0.0279
     22 H          -2.4633    5.7472   -1.3886 H       1  LIG1        0.0279
     23 H          -2.6797    6.0120    0.3395 H       1  LIG1        0.0279
     24 C          -1.1303    8.5328   -0.3606 C.3     1  LIG1       -0.0357
     25 H          -1.7922    8.5934    0.5125 H       1  LIG1        0.0279
     26 H          -1.7753    8.4479   -1.2430 H       1  LIG1        0.0279
     27 H          -0.5783    9.4699   -0.4227 H       1  LIG1        0.0279
     28 C           2.1660    8.3734   -0.0437 C.ar    1  LIG1        0.1741
     29 C           3.5394    8.3820   -0.1663 C.ar    1  LIG1        0.0020
     30 C           3.9496    9.7426    0.0460 C.ar    1  LIG1        0.0020
     31 C           2.8041   10.4716    0.2543 C.ar    1  LIG1        0.1741
     32 O           1.7099    9.6406    0.2090 O.2     1  LIG1       -0.4481
     33 C           4.4611    7.2351   -0.4543 C.3     1  LIG1       -0.0357
     34 H           5.0225    6.9347    0.4400 H       1  LIG1        0.0279
     35 H           5.1995    7.5107   -1.2157 H       1  LIG1        0.0279
     36 H           3.9130    6.3618   -0.8079 H       1  LIG1        0.0279
     37 C           5.3645   10.2347    0.0880 C.3     1  LIG1       -0.0357
     38 H           5.4158   11.2476    0.4940 H       1  LIG1        0.0279
     39 H           5.8271   10.2483   -0.9066 H       1  LIG1        0.0279
     40 H           5.9836    9.5869    0.7186 H       1  LIG1        0.0279
     41 C           2.5492   11.8727    0.5020 C.ar    1  LIG1        0.1731
     42 C           3.0280   13.0293   -0.0658 C.ar    1  LIG1        0.0013
     43 C           2.3954   14.1158    0.6417 C.ar    1  LIG1       -0.0091
     44 C           1.5771   13.5323    1.5613 C.ar    1  LIG1        0.0959
     45 O           1.6521   12.1756    1.5004 O.2     1  LIG1       -0.4593
     46 H           0.8994   13.9349    2.2992 H       1  LIG1        0.1032
     47 C           3.9587   13.1585   -1.2332 C.3     1  LIG1       -0.0358
     48 H           3.5739   13.8827   -1.9603 H       1  LIG1        0.0279
     49 H           4.0803   12.2011   -1.7455 H       1  LIG1        0.0279
     50 H           4.9551   13.5065   -0.9339 H       1  LIG1        0.0279
     51 C           2.5846   15.5811    0.3919 C.3     1  LIG1       -0.0365
     52 H           1.9554   16.1794    1.0569 H       1  LIG1        0.0279
     53 H           2.3271   15.8509   -0.6393 H       1  LIG1        0.0279
     54 H           3.6248   15.8882    0.5526 H       1  LIG1        0.0279
@<TRIPOS>BOND
     1    48    47    1
     2    49    47    1
     3    22    20    1
     4    26    24    1
     5    47    50    1
     6    47    42    1
     7    35    33    1
     8    39    37    1
     9     6     1    1
    10    36    33    1
    11    53    51    1
    12     5     1   ar
    13     5     4   ar
    14     1     2   ar
    15    33    29    1
    16    33    34    1
    17    27    24    1
    18    20    16    1
    19    20    21    1
    20    20    23    1
    21    24    17    1
    22    24    25    1
    23    16    17   ar
    24    16    15   ar
    25    17    18   ar
    26     9     7    1
    27    15     4    1
    28    15    19   ar
    29    29    28   ar
    30    29    30   ar
    31     4     3   ar
    32    18    19   ar
    33    18    28    1
    34    42    41   ar
    35    42    43   ar
    36    28    32   ar
    37     2     3   ar
    38     2     7    1
    39    10     7    1
    40    30    37    1
    41    30    31   ar
    42    37    38    1
    43    37    40    1
    44    13    11    1
    45    32    31   ar
    46    31    41    1
    47     3    11    1
    48     7     8    1
    49    51    54    1
    50    51    43    1
    51    51    52    1
    52    41    45   ar
    53    43    44   ar
    54    11    12    1
    55    11    14    1
    56    45    44   ar
    57    44    46    1
