@<TRIPOS>MOLECULE
mol_data/opt/b3lyp/geoms/mol2/12ii12ii-12ii-12ii.out
 54 57 0 0 0
SMALL
GASTEIGER

@<TRIPOS>ATOM
      1 C          -0.0893    1.6992    0.0868 C.ar    1  LIG1        0.0959
      2 C           1.1425    1.6535    0.6627 C.ar    1  LIG1       -0.0091
      3 C           1.6193    3.0147    0.7020 C.ar    1  LIG1        0.0013
      4 C           0.6238    3.7812    0.1362 C.ar    1  LIG1        0.1731
      5 O          -0.4259    2.9791   -0.2429 O.2     1  LIG1       -0.4593
      6 H          -0.8229    0.9437   -0.1496 H       1  LIG1        0.1032
      7 C           1.8679    0.4419    1.1634 C.3     1  LIG1       -0.0365
      8 H           2.1045    0.5282    2.2304 H       1  LIG1        0.0279
      9 H           2.8180    0.2955    0.6363 H       1  LIG1        0.0279
     10 H           1.2688   -0.4628    1.0277 H       1  LIG1        0.0279
     11 C           2.9426    3.4443    1.2610 C.3     1  LIG1       -0.0358
     12 H           3.0324    4.5290    1.2967 H       1  LIG1        0.0279
     13 H           3.7722    3.0578    0.6552 H       1  LIG1        0.0279
     14 H           3.0828    3.0526    2.2757 H       1  LIG1        0.0279
     15 C           0.4707    5.1930   -0.1223 C.ar    1  LIG1        0.1741
     16 C          -0.5520    5.9734   -0.6183 C.ar    1  LIG1        0.0020
     17 C          -0.0516    7.3206   -0.6395 C.ar    1  LIG1        0.0020
     18 C           1.2264    7.2747   -0.1369 C.ar    1  LIG1        0.1741
     19 O           1.5551    5.9759    0.1744 O.2     1  LIG1       -0.4481
     20 C          -1.9170    5.5598   -1.0812 C.3     1  LIG1       -0.0357
     21 H          -2.0784    4.4909   -0.9504 H       1  LIG1        0.0279
     22 H          -2.0614    5.7964   -2.1429 H       1  LIG1        0.0279
     23 H          -2.6983    6.0954   -0.5284 H       1  LIG1        0.0279
     24 C          -0.7772    8.5141   -1.1819 C.3     1  LIG1       -0.0357
     25 H          -1.2423    8.2809   -2.1462 H       1  LIG1        0.0279
     26 H          -0.0946    9.3536   -1.3325 H       1  LIG1        0.0279
     27 H          -1.5803    8.8503   -0.5144 H       1  LIG1        0.0279
     28 C           2.2394    8.2735    0.1032 C.ar    1  LIG1        0.1741
     29 C           2.2170    9.5403    0.6354 C.ar    1  LIG1        0.0020
     30 C           3.5684   10.0288    0.5940 C.ar    1  LIG1        0.0020
     31 C           4.3259    9.0120    0.0527 C.ar    1  LIG1        0.1741
     32 O           3.5260    7.9431   -0.2519 O.2     1  LIG1       -0.4481
     33 C           1.0429   10.2610    1.2244 C.3     1  LIG1       -0.0357
     34 H           0.2015    9.5812    1.3771 H       1  LIG1        0.0279
     35 H           0.6981   11.0839    0.5862 H       1  LIG1        0.0279
     36 H           1.3019   10.6990    2.1949 H       1  LIG1        0.0279
     37 C           4.0126   11.3724    1.0895 C.3     1  LIG1       -0.0357
     38 H           3.6888   11.5346    2.1247 H       1  LIG1        0.0279
     39 H           3.5749   12.1807    0.4903 H       1  LIG1        0.0279
     40 H           5.0961   11.4756    1.0508 H       1  LIG1        0.0279
     41 C           5.7292    8.8515   -0.2439 C.ar    1  LIG1        0.1731
     42 C           6.5010    7.7910   -0.6658 C.ar    1  LIG1        0.0013
     43 C           7.8459    8.3006   -0.7801 C.ar    1  LIG1       -0.0091
     44 C           7.7869    9.6118   -0.4217 C.ar    1  LIG1        0.0959
     45 O           6.5125    9.9708   -0.0935 O.2     1  LIG1       -0.4593
     46 H           8.5286   10.3927   -0.3521 H       1  LIG1        0.1032
     47 C           6.0906    6.3782   -0.9553 C.3     1  LIG1       -0.0358
     48 H           6.6908    5.6703   -0.3708 H       1  LIG1        0.0279
     49 H           6.2494    6.1302   -2.0125 H       1  LIG1        0.0279
     50 H           5.0396    6.2076   -0.7262 H       1  LIG1        0.0279
     51 C           9.0568    7.5287   -1.2079 C.3     1  LIG1       -0.0365
     52 H           9.9487    8.1614   -1.2123 H       1  LIG1        0.0279
     53 H           8.9346    7.1166   -2.2164 H       1  LIG1        0.0279
     54 H           9.2517    6.6825   -0.5385 H       1  LIG1        0.0279
@<TRIPOS>BOND
     1    53    51    1
     2    25    24    1
     3    22    20    1
     4    49    47    1
     5    26    24    1
     6    52    51    1
     7    51    43    1
     8    51    54    1
     9    24    17    1
    10    24    27    1
    11    20    21    1
    12    20    16    1
    13    20    23    1
    14    47    50    1
    15    47    42    1
    16    47    48    1
    17    43    42   ar
    18    43    44   ar
    19    42    41   ar
    20    17    16   ar
    21    17    18   ar
    22    16    15   ar
    23    44    46    1
    24    44    45   ar
    25    32    31   ar
    26    32    28   ar
    27    41    45   ar
    28    41    31    1
    29     5     1   ar
    30     5     4   ar
    31     6     1    1
    32    18    28    1
    33    18    19   ar
    34    15     4    1
    35    15    19   ar
    36    31    30   ar
    37     1     2   ar
    38    28    29   ar
    39     4     3   ar
    40    39    37    1
    41    35    33    1
    42    30    29   ar
    43    30    37    1
    44    29    33    1
    45     9     7    1
    46    13    11    1
    47     2     3   ar
    48     2     7    1
    49     3    11    1
    50    10     7    1
    51    40    37    1
    52    37    38    1
    53     7     8    1
    54    33    34    1
    55    33    36    1
    56    11    12    1
    57    11    14    1
