@<TRIPOS>MOLECULE
mol_data/opt/b3lyp/geoms/mol2/12ii12ii12ii-12ii-.out
 54 57 0 0 0
SMALL
GASTEIGER

@<TRIPOS>ATOM
      1 C           0.6326    1.7013    0.7145 C.ar    1  LIG1        0.0959
      2 C           1.6812    1.7424   -0.1540 C.ar    1  LIG1       -0.0091
      3 C           1.8570    3.1339   -0.4924 C.ar    1  LIG1        0.0013
      4 C           0.9052    3.8237    0.2200 C.ar    1  LIG1        0.1731
      5 O           0.1450    2.9477    0.9604 O.2     1  LIG1       -0.4593
      6 H           0.1317    0.8900    1.2212 H       1  LIG1        0.1032
      7 C           2.4761    0.5846   -0.6766 C.3     1  LIG1       -0.0365
      8 H           3.5357    0.6674   -0.4076 H       1  LIG1        0.0279
      9 H           2.4275    0.5234   -1.7704 H       1  LIG1        0.0279
     10 H           2.1047   -0.3626   -0.2755 H       1  LIG1        0.0279
     11 C           2.8361    3.6841   -1.4844 C.3     1  LIG1       -0.0358
     12 H           3.8635    3.6834   -1.0994 H       1  LIG1        0.0279
     13 H           2.5835    4.7116   -1.7566 H       1  LIG1        0.0279
     14 H           2.8398    3.0845   -2.4018 H       1  LIG1        0.0279
     15 C           0.5699    5.2255    0.3260 C.ar    1  LIG1        0.1741
     16 C           1.3162    6.3711    0.4625 C.ar    1  LIG1        0.0020
     17 C           0.3859    7.4660    0.5083 C.ar    1  LIG1        0.0020
     18 C          -0.8689    6.9029    0.4116 C.ar    1  LIG1        0.1741
     19 O          -0.7665    5.5424    0.2949 O.2     1  LIG1       -0.4481
     20 C           2.8032    6.4759    0.6144 C.3     1  LIG1       -0.0357
     21 H           3.0636    7.1334    1.4513 H       1  LIG1        0.0279
     22 H           3.2822    6.8937   -0.2796 H       1  LIG1        0.0279
     23 H           3.2478    5.4964    0.8055 H       1  LIG1        0.0279
     24 C           0.7554    8.9103    0.6701 C.3     1  LIG1       -0.0357
     25 H          -0.1228    9.5346    0.8308 H       1  LIG1        0.0279
     26 H           1.2774    9.2884   -0.2180 H       1  LIG1        0.0279
     27 H           1.4356    9.0463    1.5194 H       1  LIG1        0.0279
     28 C          -2.2068    7.4391    0.4117 C.ar    1  LIG1        0.1741
     29 C          -3.4616    6.8759    0.5083 C.ar    1  LIG1        0.0020
     30 C          -4.3919    7.9708    0.4626 C.ar    1  LIG1        0.0020
     31 C          -3.6456    9.1165    0.3264 C.ar    1  LIG1        0.1741
     32 O          -2.3091    8.7997    0.2952 O.2     1  LIG1       -0.4481
     33 C          -3.8310    5.4317    0.6697 C.3     1  LIG1       -0.0357
     34 H          -2.9528    4.8073    0.8303 H       1  LIG1        0.0279
     35 H          -4.3531    5.0537   -0.2185 H       1  LIG1        0.0279
     36 H          -4.5113    5.2954    1.5190 H       1  LIG1        0.0279
     37 C          -5.8788    7.8661    0.6141 C.3     1  LIG1       -0.0357
     38 H          -6.1396    7.2084    1.4508 H       1  LIG1        0.0279
     39 H          -6.3576    7.4486   -0.2801 H       1  LIG1        0.0279
     40 H          -6.3235    8.8455    0.8053 H       1  LIG1        0.0279
     41 C          -3.9811   10.5183    0.2208 C.ar    1  LIG1        0.1731
     42 C          -4.9322   11.2082   -0.4923 C.ar    1  LIG1        0.0013
     43 C          -4.7571   12.5996   -0.1531 C.ar    1  LIG1       -0.0091
     44 C          -3.7094   12.6406    0.7166 C.ar    1  LIG1        0.0959
     45 O          -3.2218   11.3942    0.9624 O.2     1  LIG1       -0.4593
     46 H          -3.2093   13.4517    1.2241 H       1  LIG1        0.1032
     47 C          -5.9103   10.6581   -1.4854 C.3     1  LIG1       -0.0358
     48 H          -6.9380   10.6586   -1.1014 H       1  LIG1        0.0279
     49 H          -5.6572    9.6306   -1.7575 H       1  LIG1        0.0279
     50 H          -5.9131   11.2578   -2.4027 H       1  LIG1        0.0279
     51 C          -5.5517   13.7574   -0.6760 C.3     1  LIG1       -0.0365
     52 H          -6.6117   13.6742   -0.4082 H       1  LIG1        0.0279
     53 H          -5.5020   13.8192   -1.7697 H       1  LIG1        0.0279
     54 H          -5.1811   14.7045   -0.2741 H       1  LIG1        0.0279
@<TRIPOS>BOND
     1    50    47    1
     2    14    11    1
     3     9     7    1
     4    53    51    1
     5    49    47    1
     6    13    11    1
     7    47    48    1
     8    47    42    1
     9    11    12    1
    10    11     3    1
    11     7     8    1
    12     7    10    1
    13     7     2    1
    14    51    52    1
    15    51    54    1
    16    51    43    1
    17     3     2   ar
    18     3     4   ar
    19    42    43   ar
    20    42    41   ar
    21    39    37    1
    22    22    20    1
    23    35    33    1
    24    26    24    1
    25     2     1   ar
    26    43    44   ar
    27     4    15    1
    28     4     5   ar
    29    41    31    1
    30    41    45   ar
    31    19    15   ar
    32    19    18   ar
    33    32    31   ar
    34    32    28   ar
    35    15    16   ar
    36    31    30   ar
    37    18    28    1
    38    18    17   ar
    39    28    29   ar
    40    16    17   ar
    41    16    20    1
    42    30    29   ar
    43    30    37    1
    44    29    33    1
    45    17    24    1
    46    37    40    1
    47    37    38    1
    48    20    23    1
    49    20    21    1
    50    33    34    1
    51    33    36    1
    52    24    25    1
    53    24    27    1
    54     1     5   ar
    55     1     6    1
    56    44    45   ar
    57    44    46    1
