@<TRIPOS>MOLECULE
mol_data/opt/b3lyp/geoms/mol2/12ii12ii-12ii12ii-.out
 54 57 0 0 0
SMALL
GASTEIGER

@<TRIPOS>ATOM
      1 C           0.2328    1.6920    0.1429 C.ar    1  LIG1        0.0959
      2 C           1.4874    1.7228   -0.3838 C.ar    1  LIG1       -0.0091
      3 C           1.8562    3.1153   -0.4601 C.ar    1  LIG1        0.0013
      4 C           0.7838    3.8199    0.0406 C.ar    1  LIG1        0.1731
      5 O          -0.2151    2.9518    0.4126 O.2     1  LIG1       -0.4593
      6 H          -0.4491    0.8893    0.3789 H       1  LIG1        0.1032
      7 C           2.3219    0.5539   -0.8110 C.3     1  LIG1       -0.0365
      8 H           3.2605    0.5016   -0.2470 H       1  LIG1        0.0279
      9 H           2.5895    0.6174   -1.8724 H       1  LIG1        0.0279
     10 H           1.7893   -0.3890   -0.6590 H       1  LIG1        0.0279
     11 C           3.1494    3.6411   -1.0062 C.3     1  LIG1       -0.0358
     12 H           3.1046    4.7172   -1.1742 H       1  LIG1        0.0279
     13 H           3.3971    3.1536   -1.9561 H       1  LIG1        0.0279
     14 H           3.9850    3.4463   -0.3215 H       1  LIG1        0.0279
     15 C           0.5148    5.2224    0.2403 C.ar    1  LIG1        0.1741
     16 C          -0.6298    5.9544    0.4646 C.ar    1  LIG1        0.0020
     17 C          -0.2190    7.3250    0.5836 C.ar    1  LIG1        0.0020
     18 C           1.1475    7.3399    0.4119 C.ar    1  LIG1        0.1741
     19 O           1.6034    6.0596    0.2048 O.2     1  LIG1       -0.4481
     20 C          -2.0441    5.4673    0.5654 C.3     1  LIG1       -0.0357
     21 H          -2.1221    4.4104    0.3122 H       1  LIG1        0.0279
     22 H          -2.7010    6.0345   -0.1043 H       1  LIG1        0.0279
     23 H          -2.4377    5.5961    1.5817 H       1  LIG1        0.0279
     24 C          -1.1332    8.4800    0.8605 C.3     1  LIG1       -0.0357
     25 H          -1.8107    8.2498    1.6906 H       1  LIG1        0.0279
     26 H          -1.7621    8.7116   -0.0087 H       1  LIG1        0.0279
     27 H          -0.5734    9.3809    1.1123 H       1  LIG1        0.0279
     28 C           2.1431    8.3795    0.4119 C.ar    1  LIG1        0.1741
     29 C           3.5096    8.3944    0.5836 C.ar    1  LIG1        0.0020
     30 C           3.9204    9.7649    0.4644 C.ar    1  LIG1        0.0020
     31 C           2.7758   10.4969    0.2402 C.ar    1  LIG1        0.1741
     32 O           1.6871    9.6597    0.2047 O.2     1  LIG1       -0.4481
     33 C           4.4238    7.2394    0.8606 C.3     1  LIG1       -0.0357
     34 H           5.1013    7.4697    1.6907 H       1  LIG1        0.0279
     35 H           5.0527    7.0077   -0.0086 H       1  LIG1        0.0279
     36 H           3.8639    6.3386    1.1125 H       1  LIG1        0.0279
     37 C           5.3347   10.2520    0.5652 C.3     1  LIG1       -0.0357
     38 H           5.4127   11.3089    0.3119 H       1  LIG1        0.0279
     39 H           5.9915    9.6848   -0.1045 H       1  LIG1        0.0279
     40 H           5.7283   10.1233    1.5815 H       1  LIG1        0.0279
     41 C           2.5067   11.8994    0.0404 C.ar    1  LIG1        0.1731
     42 C           1.4342   12.6040   -0.4602 C.ar    1  LIG1        0.0013
     43 C           1.8031   13.9965   -0.3841 C.ar    1  LIG1       -0.0091
     44 C           3.0577   14.0274    0.1426 C.ar    1  LIG1        0.0959
     45 O           3.5056   12.7676    0.4124 O.2     1  LIG1       -0.4593
     46 H           3.7395   14.8300    0.3784 H       1  LIG1        0.1032
     47 C           0.1410   12.0781   -1.0060 C.3     1  LIG1       -0.0358
     48 H           0.1857   11.0020   -1.1740 H       1  LIG1        0.0279
     49 H          -0.1069   12.5655   -1.9560 H       1  LIG1        0.0279
     50 H          -0.6946   12.2729   -0.3213 H       1  LIG1        0.0279
     51 C           0.9685   15.1653   -0.8114 C.3     1  LIG1       -0.0365
     52 H           0.0299   15.2177   -0.2474 H       1  LIG1        0.0279
     53 H           0.7008   15.1018   -1.8727 H       1  LIG1        0.0279
     54 H           1.5011   16.1082   -0.6594 H       1  LIG1        0.0279
@<TRIPOS>BOND
     1    13    11    1
     2    49    47    1
     3    53    51    1
     4     9     7    1
     5    12    11    1
     6    48    47    1
     7    11     3    1
     8    11    14    1
     9    47    42    1
    10    47    50    1
    11    51    54    1
    12    51    43    1
    13    51    52    1
    14     7    10    1
    15     7     2    1
    16     7     8    1
    17    42    43   ar
    18    42    41   ar
    19     3     2   ar
    20     3     4   ar
    21    43    44   ar
    22     2     1   ar
    23    39    37    1
    24    22    20    1
    25    26    24    1
    26    35    33    1
    27    41    31    1
    28    41    45   ar
    29     4    15    1
    30     4     5   ar
    31    44    46    1
    32    44    45   ar
    33     1     6    1
    34     1     5   ar
    35    32    31   ar
    36    32    28   ar
    37    19    15   ar
    38    19    18   ar
    39    31    30   ar
    40    15    16   ar
    41    38    37    1
    42    21    20    1
    43    28    18    1
    44    28    29   ar
    45    18    17   ar
    46    30    37    1
    47    30    29   ar
    48    16    20    1
    49    16    17   ar
    50    37    40    1
    51    20    23    1
    52    29    33    1
    53    17    24    1
    54    24    27    1
    55    24    25    1
    56    33    36    1
    57    33    34    1
