@<TRIPOS>MOLECULE
mol_data/opt/b3lyp/geoms/mol2/12il12il12il12il-.out
 58 61 0 0 0
SMALL
GASTEIGER

@<TRIPOS>ATOM
      1 C           0.7766    1.7036    1.8473 C.ar    1  LIG1        0.0993
      2 C           1.9374    1.5801    1.1434 C.ar    1  LIG1        0.0297
      3 C           2.1549    2.8766    0.5654 C.ar    1  LIG1        0.1716
      4 C           1.1229    3.6955    0.9694 C.ar    1  LIG1        0.2116
      5 O           0.2673    2.9644    1.7554 O.2     1  LIG1       -0.4557
      6 H           0.2018    1.0089    2.4406 H       1  LIG1        0.1033
      7 C           2.8135    0.3767    0.9843 C.3     1  LIG1       -0.0332
      8 H           3.8253    0.5726    1.3546 H       1  LIG1        0.0280
      9 H           2.9092    0.0863   -0.0677 H       1  LIG1        0.0280
     10 H           2.4111   -0.4789    1.5332 H       1  LIG1        0.0280
     11 O           3.2189    3.1949   -0.2362 O.3     1  LIG1       -0.4909
     12 C           2.8894    3.3660   -1.6187 C.3     1  LIG1        0.0790
     13 H           3.8298    3.5641   -2.1370 H       1  LIG1        0.0660
     14 H           2.4295    2.4596   -2.0312 H       1  LIG1        0.0660
     15 H           2.2063    4.2106   -1.7645 H       1  LIG1        0.0660
     16 C           0.8190    5.0860    0.7529 C.ar    1  LIG1        0.1809
     17 C           1.6115    6.1979    0.5743 C.ar    1  LIG1        0.0410
     18 C           0.6954    7.2850    0.4136 C.ar    1  LIG1        0.1723
     19 C          -0.5862    6.7884    0.5292 C.ar    1  LIG1        0.2127
     20 O          -0.5088    5.4351    0.7294 O.2     1  LIG1       -0.4444
     21 C           3.1041    6.3093    0.6041 C.3     1  LIG1       -0.0325
     22 H           3.3928    7.2953    0.9793 H       1  LIG1        0.0280
     23 H           3.5505    6.1912   -0.3905 H       1  LIG1        0.0280
     24 H           3.5451    5.5422    1.2442 H       1  LIG1        0.0280
     25 O           1.0557    8.5947    0.2337 O.3     1  LIG1       -0.4909
     26 C           1.2366    8.9700   -1.1357 C.3     1  LIG1        0.0790
     27 H           1.5247   10.0230   -1.1330 H       1  LIG1        0.0660
     28 H           2.0292    8.3779   -1.6092 H       1  LIG1        0.0660
     29 H           0.3075    8.8449   -1.7042 H       1  LIG1        0.0660
     30 C          -1.9044    7.3648    0.4781 C.ar    1  LIG1        0.1809
     31 C          -2.4261    8.6186    0.7101 C.ar    1  LIG1        0.0410
     32 C          -3.8329    8.4933    0.4769 C.ar    1  LIG1        0.1723
     33 C          -4.0908    7.1819    0.1302 C.ar    1  LIG1        0.2126
     34 O          -2.9091    6.4949    0.1191 O.2     1  LIG1       -0.4444
     35 C          -1.7514    9.8688    1.1832 C.3     1  LIG1       -0.0325
     36 H          -2.2437   10.2457    2.0858 H       1  LIG1        0.0280
     37 H          -1.8201   10.6643    0.4314 H       1  LIG1        0.0280
     38 H          -0.6958    9.6994    1.3936 H       1  LIG1        0.0280
     39 O          -4.7270    9.5056    0.6755 O.3     1  LIG1       -0.4909
     40 C          -5.2101   10.1349   -0.5153 C.3     1  LIG1        0.0790
     41 H          -5.8539   10.9539   -0.1879 H       1  LIG1        0.0660
     42 H          -4.3839   10.5405   -1.1129 H       1  LIG1        0.0660
     43 H          -5.7919    9.4342   -1.1219 H       1  LIG1        0.0660
     44 C          -5.2847    6.4418   -0.1750 C.ar    1  LIG1        0.1799
     45 C          -5.5426    5.1042   -0.3759 C.ar    1  LIG1        0.0402
     46 C          -6.9526    5.0387   -0.6383 C.ar    1  LIG1        0.1612
     47 C          -7.4535    6.3089   -0.5813 C.ar    1  LIG1        0.1345
     48 O          -6.4333    7.1812   -0.2973 O.2     1  LIG1       -0.4557
     49 H          -8.4315    6.7424   -0.7003 H       1  LIG1        0.1068
     50 C          -4.6237    3.9222   -0.3339 C.3     1  LIG1       -0.0325
     51 H          -3.6305    4.1973    0.0198 H       1  LIG1        0.0280
     52 H          -4.5204    3.4705   -1.3280 H       1  LIG1        0.0280
     53 H          -5.0299    3.1461    0.3238 H       1  LIG1        0.0280
     54 O          -7.5776    3.8592   -0.8832 O.3     1  LIG1       -0.4917
     55 C          -8.9766    3.9531   -1.1080 C.3     1  LIG1        0.0789
     56 H          -9.3349    2.9381   -1.2839 H       1  LIG1        0.0660
     57 H          -9.4899    4.3767   -0.2344 H       1  LIG1        0.0660
     58 H          -9.1950    4.5755   -1.9864 H       1  LIG1        0.0660
@<TRIPOS>BOND
     1    13    12    1
     2    14    12    1
     3    58    55    1
     4    15    12    1
     5    29    26    1
     6    12    11    1
     7    28    26    1
     8    52    50    1
     9    56    55    1
    10    26    27    1
    11    26    25    1
    12    43    40    1
    13    42    40    1
    14    55    54    1
    15    55    57    1
    16    54    46    1
    17    49    47    1
    18    46    47   ar
    19    46    45   ar
    20    47    48   ar
    21    40    41    1
    22    40    39    1
    23    23    21    1
    24    45    50    1
    25    45    44   ar
    26    50    51    1
    27    50    53    1
    28    48    44   ar
    29    11     3    1
    30    44    33    1
    31     9     7    1
    32    34    33   ar
    33    34    30   ar
    34    33    32   ar
    35    25    18    1
    36    18    19   ar
    37    18    17   ar
    38    37    35    1
    39    32    39    1
    40    32    31   ar
    41    30    19    1
    42    30    31   ar
    43    19    20   ar
    44     3     4   ar
    45     3     2   ar
    46    17    21    1
    47    17    16   ar
    48    21    22    1
    49    21    24    1
    50    31    35    1
    51    20    16   ar
    52    16     4    1
    53     4     5   ar
    54     7     2    1
    55     7     8    1
    56     7    10    1
    57     2     1   ar
    58    35    38    1
    59    35    36    1
    60     5     1   ar
    61     1     6    1
