@<TRIPOS>MOLECULE
mol_data/opt/b3lyp/geoms/mol2/12il13dd-4dd-12fi-.out
 49 52 0 0 0
SMALL
GASTEIGER

@<TRIPOS>ATOM
      1 C           0.1836    1.6879   -0.5654 C.ar    1  LIG1        0.0992
      2 C           1.5373    1.6247   -0.7078 C.ar    1  LIG1        0.0297
      3 C           2.0001    2.9691   -0.4676 C.ar    1  LIG1        0.1700
      4 C           0.8938    3.7389   -0.1835 C.ar    1  LIG1        0.1938
      5 O          -0.2325    2.9493   -0.2546 O.2     1  LIG1       -0.4574
      6 H          -0.5956    0.9466   -0.6567 H       1  LIG1        0.1033
      7 C           2.3595    0.4321   -1.0910 C.3     1  LIG1       -0.0332
      8 H           2.9324    0.0399   -0.2433 H       1  LIG1        0.0280
      9 H           3.0742    0.6908   -1.8787 H       1  LIG1        0.0280
     10 H           1.7246   -0.3763   -1.4629 H       1  LIG1        0.0280
     11 O           3.2538    3.4576   -0.6173 O.3     1  LIG1       -0.4910
     12 C           4.2580    2.9573    0.2798 C.3     1  LIG1        0.0790
     13 H           5.1584    3.5318    0.0668 H       1  LIG1        0.0660
     14 H           3.9665    3.1265    1.3206 H       1  LIG1        0.0660
     15 H           4.4477    1.8918    0.1119 H       1  LIG1        0.0660
     16 C           0.6620    5.1315    0.0839 C.ar    1  LIG1        0.1051
     17 C           1.4912    6.1882    0.4746 C.ar    1  LIG1        0.0980
     18 C           0.6672    7.3659    0.5569 C.ar    1  LIG1        0.0950
     19 C          -0.6337    6.9975    0.2251 C.ar    1  LIG1        0.0671
     20 N          -0.6047    5.6484   -0.0385 N.ar    1  LIG1       -0.3496
     21 H          -1.3894    5.1076   -0.3717 H       1  LIG1        0.1661
     22 N           3.9795    6.1032    1.1529 N.1     1  LIG1       -0.1908
     23 C           2.8623    6.1269    0.8255 C.1     1  LIG1        0.1027
     24 N           1.4188    9.6847    1.4095 N.1     1  LIG1       -0.1908
     25 C           1.0839    8.6435    1.0124 C.1     1  LIG1        0.1026
     26 C          -2.0383    8.9870   -0.4772 C.ar    1  LIG1        0.0616
     27 C          -3.2471    9.6817   -0.4383 C.ar    1  LIG1       -0.0317
     28 C          -1.8891    7.7531    0.2073 C.ar    1  LIG1        0.0182
     29 C          -4.3743    9.1909    0.2502 C.ar    1  LIG1        0.0395
     30 H          -3.3222   10.6204   -0.9709 H       1  LIG1        0.0638
     31 C          -3.0088    7.2536    0.8748 C.ar    1  LIG1       -0.0333
     32 C          -4.2355    7.9341    0.9044 C.ar    1  LIG1        0.0632
     33 H          -2.9301    6.3191    1.4202 H       1  LIG1        0.0637
     34 N          -0.1749    9.9668   -1.9973 N.1     1  LIG1       -0.1908
     35 C          -0.9859    9.5231   -1.2920 C.1     1  LIG1        0.0998
     36 N          -6.0759    6.6740    2.2301 N.1     1  LIG1       -0.1908
     37 C          -5.2898    7.2857    1.6289 C.1     1  LIG1        0.0999
     38 C          -5.5891    9.9699    0.2493 C.ar    1  LIG1        0.1775
     39 C          -5.9313   11.1906   -0.3056 C.ar    1  LIG1        0.1656
     40 C          -7.2935   11.4685    0.0355 C.ar    1  LIG1        0.0294
     41 C          -7.6887   10.3925    0.7777 C.ar    1  LIG1        0.0991
     42 O          -6.6921    9.4900    0.9165 O.2     1  LIG1       -0.4588
     43 H          -8.6226   10.1420    1.2575 H       1  LIG1        0.1033
     44 O          -5.0991   11.9676   -1.0444 O.3     1  LIG1       -0.5030
     45 H          -5.5548   12.7812   -1.2972 H       1  LIG1        0.2923
     46 C          -8.0820   12.6827   -0.3508 C.3     1  LIG1       -0.0332
     47 H          -9.1007   12.6253    0.0397 H       1  LIG1        0.0280
     48 H          -8.1569   12.7900   -1.4400 H       1  LIG1        0.0280
     49 H          -7.6341   13.6025    0.0454 H       1  LIG1        0.0280
@<TRIPOS>BOND
     1    34    35    3
     2     9     7    1
     3    10     7    1
     4    48    46    1
     5    45    44    1
     6    35    26    1
     7     7     2    1
     8     7     8    1
     9    44    39    1
    10    30    27    1
    11     2     1   ar
    12     2     3   ar
    13     6     1    1
    14    11     3    1
    15    11    12    1
    16     1     5   ar
    17    26    27   ar
    18    26    28   ar
    19     3     4   ar
    20    27    29   ar
    21    21    20    1
    22    46    40    1
    23    46    47    1
    24    46    49    1
    25    39    40   ar
    26    39    38   ar
    27     5     4   ar
    28     4    16    1
    29    20    16   ar
    30    20    19   ar
    31    40    41   ar
    32    13    12    1
    33    16    17   ar
    34    15    12    1
    35    28    19    1
    36    28    31   ar
    37    19    18   ar
    38    38    29    1
    39    38    42   ar
    40    29    32   ar
    41    12    14    1
    42    17    18   ar
    43    17    23    1
    44    18    25    1
    45    41    42   ar
    46    41    43    1
    47    23    22    3
    48    31    32   ar
    49    31    33    1
    50    32    37    1
    51    25    24    3
    52    37    36    3
