@<TRIPOS>MOLECULE
mol_data/opt/b3lyp/geoms/mol2/12il12il-12il-12il.out
 58 61 0 0 0
SMALL
GASTEIGER

@<TRIPOS>ATOM
      1 C          -0.1669    1.7158   -0.0774 C.ar    1  LIG1        0.0993
      2 C           1.1582    1.5626   -0.3523 C.ar    1  LIG1        0.0297
      3 C           1.6769    2.8981   -0.4652 C.ar    1  LIG1        0.1716
      4 C           0.6271    3.7684   -0.2452 C.ar    1  LIG1        0.2116
      5 O          -0.5112    3.0365   -0.0130 O.2     1  LIG1       -0.4557
      6 H          -0.9701    1.0149    0.0899 H       1  LIG1        0.1033
      7 C           1.9429    0.2966   -0.4998 C.3     1  LIG1       -0.0332
      8 H           2.7710    0.2622    0.2157 H       1  LIG1        0.0280
      9 H           2.3819    0.2120   -1.4999 H       1  LIG1        0.0280
     10 H           1.3122   -0.5809   -0.3339 H       1  LIG1        0.0280
     11 O           2.9917    3.1809   -0.6950 O.3     1  LIG1       -0.4909
     12 C           3.2896    3.7254   -1.9873 C.3     1  LIG1        0.0790
     13 H           4.3773    3.8007   -2.0407 H       1  LIG1        0.0660
     14 H           2.9301    3.0636   -2.7848 H       1  LIG1        0.0660
     15 H           2.8517    4.7202   -2.1075 H       1  LIG1        0.0660
     16 C           0.5019    5.1957   -0.1816 C.ar    1  LIG1        0.1809
     17 C          -0.5697    6.0405    0.0147 C.ar    1  LIG1        0.0410
     18 C          -0.0120    7.3564   -0.0098 C.ar    1  LIG1        0.1723
     19 C           1.3456    7.2491   -0.2333 C.ar    1  LIG1        0.2127
     20 O           1.6584    5.9150   -0.3302 O.2     1  LIG1       -0.4444
     21 C          -2.0162    5.7100    0.2213 C.3     1  LIG1       -0.0325
     22 H          -2.1865    5.2119    1.1820 H       1  LIG1        0.0280
     23 H          -2.3902    5.0382   -0.5566 H       1  LIG1        0.0280
     24 H          -2.6073    6.6287    0.2010 H       1  LIG1        0.0280
     25 O          -0.7428    8.5041    0.1475 O.3     1  LIG1       -0.4909
     26 C          -0.6064    9.1178    1.4356 C.3     1  LIG1        0.0790
     27 H          -1.2609    9.9915    1.4311 H       1  LIG1        0.0660
     28 H          -0.9167    8.4310    2.2319 H       1  LIG1        0.0660
     29 H           0.4268    9.4351    1.6161 H       1  LIG1        0.0660
     30 C           2.4357    8.1762   -0.3726 C.ar    1  LIG1        0.1809
     31 C           2.5496    9.4858   -0.7860 C.ar    1  LIG1        0.0410
     32 C           3.9447    9.7937   -0.6953 C.ar    1  LIG1        0.1723
     33 C           4.6005    8.6622   -0.2496 C.ar    1  LIG1        0.2126
     34 O           3.6743    7.6776   -0.0387 O.2     1  LIG1       -0.4444
     35 C           1.5014   10.4150   -1.3157 C.3     1  LIG1       -0.0325
     36 H           1.5054   11.3644   -0.7686 H       1  LIG1        0.0280
     37 H           0.5045    9.9792   -1.2404 H       1  LIG1        0.0280
     38 H           1.7003   10.6581   -2.3654 H       1  LIG1        0.0280
     39 O           4.4759   10.9889   -1.0847 O.3     1  LIG1       -0.4909
     40 C           4.9408   11.8309   -0.0251 C.3     1  LIG1        0.0790
     41 H           5.2521   12.7664   -0.4943 H       1  LIG1        0.0660
     42 H           4.1403   12.0361    0.6969 H       1  LIG1        0.0660
     43 H           5.7943   11.3821    0.4916 H       1  LIG1        0.0660
     44 C           5.9728    8.3157   -0.0070 C.ar    1  LIG1        0.1799
     45 C           6.5947    7.1537    0.3959 C.ar    1  LIG1        0.0402
     46 C           7.9962    7.4793    0.4199 C.ar    1  LIG1        0.1612
     47 C           8.1296    8.7830    0.0439 C.ar    1  LIG1        0.1345
     48 O           6.8985    9.3081   -0.2243 O.2     1  LIG1       -0.4557
     49 H           8.9781    9.4314   -0.1001 H       1  LIG1        0.1068
     50 C           6.0079    5.8145    0.7258 C.3     1  LIG1       -0.0325
     51 H           5.7754    5.7254    1.7949 H       1  LIG1        0.0280
     52 H           6.7263    5.0260    0.4816 H       1  LIG1        0.0280
     53 H           5.0797    5.6271    0.1843 H       1  LIG1        0.0280
     54 O           9.0205    6.6166    0.7019 O.3     1  LIG1       -0.4917
     55 C           9.2164    6.3681    2.0950 C.3     1  LIG1        0.0789
     56 H          10.0541    5.6720    2.1705 H       1  LIG1        0.0660
     57 H           9.4612    7.2943    2.6301 H       1  LIG1        0.0660
     58 H           8.3298    5.9160    2.5562 H       1  LIG1        0.0660
@<TRIPOS>BOND
     1    14    12    1
     2    38    35    1
     3    15    12    1
     4    13    12    1
     5    12    11    1
     6     9     7    1
     7    35    37    1
     8    35    31    1
     9    35    36    1
    10    39    32    1
    11    39    40    1
    12    31    32   ar
    13    31    30   ar
    14    32    33   ar
    15    11     3    1
    16    23    21    1
    17     7     2    1
    18     7    10    1
    19     7     8    1
    20    41    40    1
    21     3     2   ar
    22     3     4   ar
    23    30    19    1
    24    30    34   ar
    25     2     1   ar
    26    20    19   ar
    27    20    16   ar
    28    33    34   ar
    29    33    44    1
    30     4    16    1
    31     4     5   ar
    32    19    18   ar
    33    48    44   ar
    34    48    47   ar
    35    16    17   ar
    36    49    47    1
    37     1     5   ar
    38     1     6    1
    39    40    43    1
    40    40    42    1
    41    18    17   ar
    42    18    25    1
    43    44    45   ar
    44    17    21    1
    45    47    46   ar
    46    25    26    1
    47    53    50    1
    48    24    21    1
    49    21    22    1
    50    45    46   ar
    51    45    50    1
    52    46    54    1
    53    52    50    1
    54    54    55    1
    55    50    51    1
    56    27    26    1
    57    26    29    1
    58    26    28    1
    59    55    56    1
    60    55    58    1
    61    55    57    1
