@<TRIPOS>MOLECULE
mol_data/opt/b3lyp/geoms/mol2/12il12il.out
 30 31 0 0 0
SMALL
GASTEIGER

@<TRIPOS>ATOM
      1 C           0.0700    1.6055    0.3705 C.ar    1  LIG1        0.0993
      2 C           1.4280    1.4996    0.4091 C.ar    1  LIG1        0.0297
      3 C           1.9061    2.8405    0.2156 C.ar    1  LIG1        0.1716
      4 C           0.8089    3.6636    0.0903 C.ar    1  LIG1        0.2116
      5 O          -0.3262    2.8947    0.1768 O.2     1  LIG1       -0.4557
      6 H          -0.7241    0.8791    0.4544 H       1  LIG1        0.1033
      7 C           2.2684    0.2759    0.6011 C.3     1  LIG1       -0.0332
      8 H           2.8857    0.3560    1.5022 H       1  LIG1        0.0280
      9 H           2.9521    0.1248   -0.2413 H       1  LIG1        0.0280
     10 H           1.6462   -0.6182    0.6951 H       1  LIG1        0.0280
     11 O           3.2332    3.1750    0.1817 O.3     1  LIG1       -0.4909
     12 C           3.6971    3.6744   -1.0767 C.3     1  LIG1        0.0790
     13 H           4.7726    3.8278   -0.9676 H       1  LIG1        0.0660
     14 H           3.5107    2.9515   -1.8801 H       1  LIG1        0.0660
     15 H           3.2168    4.6252   -1.3330 H       1  LIG1        0.0660
     16 C           0.6465    5.0880   -0.0680 C.ar    1  LIG1        0.1799
     17 C           1.3595    6.1625    0.4103 C.ar    1  LIG1        0.0402
     18 C           0.6701    7.3197   -0.0984 C.ar    1  LIG1        0.1612
     19 C          -0.3969    6.8766   -0.8229 C.ar    1  LIG1        0.1345
     20 O          -0.4251    5.5149   -0.8157 O.2     1  LIG1       -0.4557
     21 H          -1.1946    7.3795   -1.3452 H       1  LIG1        0.1068
     22 C           2.5345    6.1662    1.3384 C.3     1  LIG1       -0.0325
     23 H           2.4722    7.0238    2.0155 H       1  LIG1        0.0280
     24 H           3.4897    6.2396    0.8036 H       1  LIG1        0.0280
     25 H           2.5703    5.2502    1.9320 H       1  LIG1        0.0280
     26 O           0.9675    8.6276    0.1737 O.3     1  LIG1       -0.4917
     27 C           2.0883    9.1422   -0.5459 C.3     1  LIG1        0.0789
     28 H           2.2047   10.1826   -0.2360 H       1  LIG1        0.0660
     29 H           3.0093    8.5933   -0.3129 H       1  LIG1        0.0660
     30 H           1.9153    9.1007   -1.6288 H       1  LIG1        0.0660
@<TRIPOS>BOND
     1    14    12    1
     2    30    27    1
     3    21    19    1
     4    15    12    1
     5    12    13    1
     6    12    11    1
     7    19    20   ar
     8    19    18   ar
     9    20    16   ar
    10    27    29    1
    11    27    28    1
    12    27    26    1
    13     9     7    1
    14    18    26    1
    15    18    17   ar
    16    16     4    1
    17    16    17   ar
    18     4     5   ar
    19     4     3   ar
    20     5     1   ar
    21    11     3    1
    22     3     2   ar
    23     1     2   ar
    24     1     6    1
    25     2     7    1
    26    17    22    1
    27     7    10    1
    28     7     8    1
    29    24    22    1
    30    22    25    1
    31    22    23    1
