@<TRIPOS>MOLECULE
mol_data/opt/b3lyp/geoms/mol2/12il12il-12il12il.out
 58 61 0 0 0
SMALL
GASTEIGER

@<TRIPOS>ATOM
      1 C          -0.0432    1.6231    0.1740 C.ar    1  LIG1        0.0993
      2 C           1.3124    1.5093    0.2430 C.ar    1  LIG1        0.0297
      3 C           1.8062    2.8562    0.1604 C.ar    1  LIG1        0.1716
      4 C           0.7140    3.6922    0.0471 C.ar    1  LIG1        0.2116
      5 O          -0.4268    2.9305    0.0608 O.2     1  LIG1       -0.4557
      6 H          -0.8450    0.9011    0.1905 H       1  LIG1        0.1033
      7 C           2.1410    0.2680    0.3593 C.3     1  LIG1       -0.0332
      8 H           2.7134    0.2528    1.2936 H       1  LIG1        0.0280
      9 H           2.8644    0.2016   -0.4597 H       1  LIG1        0.0280
     10 H           1.5153   -0.6282    0.3354 H       1  LIG1        0.0280
     11 O           3.1303    3.1951    0.1458 O.3     1  LIG1       -0.4909
     12 C           3.6345    3.6884    1.3925 C.3     1  LIG1        0.0790
     13 H           4.7045    3.8504    1.2480 H       1  LIG1        0.0660
     14 H           3.1566    4.6355    1.6627 H       1  LIG1        0.0660
     15 H           3.4821    2.9588    2.1976 H       1  LIG1        0.0660
     16 C           0.5508    5.1087   -0.1002 C.ar    1  LIG1        0.1809
     17 C          -0.5519    5.9243   -0.2294 C.ar    1  LIG1        0.0410
     18 C          -0.0287    7.2499   -0.3537 C.ar    1  LIG1        0.1723
     19 C           1.3508    7.1704   -0.2934 C.ar    1  LIG1        0.2127
     20 O           1.7030    5.8545   -0.1265 O.2     1  LIG1       -0.4444
     21 C          -2.0043    5.5603   -0.2656 C.3     1  LIG1       -0.0325
     22 H          -2.3551    5.1904    0.7043 H       1  LIG1        0.0280
     23 H          -2.2041    4.7741   -0.9989 H       1  LIG1        0.0280
     24 H          -2.5922    6.4422   -0.5307 H       1  LIG1        0.0280
     25 O          -0.7997    8.3505   -0.5807 O.3     1  LIG1       -0.4909
     26 C          -0.9869    9.2192    0.5437 C.3     1  LIG1        0.0790
     27 H          -1.6831    9.9929    0.2145 H       1  LIG1        0.0660
     28 H          -1.4207    8.6761    1.3924 H       1  LIG1        0.0660
     29 H          -0.0431    9.6832    0.8424 H       1  LIG1        0.0660
     30 C           2.4171    8.1214   -0.4115 C.ar    1  LIG1        0.1809
     31 C           3.7780    8.0030   -0.6054 C.ar    1  LIG1        0.0410
     32 C           4.2603    9.3475   -0.6684 C.ar    1  LIG1        0.1723
     33 C           3.1924   10.2013   -0.4955 C.ar    1  LIG1        0.2126
     34 O           2.0562    9.4432   -0.3465 O.2     1  LIG1       -0.4444
     35 C           4.6238    6.7759   -0.7542 C.3     1  LIG1       -0.0325
     36 H           5.1840    6.5695    0.1664 H       1  LIG1        0.0280
     37 H           5.3650    6.9178   -1.5467 H       1  LIG1        0.0280
     38 H           4.0233    5.8951   -0.9829 H       1  LIG1        0.0280
     39 O           5.5760    9.6672   -0.8706 O.3     1  LIG1       -0.4909
     40 C           5.8518   10.3117   -2.1221 C.3     1  LIG1        0.0790
     41 H           6.9361   10.4269   -2.1733 H       1  LIG1        0.0660
     42 H           5.5076    9.6962   -2.9610 H       1  LIG1        0.0660
     43 H           5.3769   11.2969   -2.1785 H       1  LIG1        0.0660
     44 C           3.0456   11.6332   -0.4229 C.ar    1  LIG1        0.1799
     45 C           3.8582   12.6441    0.0398 C.ar    1  LIG1        0.0402
     46 C           3.1152   13.8536   -0.1969 C.ar    1  LIG1        0.1612
     47 C           1.9218   13.5022   -0.7560 C.ar    1  LIG1        0.1345
     48 O           1.8647   12.1502   -0.9055 O.2     1  LIG1       -0.4557
     49 H           1.0704   14.0675   -1.0994 H       1  LIG1        0.1068
     50 C           5.2014   12.5568    0.6987 C.3     1  LIG1       -0.0325
     51 H           5.1143   12.6241    1.7908 H       1  LIG1        0.0280
     52 H           5.8368   13.3876    0.3752 H       1  LIG1        0.0280
     53 H           5.7056   11.6171    0.4663 H       1  LIG1        0.0280
     54 O           3.5508   15.1285    0.0466 O.3     1  LIG1       -0.4917
     55 C           3.3942   15.5596    1.3995 C.3     1  LIG1        0.0789
     56 H           3.7730   16.5826    1.4449 H       1  LIG1        0.0660
     57 H           2.3385   15.5471    1.6985 H       1  LIG1        0.0660
     58 H           3.9662   14.9328    2.0949 H       1  LIG1        0.0660
@<TRIPOS>BOND
     1    42    40    1
     2    43    40    1
     3    41    40    1
     4    40    39    1
     5    37    35    1
     6    49    47    1
     7    23    21    1
     8    38    35    1
     9    48    47   ar
    10    48    44   ar
    11    39    32    1
    12    47    46   ar
    13    35    31    1
    14    35    36    1
    15    32    31   ar
    16    32    33   ar
    17    31    30   ar
    18    25    18    1
    19    25    26    1
    20    24    21    1
    21    33    44    1
    22    33    34   ar
    23     9     7    1
    24    44    45   ar
    25    30    34   ar
    26    30    19    1
    27    18    19   ar
    28    18    17   ar
    29    19    20   ar
    30    21    17    1
    31    21    22    1
    32    17    16   ar
    33    46    45   ar
    34    46    54    1
    35    20    16   ar
    36    16     4    1
    37    45    50    1
    38    54    55    1
    39     4     5   ar
    40     4     3   ar
    41     5     1   ar
    42    11     3    1
    43    11    12    1
    44     3     2   ar
    45     1     6    1
    46     1     2   ar
    47    27    26    1
    48     2     7    1
    49    10     7    1
    50     7     8    1
    51    52    50    1
    52    53    50    1
    53    26    29    1
    54    26    28    1
    55    50    51    1
    56    13    12    1
    57    12    14    1
    58    12    15    1
    59    55    56    1
    60    55    57    1
    61    55    58    1
