@<TRIPOS>MOLECULE
mol_data/opt/b3lyp/geoms/mol2/12il12il-12il-12il-.out
 58 61 0 0 0
SMALL
GASTEIGER

@<TRIPOS>ATOM
      1 C           0.0820    1.6968   -0.3157 C.ar    1  LIG1        0.0993
      2 C           1.3780    1.5135    0.0512 C.ar    1  LIG1        0.0297
      3 C           1.8798    2.8279    0.3536 C.ar    1  LIG1        0.1716
      4 C           0.8484    3.7265    0.1300 C.ar    1  LIG1        0.2116
      5 O          -0.2648    3.0114   -0.2744 O.2     1  LIG1       -0.4557
      6 H          -0.6992    1.0133   -0.6119 H       1  LIG1        0.1033
      7 C           2.1582    0.2413    0.1539 C.3     1  LIG1       -0.0332
      8 H           2.5812    0.1206    1.1568 H       1  LIG1        0.0280
      9 H           2.9987    0.2331   -0.5485 H       1  LIG1        0.0280
     10 H           1.5282   -0.6264   -0.0595 H       1  LIG1        0.0280
     11 O           3.1612    2.9627    0.7685 O.3     1  LIG1       -0.4909
     12 C           3.5217    4.0488    1.6268 C.3     1  LIG1        0.0790
     13 H           4.4578    3.7501    2.1028 H       1  LIG1        0.0660
     14 H           3.6673    4.9717    1.0633 H       1  LIG1        0.0660
     15 H           2.7559    4.2082    2.3947 H       1  LIG1        0.0660
     16 C           0.6617    5.1524    0.1609 C.ar    1  LIG1        0.1809
     17 C          -0.4708    5.9388    0.1605 C.ar    1  LIG1        0.0410
     18 C           0.0111    7.2854    0.1469 C.ar    1  LIG1        0.1723
     19 C           1.3898    7.2553    0.1620 C.ar    1  LIG1        0.2127
     20 O           1.7825    5.9388    0.1552 O.2     1  LIG1       -0.4444
     21 C          -1.9123    5.5324    0.1946 C.3     1  LIG1       -0.0325
     22 H          -2.2951    5.2925   -0.8047 H       1  LIG1        0.0280
     23 H          -2.5168    6.3492    0.5990 H       1  LIG1        0.0280
     24 H          -2.0618    4.6450    0.8137 H       1  LIG1        0.0280
     25 O          -0.7850    8.4006    0.1588 O.3     1  LIG1       -0.4909
     26 C          -1.2378    8.8091   -1.1376 C.3     1  LIG1        0.0790
     27 H          -1.8618    9.6914   -0.9831 H       1  LIG1        0.0660
     28 H          -0.3922    9.0651   -1.7866 H       1  LIG1        0.0660
     29 H          -1.8318    8.0223   -1.6170 H       1  LIG1        0.0660
     30 C           2.4469    8.2325    0.1994 C.ar    1  LIG1        0.1809
     31 C           2.5320    9.5638    0.5508 C.ar    1  LIG1        0.0410
     32 C           3.9015    9.9173    0.3386 C.ar    1  LIG1        0.1723
     33 C           4.5775    8.7963   -0.0913 C.ar    1  LIG1        0.2126
     34 O           3.6794    7.7648   -0.1910 O.2     1  LIG1       -0.4444
     35 C           1.4904   10.4938    1.0920 C.3     1  LIG1       -0.0325
     36 H           0.5058   10.0274    1.1042 H       1  LIG1        0.0280
     37 H           1.4351   11.4089    0.4914 H       1  LIG1        0.0280
     38 H           1.7455   10.8046    2.1116 H       1  LIG1        0.0280
     39 O           4.3977   11.1702    0.5815 O.3     1  LIG1       -0.4909
     40 C           4.8591   11.8705   -0.5797 C.3     1  LIG1        0.0790
     41 H           5.1665   12.8607   -0.2379 H       1  LIG1        0.0660
     42 H           5.7128   11.3629   -1.0414 H       1  LIG1        0.0660
     43 H           4.0565   11.9711   -1.3200 H       1  LIG1        0.0660
     44 C           5.9522    8.5079   -0.4195 C.ar    1  LIG1        0.1799
     45 C           7.1531    8.9975    0.0422 C.ar    1  LIG1        0.0402
     46 C           8.1529    8.2878   -0.7047 C.ar    1  LIG1        0.1612
     47 C           7.5110    7.4199   -1.5435 C.ar    1  LIG1        0.1345
     48 O           6.1583    7.5499   -1.3795 O.2     1  LIG1       -0.4557
     49 H           7.8359    6.6883   -2.2637 H       1  LIG1        0.1068
     50 C           7.4315    9.9872    1.1308 C.3     1  LIG1       -0.0325
     51 H           6.5122   10.4395    1.5048 H       1  LIG1        0.0280
     52 H           8.0892   10.7874    0.7732 H       1  LIG1        0.0280
     53 H           7.9502    9.5056    1.9680 H       1  LIG1        0.0280
     54 O           9.4788    8.5093   -0.5133 O.3     1  LIG1       -0.4917
     55 C          10.3436    7.7086   -1.3060 C.3     1  LIG1        0.0789
     56 H          11.3632    7.9942   -1.0443 H       1  LIG1        0.0660
     57 H          10.1967    6.6408   -1.0959 H       1  LIG1        0.0660
     58 H          10.1768    7.8873   -2.3768 H       1  LIG1        0.0660
@<TRIPOS>BOND
     1    58    55    1
     2    49    47    1
     3    28    26    1
     4    29    26    1
     5    47    48   ar
     6    47    46   ar
     7    48    44   ar
     8    43    40    1
     9    55    57    1
    10    55    56    1
    11    55    54    1
    12    26    27    1
    13    26    25    1
    14    42    40    1
    15    22    21    1
    16    46    54    1
    17    46    45   ar
    18     6     1    1
    19    40    41    1
    20    40    39    1
    21     9     7    1
    22    44    33    1
    23    44    45   ar
    24     1     5   ar
    25     1     2   ar
    26     5     4   ar
    27    34    33   ar
    28    34    30   ar
    29    33    32   ar
    30    10     7    1
    31    45    50    1
    32     2     7    1
    33     2     3   ar
    34     4    16    1
    35     4     3   ar
    36    18    25    1
    37    18    17   ar
    38    18    19   ar
    39     7     8    1
    40    20    16   ar
    41    20    19   ar
    42    17    16   ar
    43    17    21    1
    44    19    30    1
    45    21    23    1
    46    21    24    1
    47    30    31   ar
    48    32    31   ar
    49    32    39    1
    50     3    11    1
    51    37    35    1
    52    31    35    1
    53    11    12    1
    54    52    50    1
    55    14    12    1
    56    35    36    1
    57    35    38    1
    58    50    51    1
    59    50    53    1
    60    12    13    1
    61    12    15    1
