@<TRIPOS>MOLECULE
mol_data/opt/b3lyp/geoms/mol2/12il12il-12il.out
 44 46 0 0 0
SMALL
GASTEIGER

@<TRIPOS>ATOM
      1 C          -0.0561    1.7095   -0.1786 C.ar    1  LIG1        0.0993
      2 C           1.2972    1.5767   -0.2561 C.ar    1  LIG1        0.0297
      3 C           1.8067    2.9203   -0.2459 C.ar    1  LIG1        0.1716
      4 C           0.7256    3.7736   -0.1625 C.ar    1  LIG1        0.2116
      5 O          -0.4231    3.0252   -0.1159 O.2     1  LIG1       -0.4557
      6 H          -0.8664    0.9973   -0.1588 H       1  LIG1        0.1033
      7 C           2.1087    0.3223   -0.3538 C.3     1  LIG1       -0.0332
      8 H           2.7646    0.1986    0.5152 H       1  LIG1        0.0280
      9 H           2.7516    0.3400   -1.2398 H       1  LIG1        0.0280
     10 H           1.4660   -0.5598   -0.4161 H       1  LIG1        0.0280
     11 O           3.1296    3.2471   -0.3576 O.3     1  LIG1       -0.4909
     12 C           3.7656    3.5885    0.8788 C.3     1  LIG1        0.0790
     13 H           4.8207    3.7482    0.6472 H       1  LIG1        0.0660
     14 H           3.3421    4.5069    1.2984 H       1  LIG1        0.0660
     15 H           3.6732    2.7760    1.6103 H       1  LIG1        0.0660
     16 C           0.5754    5.1996   -0.1449 C.ar    1  LIG1        0.1809
     17 C          -0.5199    6.0330   -0.0934 C.ar    1  LIG1        0.0410
     18 C           0.0151    7.3598   -0.1297 C.ar    1  LIG1        0.1723
     19 C           1.3911    7.2632   -0.1988 C.ar    1  LIG1        0.2126
     20 O           1.7342    5.9351   -0.1967 O.2     1  LIG1       -0.4444
     21 C          -1.9763    5.6874   -0.0393 C.3     1  LIG1       -0.0325
     22 H          -2.2580    5.2617    0.9304 H       1  LIG1        0.0280
     23 H          -2.2431    4.9505   -0.8016 H       1  LIG1        0.0280
     24 H          -2.5700    6.5901   -0.2025 H       1  LIG1        0.0280
     25 O          -0.7462    8.4912   -0.1705 O.3     1  LIG1       -0.4909
     26 C          -0.8578    9.1948    1.0713 C.3     1  LIG1        0.0790
     27 H          -1.5382   10.0290    0.8887 H       1  LIG1        0.0660
     28 H          -1.2755    8.5504    1.8550 H       1  LIG1        0.0660
     29 H           0.1145    9.5810    1.3922 H       1  LIG1        0.0660
     30 C           2.4584    8.2169   -0.3124 C.ar    1  LIG1        0.1799
     31 C           3.7996    8.1074   -0.6082 C.ar    1  LIG1        0.0402
     32 C           4.2906    9.4600   -0.5879 C.ar    1  LIG1        0.1612
     33 C           3.2434   10.2800   -0.2897 C.ar    1  LIG1        0.1345
     34 O           2.1137    9.5332   -0.1192 O.2     1  LIG1       -0.4557
     35 H           3.1405   11.3487   -0.1977 H       1  LIG1        0.1068
     36 C           4.6075    6.8906   -0.9417 C.3     1  LIG1       -0.0325
     37 H           5.1493    6.5095   -0.0658 H       1  LIG1        0.0280
     38 H           5.3556    7.1374   -1.7016 H       1  LIG1        0.0280
     39 H           3.9817    6.0773   -1.3118 H       1  LIG1        0.0280
     40 O           5.5624    9.8635   -0.8925 O.3     1  LIG1       -0.4917
     41 C           6.5136    9.6622    0.1535 C.3     1  LIG1        0.0789
     42 H           7.4700   10.0316   -0.2220 H       1  LIG1        0.0660
     43 H           6.2337   10.2223    1.0547 H       1  LIG1        0.0660
     44 H           6.6150    8.6012    0.4133 H       1  LIG1        0.0660
@<TRIPOS>BOND
     1    38    36    1
     2    39    36    1
     3     9     7    1
     4    36    31    1
     5    36    37    1
     6    40    32    1
     7    40    41    1
     8    23    21    1
     9    31    32   ar
    10    31    30   ar
    11    32    33   ar
    12    10     7    1
    13    11     3    1
    14    11    12    1
    15     7     2    1
    16     7     8    1
    17    30    19    1
    18    30    34   ar
    19    33    35    1
    20    33    34   ar
    21     2     3   ar
    22     2     1   ar
    23     3     4   ar
    24    42    41    1
    25    24    21    1
    26    19    20   ar
    27    19    18   ar
    28    20    16   ar
    29     1     6    1
    30     1     5   ar
    31    25    18    1
    32    25    26    1
    33     4    16    1
    34     4     5   ar
    35    16    17   ar
    36    18    17   ar
    37    17    21    1
    38    21    22    1
    39    41    44    1
    40    41    43    1
    41    13    12    1
    42    12    14    1
    43    12    15    1
    44    27    26    1
    45    26    29    1
    46    26    28    1
