@<TRIPOS>MOLECULE
mol_data/opt/b3lyp/geoms/mol2/12il13il-6fh13el.out
 57 60 0 0 0
SMALL
GASTEIGER

@<TRIPOS>ATOM
      1 C           0.0606    1.6754   -0.9761 C.ar    1  LIG1        0.0992
      2 C           1.3874    1.4321   -0.7988 C.ar    1  LIG1        0.0297
      3 C           1.9690    2.7181   -0.5139 C.ar    1  LIG1        0.1699
      4 C           0.9613    3.6558   -0.5460 C.ar    1  LIG1        0.1928
      5 O          -0.2196    3.0061   -0.8295 O.2     1  LIG1       -0.4574
      6 H          -0.7806    1.0420   -1.2117 H       1  LIG1        0.1033
      7 C           2.1134    0.1259   -0.8963 C.3     1  LIG1       -0.0332
      8 H           2.4667   -0.2196    0.0824 H       1  LIG1        0.0280
      9 H           2.9925    0.2167   -1.5423 H       1  LIG1        0.0280
     10 H           1.4672   -0.6539   -1.3078 H       1  LIG1        0.0280
     11 O           3.3012    2.9499   -0.2935 O.3     1  LIG1       -0.4910
     12 C           3.7249    2.7234    1.0541 C.3     1  LIG1        0.0790
     13 H           4.7949    2.9384    1.0822 H       1  LIG1        0.0660
     14 H           3.1989    3.3876    1.7503 H       1  LIG1        0.0660
     15 H           3.5574    1.6833    1.3594 H       1  LIG1        0.0660
     16 C           0.8459    5.0828   -0.3615 C.ar    1  LIG1        0.0927
     17 C           1.7692    6.1285   -0.3464 C.ar    1  LIG1        0.0202
     18 C           1.0083    7.3185   -0.1814 C.ar    1  LIG1        0.1490
     19 C          -0.3472    7.0074   -0.0971 C.ar    1  LIG1        0.0947
     20 N          -0.4153    5.6242   -0.1776 N.ar    1  LIG1       -0.3484
     21 H          -1.2584    5.1107   -0.3920 H       1  LIG1        0.1661
     22 C           3.2587    6.0877   -0.5083 C.3     1  LIG1       -0.0341
     23 H           3.7764    5.9321    0.4472 H       1  LIG1        0.0279
     24 H           3.6062    7.0414   -0.9157 H       1  LIG1        0.0279
     25 H           3.5701    5.2808   -1.1728 H       1  LIG1        0.0279
     26 O           1.5353    8.5873   -0.1552 O.3     1  LIG1       -0.4927
     27 C           1.9568    9.0230    1.1403 C.3     1  LIG1        0.0789
     28 H           2.3754   10.0235    1.0126 H       1  LIG1        0.0660
     29 H           1.1109    9.0682    1.8369 H       1  LIG1        0.0660
     30 H           2.7257    8.3589    1.5534 H       1  LIG1        0.0660
     31 C          -2.7362    7.4101    0.6205 C.ar    1  LIG1        0.2225
     32 C          -1.5236    7.8580    0.0343 C.ar    1  LIG1        0.0650
     33 C          -1.5200    9.1823   -0.4101 C.ar    1  LIG1       -0.0246
     34 C          -2.6547   10.0046   -0.3265 C.ar    1  LIG1        0.0533
     35 C          -3.8405    9.4065    0.1709 C.ar    1  LIG1        0.1128
     36 N          -3.8224    8.1436    0.6600 N.ar    1  LIG1       -0.2091
     37 H          -0.6024    9.5852   -0.8270 H       1  LIG1        0.0645
     38 O          -2.8605    6.1562    1.1707 O.3     1  LIG1       -0.4919
     39 H          -1.9805    5.8555    1.4411 H       1  LIG1        0.2937
     40 N          -2.5419   11.3521   -0.6437 N.pl3   1  LIG1       -0.3563
     41 H          -1.7158   11.5779   -1.1810 H       1  LIG1        0.1424
     42 H          -3.3654   11.8127   -1.0118 H       1  LIG1        0.1424
     43 C          -5.1528   10.0498    0.3141 C.ar    1  LIG1        0.0861
     44 C          -5.8464   11.1259   -0.2801 C.ar    1  LIG1        0.0930
     45 C          -7.1465   11.1653    0.3378 C.ar    1  LIG1        0.1533
     46 C          -7.2148   10.1401    1.2536 C.ar    1  LIG1        0.0457
     47 N          -6.0121    9.4865    1.2193 N.ar    1  LIG1       -0.3554
     48 H          -5.7478    8.6339    1.6944 H       1  LIG1        0.1655
     49 H          -8.0221    9.8388    1.9021 H       1  LIG1        0.0845
     50 C          -5.4789   11.9389   -1.3776 C.1     1  LIG1       -0.0638
     51 C          -5.2041   12.6579   -2.3166 C.1     1  LIG1       -0.1137
     52 H          -4.9883   13.2487   -3.1762 H       1  LIG1        0.1232
     53 O          -8.1743   12.0100    0.0313 O.3     1  LIG1       -0.4924
     54 C          -7.9528   13.3793    0.3773 C.3     1  LIG1        0.0789
     55 H          -8.8575   13.9185    0.0886 H       1  LIG1        0.0660
     56 H          -7.7911   13.4901    1.4573 H       1  LIG1        0.0660
     57 H          -7.0953   13.7968   -0.1610 H       1  LIG1        0.0660
@<TRIPOS>BOND
     1    52    51    1
     2    51    50    3
     3     9     7    1
     4    50    44    1
     5    10     7    1
     6     6     1    1
     7    41    40    1
     8    25    22    1
     9    42    40    1
    10     1     5   ar
    11     1     2   ar
    12    24    22    1
    13     7     2    1
    14     7     8    1
    15     5     4   ar
    16    37    33    1
    17     2     3   ar
    18    40    34    1
    19     4     3   ar
    20     4    16    1
    21     3    11    1
    22    22    17    1
    23    22    23    1
    24    33    34   ar
    25    33    32   ar
    26    21    20    1
    27    16    17   ar
    28    16    20   ar
    29    17    18   ar
    30    34    35   ar
    31    11    12    1
    32    44    43   ar
    33    44    45   ar
    34    18    26    1
    35    18    19   ar
    36    20    19   ar
    37    57    54    1
    38    26    27    1
    39    19    32    1
    40    53    45    1
    41    53    54    1
    42    32    31   ar
    43    55    54    1
    44    35    43    1
    45    35    36   ar
    46    43    47   ar
    47    45    46   ar
    48    54    56    1
    49    31    36   ar
    50    31    38    1
    51    28    27    1
    52    12    13    1
    53    12    15    1
    54    12    14    1
    55    27    30    1
    56    27    29    1
    57    38    39    1
    58    47    46   ar
    59    47    48    1
    60    46    49    1
