@<TRIPOS>MOLECULE
mol_data/opt/b3lyp/geoms/mol2/12il12il-.out
 30 31 0 0 0
SMALL
GASTEIGER

@<TRIPOS>ATOM
      1 C           0.0490    1.6106    0.0551 C.ar    1  LIG1        0.0993
      2 C           1.3701    1.4959   -0.2505 C.ar    1  LIG1        0.0297
      3 C           1.8539    2.8473   -0.3407 C.ar    1  LIG1        0.1716
      4 C           0.7906    3.6869   -0.0818 C.ar    1  LIG1        0.2116
      5 O          -0.3201    2.9221    0.1684 O.2     1  LIG1       -0.4557
      6 H          -0.7359    0.8889    0.2205 H       1  LIG1        0.1033
      7 C           2.1750    0.2537   -0.4746 C.3     1  LIG1       -0.0332
      8 H           2.9687    0.1485    0.2735 H       1  LIG1        0.0280
      9 H           2.6613    0.2746   -1.4552 H       1  LIG1        0.0280
     10 H           1.5463   -0.6393   -0.4237 H       1  LIG1        0.0280
     11 O           3.1301    3.1775   -0.6967 O.3     1  LIG1       -0.4909
     12 C           3.9757    3.5965    0.3793 C.3     1  LIG1        0.0790
     13 H           4.9641    3.7592   -0.0554 H       1  LIG1        0.0660
     14 H           3.6146    4.5291    0.8232 H       1  LIG1        0.0660
     15 H           4.0440    2.8229    1.1547 H       1  LIG1        0.0660
     16 C           0.6322    5.1184   -0.0522 C.ar    1  LIG1        0.1799
     17 C          -0.4534    5.9520    0.0882 C.ar    1  LIG1        0.0402
     18 C           0.0904    7.2794    0.0175 C.ar    1  LIG1        0.1612
     19 C           1.4410    7.1740   -0.1579 C.ar    1  LIG1        0.1345
     20 O           1.7844    5.8459   -0.2011 O.2     1  LIG1       -0.4557
     21 H           2.2473    7.8782   -0.2696 H       1  LIG1        0.1068
     22 C          -1.9053    5.6332    0.2695 C.3     1  LIG1       -0.0325
     23 H          -2.0961    4.5669    0.1528 H       1  LIG1        0.0280
     24 H          -2.5128    6.1819   -0.4584 H       1  LIG1        0.0280
     25 H          -2.2536    5.9364    1.2642 H       1  LIG1        0.0280
     26 O          -0.7001    8.3783    0.1149 O.3     1  LIG1       -0.4917
     27 C          -0.0215    9.6210    0.0038 C.3     1  LIG1        0.0789
     28 H          -0.7785   10.4010    0.0939 H       1  LIG1        0.0660
     29 H           0.7218    9.7384    0.8038 H       1  LIG1        0.0660
     30 H           0.4830    9.7099   -0.9676 H       1  LIG1        0.0660
@<TRIPOS>BOND
     1     9     7    1
     2    30    27    1
     3    11     3    1
     4    11    12    1
     5     7    10    1
     6     7     2    1
     7     7     8    1
     8    24    22    1
     9     3     2   ar
    10     3     4   ar
    11    21    19    1
    12     2     1   ar
    13    20    19   ar
    14    20    16   ar
    15    19    18   ar
    16     4    16    1
    17     4     5   ar
    18    13    12    1
    19    16    17   ar
    20    27    28    1
    21    27    26    1
    22    27    29    1
    23    18    17   ar
    24    18    26    1
    25     1     5   ar
    26     1     6    1
    27    17    22    1
    28    23    22    1
    29    22    25    1
    30    12    14    1
    31    12    15    1
