@<TRIPOS>MOLECULE
mol_data/opt/b3lyp/geoms/mol2/12il12il-12il12il-.out
 58 61 0 0 0
SMALL
GASTEIGER

@<TRIPOS>ATOM
      1 C          -0.0168    1.5800   -0.4206 C.ar    1  LIG1        0.0993
      2 C           1.3224    1.4578   -0.2042 C.ar    1  LIG1        0.0297
      3 C           1.8066    2.8049   -0.0800 C.ar    1  LIG1        0.1716
      4 C           0.7256    3.6496   -0.2309 C.ar    1  LIG1        0.2116
      5 O          -0.3999    2.8923   -0.4354 O.2     1  LIG1       -0.4557
      6 H          -0.8063    0.8614   -0.5777 H       1  LIG1        0.1033
      7 C           2.1464    0.2104   -0.1255 C.3     1  LIG1       -0.0332
      8 H           2.5916    0.0842    0.8679 H       1  LIG1        0.0280
      9 H           2.9717    0.2407   -0.8440 H       1  LIG1        0.0280
     10 H           1.5423   -0.6760   -0.3363 H       1  LIG1        0.0280
     11 O           3.1188    3.1406    0.1030 O.3     1  LIG1       -0.4909
     12 C           3.4607    3.5034    1.4460 C.3     1  LIG1        0.0790
     13 H           4.5391    3.6731    1.4527 H       1  LIG1        0.0660
     14 H           2.9468    4.4215    1.7487 H       1  LIG1        0.0660
     15 H           3.2141    2.6974    2.1482 H       1  LIG1        0.0660
     16 C           0.5637    5.0739   -0.2409 C.ar    1  LIG1        0.1809
     17 C          -0.5311    5.8997   -0.3751 C.ar    1  LIG1        0.0410
     18 C          -0.0083    7.2292   -0.3113 C.ar    1  LIG1        0.1723
     19 C           1.3610    7.1425   -0.1448 C.ar    1  LIG1        0.2127
     20 O           1.7089    5.8174   -0.0922 O.2     1  LIG1       -0.4444
     21 C          -1.9728    5.5422   -0.5698 C.3     1  LIG1       -0.0325
     22 H          -2.3990    5.0681    0.3214 H       1  LIG1        0.0280
     23 H          -2.1045    4.8412   -1.3985 H       1  LIG1        0.0280
     24 H          -2.5457    6.4474   -0.7849 H       1  LIG1        0.0280
     25 O          -0.7589    8.3605   -0.4579 O.3     1  LIG1       -0.4909
     26 C          -1.0993    9.0140    0.7717 C.3     1  LIG1        0.0790
     27 H          -1.7476    9.8504    0.5034 H       1  LIG1        0.0660
     28 H          -1.6391    8.3342    1.4422 H       1  LIG1        0.0660
     29 H          -0.2039    9.3934    1.2737 H       1  LIG1        0.0660
     30 C           2.4161    8.1093   -0.0743 C.ar    1  LIG1        0.1809
     31 C           3.7905    8.0252   -0.0960 C.ar    1  LIG1        0.0410
     32 C           4.2540    9.3792   -0.0436 C.ar    1  LIG1        0.1723
     33 C           3.1496   10.2093    0.0190 C.ar    1  LIG1        0.2126
     34 O           2.0193    9.4189   -0.0038 O.2     1  LIG1       -0.4444
     35 C           4.6798    6.8249   -0.1934 C.3     1  LIG1       -0.0325
     36 H           5.1235    6.5812    0.7802 H       1  LIG1        0.0280
     37 H           5.5117    7.0299   -0.8741 H       1  LIG1        0.0280
     38 H           4.1379    5.9465   -0.5449 H       1  LIG1        0.0280
     39 O           5.5839    9.6510   -0.0698 O.3     1  LIG1       -0.4909
     40 C           6.0225   10.7650   -0.8517 C.3     1  LIG1        0.0790
     41 H           7.1035   10.6518   -0.9532 H       1  LIG1        0.0660
     42 H           5.5588   10.7492   -1.8453 H       1  LIG1        0.0660
     43 H           5.7951   11.7130   -0.3590 H       1  LIG1        0.0660
     44 C           2.9166   11.6266    0.1311 C.ar    1  LIG1        0.1799
     45 C           1.8599   12.4274   -0.2377 C.ar    1  LIG1        0.0402
     46 C           2.2244   13.7465    0.1963 C.ar    1  LIG1        0.1612
     47 C           3.4570   13.6730    0.7814 C.ar    1  LIG1        0.1345
     48 O           3.8894   12.3698    0.7549 O.2     1  LIG1       -0.4557
     49 H           4.1228   14.3867    1.2355 H       1  LIG1        0.1068
     50 C           0.5977   12.0791   -0.9642 C.3     1  LIG1       -0.0325
     51 H           0.5517   11.0167   -1.2049 H       1  LIG1        0.0280
     52 H           0.5135   12.6551   -1.8929 H       1  LIG1        0.0280
     53 H          -0.2822   12.3300   -0.3600 H       1  LIG1        0.0280
     54 O           1.4103   14.8136   -0.0047 O.3     1  LIG1       -0.4917
     55 C           1.9145   16.0549    0.4667 C.3     1  LIG1        0.0789
     56 H           1.1587   16.8074    0.2386 H       1  LIG1        0.0660
     57 H           2.0866   16.0255    1.5510 H       1  LIG1        0.0660
     58 H           2.8550   16.3163   -0.0366 H       1  LIG1        0.0660
@<TRIPOS>BOND
     1    52    50    1
     2    42    40    1
     3    23    21    1
     4    51    50    1
     5    50    53    1
     6    50    45    1
     7    41    40    1
     8    37    35    1
     9    40    43    1
    10    40    39    1
    11     9     7    1
    12    24    21    1
    13     6     1    1
    14    21    17    1
    15    21    22    1
    16    38    35    1
    17    25    18    1
    18    25    26    1
    19     5     1   ar
    20     5     4   ar
    21     1     2   ar
    22    17    18   ar
    23    17    16   ar
    24    10     7    1
    25    18    19   ar
    26    16     4    1
    27    16    20   ar
    28    45    44   ar
    29    45    46   ar
    30     4     3   ar
    31     2     7    1
    32     2     3   ar
    33    35    31    1
    34    35    36    1
    35    19    20   ar
    36    19    30    1
    37     7     8    1
    38    31    30   ar
    39    31    32   ar
    40     3    11    1
    41    30    34   ar
    42    39    32    1
    43    32    33   ar
    44    58    55    1
    45    54    46    1
    46    54    55    1
    47    34    33   ar
    48    33    44    1
    49    11    12    1
    50    44    48   ar
    51    46    47   ar
    52    56    55    1
    53    55    57    1
    54    27    26    1
    55    48    47   ar
    56    26    29    1
    57    26    28    1
    58    47    49    1
    59    12    13    1
    60    12    14    1
    61    12    15    1
