@<TRIPOS>MOLECULE
mol_data/opt/b3lyp/geoms/mol2/12il12il12il-12il.out
 58 61 0 0 0
SMALL
GASTEIGER

@<TRIPOS>ATOM
      1 C           0.2530    1.4114    0.9552 C.ar    1  LIG1        0.0993
      2 C           1.5492    1.3146    0.5453 C.ar    1  LIG1        0.0297
      3 C           1.9440    2.6641    0.2532 C.ar    1  LIG1        0.1716
      4 C           0.8686    3.4839    0.5201 C.ar    1  LIG1        0.2116
      5 O          -0.1795    2.7045    0.9453 O.2     1  LIG1       -0.4557
      6 H          -0.4728    0.6775    1.2707 H       1  LIG1        0.1033
      7 C           2.4009    0.0906    0.4122 C.3     1  LIG1       -0.0332
      8 H           3.2928    0.1589    1.0440 H       1  LIG1        0.0280
      9 H           2.7490   -0.0451   -0.6177 H       1  LIG1        0.0280
     10 H           1.8481   -0.8072    0.7011 H       1  LIG1        0.0280
     11 O           3.1854    3.0203   -0.2021 O.3     1  LIG1       -0.4909
     12 C           3.2184    3.4433   -1.5695 C.3     1  LIG1        0.0790
     13 H           4.2651    3.6482   -1.8028 H       1  LIG1        0.0660
     14 H           2.8430    2.6568   -2.2354 H       1  LIG1        0.0660
     15 H           2.6256    4.3525   -1.7205 H       1  LIG1        0.0660
     16 C           0.6633    4.9070    0.4613 C.ar    1  LIG1        0.1809
     17 C           1.4975    5.9880    0.6418 C.ar    1  LIG1        0.0410
     18 C           0.6694    7.1402    0.4595 C.ar    1  LIG1        0.1723
     19 C          -0.6136    6.7012    0.1953 C.ar    1  LIG1        0.2127
     20 O          -0.6162    5.3326    0.1860 O.2     1  LIG1       -0.4444
     21 C           2.9451    6.0110    1.0231 C.3     1  LIG1       -0.0325
     22 H           3.1480    6.8859    1.6470 H       1  LIG1        0.0280
     23 H           3.6003    6.0773    0.1462 H       1  LIG1        0.0280
     24 H           3.2270    5.1081    1.5680 H       1  LIG1        0.0280
     25 O           1.0941    8.4301    0.6115 O.3     1  LIG1       -0.4909
     26 C           1.3770    9.1109   -0.6164 C.3     1  LIG1        0.0790
     27 H           1.7608   10.0949   -0.3406 H       1  LIG1        0.0660
     28 H           2.1351    8.5745   -1.2006 H       1  LIG1        0.0660
     29 H           0.4692    9.2301   -1.2171 H       1  LIG1        0.0660
     30 C          -1.8647    7.3580   -0.0323 C.ar    1  LIG1        0.1809
     31 C          -3.1404    6.8977   -0.2758 C.ar    1  LIG1        0.0410
     32 C          -3.9473    8.0722   -0.4002 C.ar    1  LIG1        0.1723
     33 C          -3.1269    9.1736   -0.2335 C.ar    1  LIG1        0.2126
     34 O          -1.8480    8.7296   -0.0051 O.2     1  LIG1       -0.4444
     35 C          -3.6331    5.4887   -0.3978 C.3     1  LIG1       -0.0325
     36 H          -3.2907    4.8674    0.4339 H       1  LIG1        0.0280
     37 H          -3.2738    5.0154   -1.3185 H       1  LIG1        0.0280
     38 H          -4.7252    5.4851   -0.4230 H       1  LIG1        0.0280
     39 O          -5.2816    8.0231   -0.6722 O.3     1  LIG1       -0.4909
     40 C          -6.1483    8.5592    0.3339 C.3     1  LIG1        0.0790
     41 H          -7.1645    8.3186    0.0153 H       1  LIG1        0.0660
     42 H          -5.9522    8.0944    1.3077 H       1  LIG1        0.0660
     43 H          -6.0402    9.6442    0.4144 H       1  LIG1        0.0660
     44 C          -3.3204   10.5973   -0.2655 C.ar    1  LIG1        0.1799
     45 C          -2.5414   11.6644    0.1241 C.ar    1  LIG1        0.0402
     46 C          -3.3226   12.8259   -0.1960 C.ar    1  LIG1        0.1612
     47 C          -4.5045   12.4054   -0.7374 C.ar    1  LIG1        0.1345
     48 O          -4.5119   11.0334   -0.7880 O.2     1  LIG1       -0.4557
     49 H          -5.3829   12.9002   -1.1147 H       1  LIG1        0.1068
     50 C          -1.1884   11.6942    0.7654 C.3     1  LIG1       -0.0325
     51 H          -1.2015   12.3362    1.6528 H       1  LIG1        0.0280
     52 H          -0.4395   12.1172    0.0841 H       1  LIG1        0.0280
     53 H          -0.8564   10.6978    1.0571 H       1  LIG1        0.0280
     54 O          -2.8681   14.0803    0.0522 O.3     1  LIG1       -0.4917
     55 C          -3.7625   15.1264   -0.2986 C.3     1  LIG1        0.0789
     56 H          -3.2662   16.0629   -0.0411 H       1  LIG1        0.0660
     57 H          -3.9837   15.1129   -1.3742 H       1  LIG1        0.0660
     58 H          -4.7043   15.0450    0.2604 H       1  LIG1        0.0660
@<TRIPOS>BOND
     1    14    12    1
     2    13    12    1
     3    15    12    1
     4    12    11    1
     5    57    55    1
     6    37    35    1
     7    29    26    1
     8    28    26    1
     9    49    47    1
    10    48    47   ar
    11    48    44   ar
    12    47    46   ar
    13    39    32    1
    14    39    40    1
    15     9     7    1
    16    26    27    1
    17    26    25    1
    18    38    35    1
    19    32    31   ar
    20    32    33   ar
    21    35    31    1
    22    35    36    1
    23    55    56    1
    24    55    54    1
    25    55    58    1
    26    31    30   ar
    27    44    33    1
    28    44    45   ar
    29    33    34   ar
    30    11     3    1
    31    46    54    1
    32    46    45   ar
    33    30    34   ar
    34    30    19    1
    35    41    40    1
    36    52    50    1
    37    45    50    1
    38    23    21    1
    39    20    19   ar
    40    20    16   ar
    41    19    18   ar
    42     3     4   ar
    43     3     2   ar
    44    40    43    1
    45    40    42    1
    46     7     2    1
    47     7    10    1
    48     7     8    1
    49    18    25    1
    50    18    17   ar
    51    16     4    1
    52    16    17   ar
    53     4     5   ar
    54     2     1   ar
    55    17    21    1
    56    50    53    1
    57    50    51    1
    58     5     1   ar
    59     1     6    1
    60    21    24    1
    61    21    22    1
