@<TRIPOS>MOLECULE
mol_data/opt/b3lyp/geoms/mol2/12il12il12il-12il-.out
 58 61 0 0 0
SMALL
GASTEIGER

@<TRIPOS>ATOM
      1 C           0.2508    1.4685    0.4972 C.ar    1  LIG1        0.0993
      2 C           1.5927    1.5258    0.2676 C.ar    1  LIG1        0.0297
      3 C           1.8962    2.9281    0.2094 C.ar    1  LIG1        0.1716
      4 C           0.7254    3.6221    0.4260 C.ar    1  LIG1        0.2116
      5 O          -0.2933    2.7149    0.5926 O.2     1  LIG1       -0.4557
      6 H          -0.4398    0.6464    0.6077 H       1  LIG1        0.1033
      7 C           2.5644    0.3995    0.0994 C.3     1  LIG1       -0.0332
      8 H           3.3482    0.4357    0.8634 H       1  LIG1        0.0280
      9 H           3.0653    0.4456   -0.8737 H       1  LIG1        0.0280
     10 H           2.0620   -0.5685    0.1742 H       1  LIG1        0.0280
     11 O           3.1531    3.4249   -0.0126 O.3     1  LIG1       -0.4909
     12 C           3.3178    4.1080   -1.2625 C.3     1  LIG1        0.0790
     13 H           4.3729    4.3806   -1.3252 H       1  LIG1        0.0660
     14 H           3.0571    3.4535   -2.1023 H       1  LIG1        0.0660
     15 H           2.7038    5.0138   -1.3077 H       1  LIG1        0.0660
     16 C           0.3899    5.0203    0.5211 C.ar    1  LIG1        0.1809
     17 C           1.0657    6.1310    0.9749 C.ar    1  LIG1        0.0410
     18 C           0.1674    7.2278    0.7823 C.ar    1  LIG1        0.1723
     19 C          -1.0017    6.7269    0.2428 C.ar    1  LIG1        0.2127
     20 O          -0.8669    5.3743    0.0831 O.2     1  LIG1       -0.4444
     21 C           2.4217    6.2270    1.6050 C.3     1  LIG1       -0.0325
     22 H           2.3413    6.3180    2.6953 H       1  LIG1        0.0280
     23 H           2.9435    7.1202    1.2482 H       1  LIG1        0.0280
     24 H           3.0313    5.3488    1.3869 H       1  LIG1        0.0280
     25 O           0.4699    8.5297    1.0669 O.3     1  LIG1       -0.4909
     26 C          -0.0846    9.0181    2.2944 C.3     1  LIG1        0.0790
     27 H           0.2938   10.0346    2.4181 H       1  LIG1        0.0660
     28 H          -1.1782    9.0407    2.2501 H       1  LIG1        0.0660
     29 H           0.2360    8.4036    3.1445 H       1  LIG1        0.0660
     30 C          -2.2378    7.3129   -0.1785 C.ar    1  LIG1        0.1809
     31 C          -3.4002    6.7922   -0.7055 C.ar    1  LIG1        0.0410
     32 C          -4.2496    7.9212   -0.9288 C.ar    1  LIG1        0.1723
     33 C          -3.5679    9.0548   -0.5298 C.ar    1  LIG1        0.2126
     34 O          -2.3366    8.6781   -0.0593 O.2     1  LIG1       -0.4444
     35 C          -3.7472    5.3692   -1.0186 C.3     1  LIG1       -0.0325
     36 H          -3.9407    4.7889   -0.1091 H       1  LIG1        0.0280
     37 H          -2.9363    4.8649   -1.5498 H       1  LIG1        0.0280
     38 H          -4.6468    5.3421   -1.6384 H       1  LIG1        0.0280
     39 O          -5.4801    7.8494   -1.5138 O.3     1  LIG1       -0.4909
     40 C          -6.5877    7.9199   -0.6090 C.3     1  LIG1        0.0790
     41 H          -7.4855    7.7847   -1.2156 H       1  LIG1        0.0660
     42 H          -6.5348    7.1234    0.1436 H       1  LIG1        0.0660
     43 H          -6.6259    8.8941   -0.1122 H       1  LIG1        0.0660
     44 C          -3.8638   10.4604   -0.5525 C.ar    1  LIG1        0.1799
     45 C          -3.0973   11.5916   -0.3803 C.ar    1  LIG1        0.0402
     46 C          -4.0142   12.6841   -0.5437 C.ar    1  LIG1        0.1612
     47 C          -5.2508   12.1637   -0.8034 C.ar    1  LIG1        0.1345
     48 O          -5.1690   10.7939   -0.8090 O.2     1  LIG1       -0.4557
     49 H          -6.2222   12.5836   -1.0003 H       1  LIG1        0.1068
     50 C          -1.6316   11.7374   -0.1096 C.3     1  LIG1       -0.0325
     51 H          -1.1086   10.7843   -0.1892 H       1  LIG1        0.0280
     52 H          -1.4553   12.1410    0.8954 H       1  LIG1        0.0280
     53 H          -1.1826   12.4457   -0.8141 H       1  LIG1        0.0280
     54 O          -3.6084   13.9754   -0.4461 O.3     1  LIG1       -0.4917
     55 C          -4.6243   14.9446   -0.6598 C.3     1  LIG1        0.0789
     56 H          -4.1518   15.9222   -0.5572 H       1  LIG1        0.0660
     57 H          -5.0558   14.8494   -1.6651 H       1  LIG1        0.0660
     58 H          -5.4268   14.8463    0.0836 H       1  LIG1        0.0660
@<TRIPOS>BOND
     1    14    12    1
     2    57    55    1
     3    38    35    1
     4    37    35    1
     5    39    32    1
     6    39    40    1
     7    13    12    1
     8    15    12    1
     9    12    11    1
    10    41    40    1
    11    35    31    1
    12    35    36    1
    13    49    47    1
    14    32    31   ar
    15    32    33   ar
    16     9     7    1
    17    53    50    1
    18    48    47   ar
    19    48    44   ar
    20    47    46   ar
    21    31    30   ar
    22    55    56    1
    23    55    54    1
    24    55    58    1
    25    40    43    1
    26    40    42    1
    27    44    33    1
    28    44    45   ar
    29    46    54    1
    30    46    45   ar
    31    33    34   ar
    32    45    50    1
    33    51    50    1
    34    30    34   ar
    35    30    19    1
    36    50    52    1
    37    11     3    1
    38    20    19   ar
    39    20    16   ar
    40     7    10    1
    41     7     2    1
    42     7     8    1
    43     3     2   ar
    44     3     4   ar
    45    19    18   ar
    46     2     1   ar
    47     4    16    1
    48     4     5   ar
    49     1     5   ar
    50     1     6    1
    51    16    17   ar
    52    18    17   ar
    53    18    25    1
    54    17    21    1
    55    25    26    1
    56    23    21    1
    57    24    21    1
    58    21    22    1
    59    28    26    1
    60    26    27    1
    61    26    29    1
