@<TRIPOS>MOLECULE
mol_data/opt/b3lyp/geoms/mol2/12il.out
 16 16 0 0 0
SMALL
GASTEIGER

@<TRIPOS>ATOM
      1 C           0.1033    1.9120    0.3231 C.ar    1  LIG1        0.0982
      2 C           1.3697    1.6599   -0.1106 C.ar    1  LIG1        0.0290
      3 C           1.9638    2.9657   -0.2788 C.ar    1  LIG1        0.1605
      4 C           1.0206    3.8877    0.0656 C.ar    1  LIG1        0.1334
      5 O          -0.1291    3.2531    0.4353 O.2     1  LIG1       -0.4670
      6 H          -0.7259    1.2692    0.5769 H       1  LIG1        0.1033
      7 H           1.0096    4.9656    0.0756 H       1  LIG1        0.1067
      8 C           2.0087    0.3346   -0.3916 C.3     1  LIG1       -0.0332
      9 H           2.7727    0.0804    0.3529 H       1  LIG1        0.0280
     10 H           2.5008    0.3390   -1.3697 H       1  LIG1        0.0280
     11 H           1.2672   -0.4690   -0.3889 H       1  LIG1        0.0280
     12 O           3.2160    3.2351   -0.7644 O.3     1  LIG1       -0.4917
     13 C           4.2658    3.0821    0.1909 C.3     1  LIG1        0.0789
     14 H           5.1944    3.3352   -0.3247 H       1  LIG1        0.0660
     15 H           4.1257    3.7574    1.0445 H       1  LIG1        0.0660
     16 H           4.3317    2.0520    0.5635 H       1  LIG1        0.0660
@<TRIPOS>BOND
     1    10     8    1
     2    12     3    1
     3    12    13    1
     4     8    11    1
     5     8     2    1
     6     8     9    1
     7    14    13    1
     8     3     2   ar
     9     3     4   ar
    10     2     1   ar
    11     4     7    1
    12     4     5   ar
    13    13    16    1
    14    13    15    1
    15     1     5   ar
    16     1     6    1
