@<TRIPOS>MOLECULE
mol_data/opt/b3lyp/geoms/mol2/12il12il12il12il.out
 58 61 0 0 0
SMALL
GASTEIGER

@<TRIPOS>ATOM
      1 C           0.6041    1.7186    1.8818 C.ar    1  LIG1        0.0993
      2 C           1.7717    1.5623    1.1959 C.ar    1  LIG1        0.0297
      3 C           2.0101    2.8389    0.5831 C.ar    1  LIG1        0.1716
      4 C           0.9826    3.6801    0.9514 C.ar    1  LIG1        0.2116
      5 O           0.1092    2.9805    1.7475 O.2     1  LIG1       -0.4557
      6 H           0.0142    1.0463    2.4860 H       1  LIG1        0.1033
      7 C           2.6346    0.3447    1.0785 C.3     1  LIG1       -0.0332
      8 H           3.6416    0.5338    1.4651 H       1  LIG1        0.0280
      9 H           2.7470    0.0333    0.0342 H       1  LIG1        0.0280
     10 H           2.2094   -0.4943    1.6358 H       1  LIG1        0.0280
     11 O           3.0878    3.1129   -0.2152 O.3     1  LIG1       -0.4909
     12 C           2.7693    3.3516   -1.5905 C.3     1  LIG1        0.0790
     13 H           3.7219    3.4858   -2.1069 H       1  LIG1        0.0660
     14 H           2.2349    2.4984   -2.0251 H       1  LIG1        0.0660
     15 H           2.1585    4.2535   -1.7095 H       1  LIG1        0.0660
     16 C           0.7001    5.0692    0.6974 C.ar    1  LIG1        0.1809
     17 C           1.5162    6.1673    0.5387 C.ar    1  LIG1        0.0410
     18 C           0.6213    7.2629    0.3149 C.ar    1  LIG1        0.1723
     19 C          -0.6680    6.7814    0.3789 C.ar    1  LIG1        0.2127
     20 O          -0.6199    5.4318    0.6088 O.2     1  LIG1       -0.4444
     21 C           3.0073    6.2501    0.6503 C.3     1  LIG1       -0.0325
     22 H           3.2967    7.2319    1.0370 H       1  LIG1        0.0280
     23 H           3.5086    6.1136   -0.3156 H       1  LIG1        0.0280
     24 H           3.3944    5.4798    1.3211 H       1  LIG1        0.0280
     25 O           0.9806    8.5699    0.1229 O.3     1  LIG1       -0.4909
     26 C           1.4716    8.8576   -1.1898 C.3     1  LIG1        0.0790
     27 H           1.7079    9.9234   -1.2045 H       1  LIG1        0.0660
     28 H           2.3791    8.2846   -1.4154 H       1  LIG1        0.0660
     29 H           0.7129    8.6387   -1.9507 H       1  LIG1        0.0660
     30 C          -1.9615    7.4024    0.2737 C.ar    1  LIG1        0.1809
     31 C          -2.4268    8.6608    0.5840 C.ar    1  LIG1        0.0410
     32 C          -3.8131    8.6382    0.2285 C.ar    1  LIG1        0.1723
     33 C          -4.1171    7.3807   -0.2437 C.ar    1  LIG1        0.2126
     34 O          -2.9775    6.6223   -0.2210 O.2     1  LIG1       -0.4444
     35 C          -1.7065    9.8122    1.2140 C.3     1  LIG1       -0.0325
     36 H          -2.4179   10.4338    1.7655 H       1  LIG1        0.0280
     37 H          -1.2086   10.4467    0.4722 H       1  LIG1        0.0280
     38 H          -0.9322    9.4654    1.9019 H       1  LIG1        0.0280
     39 O          -4.6879    9.6812    0.3865 O.3     1  LIG1       -0.4909
     40 C          -4.6618   10.6354   -0.6807 C.3     1  LIG1        0.0790
     41 H          -5.3971   11.4019   -0.4285 H       1  LIG1        0.0660
     42 H          -3.6725   11.0990   -0.7757 H       1  LIG1        0.0660
     43 H          -4.9317   10.1666   -1.6341 H       1  LIG1        0.0660
     44 C          -5.3248    6.7500   -0.7201 C.ar    1  LIG1        0.1799
     45 C          -6.6601    6.8976   -0.4210 C.ar    1  LIG1        0.0402
     46 C          -7.3361    5.9639   -1.2818 C.ar    1  LIG1        0.1612
     47 C          -6.3872    5.3179   -2.0184 C.ar    1  LIG1        0.1345
     48 O          -5.1541    5.7894   -1.6914 O.2     1  LIG1       -0.4557
     49 H          -6.4330    4.5567   -2.7804 H       1  LIG1        0.1068
     50 C          -7.3230    7.7808    0.5917 C.3     1  LIG1       -0.0325
     51 H          -7.4619    7.2589    1.5473 H       1  LIG1        0.0280
     52 H          -8.3149    8.0763    0.2358 H       1  LIG1        0.0280
     53 H          -6.7347    8.6786    0.7864 H       1  LIG1        0.0280
     54 O          -8.6915    5.7926   -1.3791 O.3     1  LIG1       -0.4917
     55 C          -9.2523    4.9488   -0.3719 C.3     1  LIG1        0.0789
     56 H         -10.3242    4.8953   -0.5733 H       1  LIG1        0.0660
     57 H          -8.8209    3.9408   -0.4159 H       1  LIG1        0.0660
     58 H          -9.0947    5.3569    0.6341 H       1  LIG1        0.0660
@<TRIPOS>BOND
     1    49    47    1
     2    13    12    1
     3    14    12    1
     4    47    48   ar
     5    47    46   ar
     6    29    26    1
     7    15    12    1
     8    48    44   ar
     9    43    40    1
    10    12    11    1
    11    28    26    1
    12    54    46    1
    13    54    55    1
    14    46    45   ar
    15    27    26    1
    16    26    25    1
    17    42    40    1
    18    44    45   ar
    19    44    33    1
    20    40    41    1
    21    40    39    1
    22    56    55    1
    23    45    50    1
    24    57    55    1
    25    55    58    1
    26    23    21    1
    27    33    34   ar
    28    33    32   ar
    29    34    30   ar
    30    11     3    1
    31     9     7    1
    32    25    18    1
    33    32    39    1
    34    32    31   ar
    35    52    50    1
    36    30    19    1
    37    30    31   ar
    38    18    19   ar
    39    18    17   ar
    40    19    20   ar
    41    37    35    1
    42    17    21    1
    43    17    16   ar
    44     3     4   ar
    45     3     2   ar
    46    31    35    1
    47    50    53    1
    48    50    51    1
    49    20    16   ar
    50    21    22    1
    51    21    24    1
    52    16     4    1
    53     4     5   ar
    54     7     2    1
    55     7     8    1
    56     7    10    1
    57     2     1   ar
    58    35    36    1
    59    35    38    1
    60     5     1   ar
    61     1     6    1
