@<TRIPOS>MOLECULE
mol_data/opt/b3lyp/geoms/mol2/12la12la-12la-12la-.out
 46 49 0 0 0
SMALL
GASTEIGER

@<TRIPOS>ATOM
      1 C          -0.2376    1.7387   -0.0001 C.ar    1  LIG1        0.1342
      2 C           1.1275    1.6250   -0.0000 C.ar    1  LIG1        0.1583
      3 C           1.6642    2.9486    0.0000 C.ar    1  LIG1        0.0292
      4 C           0.5776    3.7886   -0.0001 C.ar    1  LIG1        0.1770
      5 O          -0.5825    3.0700   -0.0001 O.2     1  LIG1       -0.4560
      6 H          -1.0543    1.0380   -0.0002 H       1  LIG1        0.1068
      7 O           1.9090    0.5146    0.0001 O.3     1  LIG1       -0.4919
      8 C           1.2019   -0.7157    0.0000 C.3     1  LIG1        0.0789
      9 H           1.9513   -1.5084    0.0001 H       1  LIG1        0.0660
     10 H           0.5698   -0.8099    0.8935 H       1  LIG1        0.0660
     11 H           0.5700   -0.8099   -0.8936 H       1  LIG1        0.0660
     12 H           2.7053    3.2303    0.0001 H       1  LIG1        0.0693
     13 C           0.4753    5.2160   -0.0001 C.ar    1  LIG1        0.2121
     14 C          -0.5755    6.1162   -0.0001 C.ar    1  LIG1        0.1694
     15 C          -0.0132    7.4242   -0.0001 C.ar    1  LIG1        0.0300
     16 C           1.3546    7.2469   -0.0001 C.ar    1  LIG1        0.1780
     17 O           1.6592    5.9191   -0.0001 O.2     1  LIG1       -0.4447
     18 O          -1.8790    5.7458   -0.0000 O.3     1  LIG1       -0.4912
     19 C          -2.8273    6.8026   -0.0001 C.3     1  LIG1        0.0790
     20 H          -3.8100    6.3291   -0.0001 H       1  LIG1        0.0660
     21 H          -2.7284    7.4319    0.8938 H       1  LIG1        0.0660
     22 H          -2.7283    7.4319   -0.8940 H       1  LIG1        0.0660
     23 H          -0.5204    8.3752   -0.0001 H       1  LIG1        0.0694
     24 C           2.4309    8.1833   -0.0001 C.ar    1  LIG1        0.2121
     25 C           2.4526    9.5675   -0.0001 C.ar    1  LIG1        0.1694
     26 C           3.8147    9.9727   -0.0001 C.ar    1  LIG1        0.0300
     27 C           4.5498    8.8054   -0.0001 C.ar    1  LIG1        0.1780
     28 O           3.7250    7.7216   -0.0001 O.2     1  LIG1       -0.4447
     29 O           1.3221   10.3198   -0.0001 O.3     1  LIG1       -0.4912
     30 C           1.5108   11.7292   -0.0002 C.3     1  LIG1        0.0790
     31 H           0.5138   12.1714   -0.0002 H       1  LIG1        0.0660
     32 H           2.0546   12.0587    0.8939 H       1  LIG1        0.0660
     33 H           2.0546   12.0586   -0.8943 H       1  LIG1        0.0660
     34 H           4.2234   10.9701   -0.0001 H       1  LIG1        0.0694
     35 C           5.9614    8.5762   -0.0001 C.ar    1  LIG1        0.2111
     36 C           7.0362    9.4444   -0.0001 C.ar    1  LIG1        0.1687
     37 C           8.2212    8.6444   -0.0001 C.ar    1  LIG1        0.0187
     38 C           7.7879    7.3500   -0.0001 C.ar    1  LIG1        0.0964
     39 O           6.4332    7.2881   -0.0000 O.2     1  LIG1       -0.4560
     40 H           8.3034    6.4027   -0.0001 H       1  LIG1        0.1031
     41 O           6.8954   10.7956   -0.0002 O.3     1  LIG1       -0.4912
     42 C           8.1001   11.5510   -0.0002 C.3     1  LIG1        0.0790
     43 H           7.8031   12.6004   -0.0003 H       1  LIG1        0.0660
     44 H           8.7011   11.3447    0.8943 H       1  LIG1        0.0660
     45 H           8.7010   11.3445   -0.8948 H       1  LIG1        0.0660
     46 H           9.2478    8.9772   -0.0001 H       1  LIG1        0.0686
@<TRIPOS>BOND
     1    45    42    1
     2    33    30    1
     3    22    19    1
     4    11     8    1
     5    43    42    1
     6    42    41    1
     7    42    44    1
     8    31    30    1
     9    30    29    1
    10    30    32    1
    11     6     1    1
    12    41    36    1
    13    40    38    1
    14    36    35   ar
    15    36    37   ar
    16     5     1   ar
    17     5     4   ar
    18    38    37   ar
    19    38    39   ar
    20    34    26    1
    21     1     2   ar
    22    26    25   ar
    23    26    27   ar
    24    29    25    1
    25    25    24   ar
    26    27    35    1
    27    27    28   ar
    28    35    39   ar
    29    19    20    1
    30    19    18    1
    31    19    21    1
    32    17    16   ar
    33    17    13   ar
    34    24    28   ar
    35    24    16    1
    36    37    46    1
    37    16    15   ar
    38    13    14   ar
    39    13     4    1
    40    15    14   ar
    41    15    23    1
    42    14    18    1
    43     4     3   ar
    44     2     3   ar
    45     2     7    1
    46     8     9    1
    47     8     7    1
    48     8    10    1
    49     3    12    1
