@<TRIPOS>MOLECULE
mol_data/opt/b3lyp/geoms/mol2/12la6hl-13fd12ah-13le13il4ei12el-.out
 104 111 0 0 0
SMALL
GASTEIGER

@<TRIPOS>ATOM
      1 C          -1.1459    1.8364    2.4458 C.ar    1  LIG1        0.1341
      2 C           0.2108    1.6535    2.5042 C.ar    1  LIG1        0.1582
      3 C           0.8198    2.8376    1.9877 C.ar    1  LIG1        0.0261
      4 C          -0.2036    3.6846    1.6379 C.ar    1  LIG1        0.1418
      5 O          -1.4029    3.0807    1.9158 O.2     1  LIG1       -0.4591
      6 H          -2.0047    1.2606    2.7443 H       1  LIG1        0.1068
      7 O           0.9294    0.5999    2.9586 O.3     1  LIG1       -0.4919
      8 C           0.1612   -0.4803    3.4731 C.3     1  LIG1        0.0789
      9 H           0.8715   -1.2414    3.7973 H       1  LIG1        0.0660
     10 H          -0.4485   -0.1594    4.3278 H       1  LIG1        0.0660
     11 H          -0.4975   -0.8995    2.7008 H       1  LIG1        0.0660
     12 H           1.8809    3.0217    1.9204 H       1  LIG1        0.0692
     13 C          -1.3432    5.8751    1.0074 C.ar    1  LIG1        0.1279
     14 C          -0.2106    5.0126    1.0449 C.ar    1  LIG1        0.0603
     15 C           0.9759    5.5083    0.4783 C.ar    1  LIG1       -0.0038
     16 C           1.0517    6.7859   -0.0603 C.ar    1  LIG1        0.1483
     17 C          -0.1112    7.5889   -0.0271 C.ar    1  LIG1        0.1343
     18 N          -1.2617    7.1031    0.4804 N.ar    1  LIG1       -0.2264
     19 H           1.8442    4.8619    0.4496 H       1  LIG1        0.0663
     20 N          -2.5608    5.5408    1.5529 N.pl3   1  LIG1       -0.3426
     21 H          -3.3170    6.1602    1.3056 H       1  LIG1        0.1437
     22 H          -2.8042    4.5676    1.6509 H       1  LIG1        0.1437
     23 O           2.1577    7.3160   -0.6493 O.3     1  LIG1       -0.4929
     24 C           3.3509    6.5549   -0.6627 C.3     1  LIG1        0.0789
     25 H           4.0986    7.1828   -1.1483 H       1  LIG1        0.0660
     26 H           3.6884    6.3104    0.3534 H       1  LIG1        0.0660
     27 H           3.2341    5.6245   -1.2348 H       1  LIG1        0.0660
     28 C          -0.2193    8.9544   -0.5363 C.ar    1  LIG1        0.1124
     29 C           0.6063    9.9727   -1.0304 C.ar    1  LIG1        0.1618
     30 C          -0.2180   11.1093   -1.3076 C.ar    1  LIG1        0.1220
     31 C          -1.5423   10.7663   -0.9694 C.ar    1  LIG1        0.1039
     32 N          -1.5000    9.4912   -0.5228 N.ar    1  LIG1       -0.3465
     33 H          -2.2623    8.9443   -0.1467 H       1  LIG1        0.1662
     34 O           1.9451    9.9419   -1.2123 O.3     1  LIG1       -0.5034
     35 H           2.2206   10.8072   -1.5503 H       1  LIG1        0.2923
     36 N           0.7072   13.3193   -2.2580 N.1     1  LIG1       -0.1907
     37 C           0.2586   12.3305   -1.8284 C.1     1  LIG1        0.1051
     38 C          -2.7690   11.5015   -1.0320 C.ar    1  LIG1        0.1551
     39 C          -3.1122   12.7955   -1.3382 C.ar    1  LIG1        0.0071
     40 C          -4.5299   12.9022   -1.1857 C.ar    1  LIG1        0.0732
     41 C          -4.9735   11.6497   -0.7930 C.ar    1  LIG1        0.1760
     42 O          -3.8902   10.7934   -0.6908 O.2     1  LIG1       -0.4498
     43 H          -2.4317   13.5835   -1.6275 H       1  LIG1        0.0675
     44 N          -5.2845   14.0565   -1.3335 N.pl3   1  LIG1       -0.3550
     45 H          -4.9656   14.6741   -2.0674 H       1  LIG1        0.1424
     46 H          -6.2852   13.8908   -1.3576 H       1  LIG1        0.1424
     47 C          -6.2382   11.0463   -0.4885 C.ar    1  LIG1        0.1279
     48 C          -7.5308   11.5295   -0.3250 C.ar    1  LIG1        0.1643
     49 C          -8.3896   10.4309    0.0217 C.ar    1  LIG1        0.0937
     50 C          -7.5803    9.2871    0.0679 C.ar    1  LIG1        0.0830
     51 N          -6.3079    9.6811   -0.2730 N.ar    1  LIG1       -0.3466
     52 H          -5.4884    9.1042   -0.1690 H       1  LIG1        0.1662
     53 O          -7.9046   12.8312   -0.5401 O.3     1  LIG1       -0.4916
     54 C          -8.4277   13.5085    0.6153 C.3     1  LIG1        0.0789
     55 H          -8.6805   14.5182    0.2872 H       1  LIG1        0.0660
     56 H          -9.3263   13.0075    0.9855 H       1  LIG1        0.0660
     57 H          -7.6742   13.5568    1.4096 H       1  LIG1        0.0660
     58 C          -9.7961   10.4785    0.1802 C.1     1  LIG1       -0.0638
     59 C         -10.9990   10.5365    0.3152 C.1     1  LIG1       -0.1137
     60 H         -12.0594   10.5814    0.4043 H       1  LIG1        0.1232
     61 C          -7.8465    7.8916    0.3485 C.ar    1  LIG1        0.0712
     62 C          -8.5136    7.2602    1.3963 C.ar    1  LIG1        0.0186
     63 C          -8.2616    5.8669    1.2456 C.ar    1  LIG1        0.1488
     64 C          -7.4617    5.6595    0.1254 C.ar    1  LIG1        0.0906
     65 N          -7.2205    6.9111   -0.4021 N.ar    1  LIG1       -0.3498
     66 H          -6.7310    7.0778   -1.2675 H       1  LIG1        0.1661
     67 C          -9.2720    7.8956    2.5208 C.3     1  LIG1       -0.0341
     68 H          -9.3194    7.2098    3.3713 H       1  LIG1        0.0279
     69 H         -10.2967    8.1567    2.2331 H       1  LIG1        0.0279
     70 H          -8.7917    8.8225    2.8498 H       1  LIG1        0.0279
     71 O          -8.7062    4.8845    2.0906 O.3     1  LIG1       -0.4927
     72 C         -10.0396    4.4450    1.8291 C.3     1  LIG1        0.0789
     73 H         -10.2657    3.6775    2.5724 H       1  LIG1        0.0660
     74 H         -10.7617    5.2657    1.9248 H       1  LIG1        0.0660
     75 H         -10.1247    4.0139    0.8236 H       1  LIG1        0.0660
     76 C          -6.2248    3.4534    0.1443 C.ar    1  LIG1        0.0346
     77 C          -5.8103    2.3140   -0.5595 C.ar    1  LIG1       -0.0347
     78 C          -6.9783    4.4425   -0.5356 C.ar    1  LIG1        0.0175
     79 C          -6.0837    2.1300   -1.9219 C.ar    1  LIG1        0.0227
     80 H          -5.2433    1.5604   -0.0273 H       1  LIG1        0.0637
     81 C          -7.2329    4.2502   -1.9020 C.ar    1  LIG1       -0.0477
     82 C          -6.8068    3.1318   -2.6203 C.ar    1  LIG1       -0.0391
     83 H          -7.8134    5.0055   -2.4257 H       1  LIG1        0.0627
     84 C          -5.8235    3.6067    1.5079 C.1     1  LIG1       -0.0690
     85 C          -5.4294    3.7143    2.6478 C.1     1  LIG1       -0.1139
     86 H          -5.1326    3.8265    3.6649 H       1  LIG1        0.1232
     87 C          -7.1254    3.0461   -4.0942 C.3     1  LIG1       -0.0390
     88 H          -7.4997    4.0064   -4.4582 H       1  LIG1        0.0278
     89 H          -7.8832    2.2846   -4.3005 H       1  LIG1        0.0278
     90 H          -6.2428    2.7768   -4.6818 H       1  LIG1        0.0278
     91 C          -5.5883    0.9120   -2.5637 C.ar    1  LIG1        0.1541
     92 C          -4.4625    0.1312   -2.3498 C.ar    1  LIG1        0.1119
     93 C          -4.5577   -0.9611   -3.2985 C.ar    1  LIG1        0.1736
     94 C          -5.7077   -0.7705   -4.0002 C.ar    1  LIG1        0.1354
     95 O          -6.3331    0.3653   -3.5684 O.2     1  LIG1       -0.4579
     96 H          -6.1764   -1.3110   -4.8057 H       1  LIG1        0.1068
     97 C          -3.3905    0.3807   -1.4583 C.1     1  LIG1       -0.0622
     98 C          -2.4662    0.5812   -0.7011 C.1     1  LIG1       -0.1137
     99 H          -1.6567    0.7845   -0.0359 H       1  LIG1        0.1232
    100 O          -3.6561   -1.9506   -3.5294 O.3     1  LIG1       -0.4907
    101 C          -3.3922   -2.8138   -2.4167 C.3     1  LIG1        0.0790
    102 H          -2.6583   -3.5412   -2.7673 H       1  LIG1        0.0660
    103 H          -2.9805   -2.2589   -1.5684 H       1  LIG1        0.0660
    104 H          -4.3050   -3.3362   -2.1047 H       1  LIG1        0.0660
@<TRIPOS>BOND
     1    96    94    1
     2    90    87    1
     3    88    87    1
     4    89    87    1
     5    87    82    1
     6    94    95   ar
     7    94    93   ar
     8    95    91   ar
     9   100    93    1
    10   100   101    1
    11    93    92   ar
    12   102   101    1
    13    82    79   ar
    14    82    81   ar
    15    91    92   ar
    16    91    79    1
    17    83    81    1
    18   101   104    1
    19   101   103    1
    20    92    97    1
    21    36    37    3
    22    45    44    1
    23    79    77   ar
    24    81    78   ar
    25    37    30    1
    26    43    39    1
    27    35    34    1
    28    97    98    3
    29    46    44    1
    30    39    40   ar
    31    39    38   ar
    32    44    40    1
    33    30    29   ar
    34    30    31   ar
    35    66    65    1
    36    27    24    1
    37    34    29    1
    38    40    41   ar
    39    25    24    1
    40    38    31    1
    41    38    42   ar
    42    29    28   ar
    43    31    32   ar
    44    41    42   ar
    45    41    47    1
    46    98    99    1
    47    24    23    1
    48    24    26    1
    49    23    16    1
    50    77    80    1
    51    77    76   ar
    52    53    48    1
    53    53    54    1
    54    28    32   ar
    55    28    17    1
    56    78    64    1
    57    78    76   ar
    58    32    33    1
    59    47    48   ar
    60    47    51   ar
    61    65    64   ar
    62    65    61   ar
    63    48    49   ar
    64    51    52    1
    65    51    50   ar
    66    16    17   ar
    67    16    15   ar
    68    17    18   ar
    69    49    50   ar
    70    49    58    1
    71    50    61    1
    72    64    63   ar
    73    76    84    1
    74    58    59    3
    75    55    54    1
    76    59    60    1
    77    61    62   ar
    78    19    15    1
    79    15    14   ar
    80    18    13   ar
    81    54    56    1
    82    54    57    1
    83    75    72    1
    84    13    14   ar
    85    13    20    1
    86    14     4    1
    87    63    62   ar
    88    63    71    1
    89    21    20    1
    90    62    67    1
    91    84    85    3
    92    20    22    1
    93     4     5   ar
    94     4     3   ar
    95    72    74    1
    96    72    71    1
    97    72    73    1
    98     5     1   ar
    99    12     3    1
   100     3     2   ar
   101    69    67    1
   102     1     2   ar
   103     1     6    1
   104     2     7    1
   105    67    70    1
   106    67    68    1
   107    85    86    1
   108    11     8    1
   109     7     8    1
   110     8     9    1
   111     8    10    1
