@<TRIPOS>MOLECULE
mol_data/opt/b3lyp/geoms/mol2/12la12la-12la-12la.out
 46 49 0 0 0
SMALL
GASTEIGER

@<TRIPOS>ATOM
      1 C          -0.2772    1.8131   -0.0001 C.ar    1  LIG1        0.1342
      2 C           1.0896    1.7253   -0.0000 C.ar    1  LIG1        0.1583
      3 C           1.6001    3.0593   -0.0000 C.ar    1  LIG1        0.0292
      4 C           0.4981    3.8792   -0.0001 C.ar    1  LIG1        0.1770
      5 O          -0.6472    3.1378   -0.0001 O.2     1  LIG1       -0.4560
      6 H          -1.0808    1.0974   -0.0001 H       1  LIG1        0.1068
      7 O           1.8933    0.6313    0.0000 O.3     1  LIG1       -0.4919
      8 C           1.2113   -0.6138   -0.0000 C.3     1  LIG1        0.0789
      9 H           1.9770   -1.3906   -0.0000 H       1  LIG1        0.0660
     10 H           0.5817   -0.7206    0.8936 H       1  LIG1        0.0660
     11 H           0.5817   -0.7206   -0.8937 H       1  LIG1        0.0660
     12 H           2.6363    3.3578    0.0000 H       1  LIG1        0.0693
     13 C           0.3651    5.3040   -0.0001 C.ar    1  LIG1        0.2121
     14 C          -0.7063    6.1791   -0.0000 C.ar    1  LIG1        0.1694
     15 C          -0.1761    7.5008   -0.0001 C.ar    1  LIG1        0.0300
     16 C           1.1949    7.3577   -0.0001 C.ar    1  LIG1        0.1780
     17 O           1.5335    6.0366   -0.0001 O.2     1  LIG1       -0.4447
     18 O          -1.9997    5.7776   -0.0000 O.3     1  LIG1       -0.4912
     19 C          -2.9745    6.8108   -0.0000 C.3     1  LIG1        0.0790
     20 H          -3.9447    6.3124   -0.0000 H       1  LIG1        0.0660
     21 H          -2.8912    7.4420    0.8940 H       1  LIG1        0.0660
     22 H          -2.8912    7.4419   -0.8941 H       1  LIG1        0.0660
     23 H          -0.7063    8.4390   -0.0001 H       1  LIG1        0.0694
     24 C           2.2482    8.3189   -0.0001 C.ar    1  LIG1        0.2121
     25 C           2.2512    9.7013   -0.0001 C.ar    1  LIG1        0.1694
     26 C           3.6089   10.1244   -0.0002 C.ar    1  LIG1        0.0300
     27 C           4.3657    8.9715   -0.0002 C.ar    1  LIG1        0.1780
     28 O           3.5539    7.8797   -0.0001 O.2     1  LIG1       -0.4447
     29 O           1.1114   10.4371   -0.0001 O.3     1  LIG1       -0.4912
     30 C           1.2783   11.8504   -0.0002 C.3     1  LIG1        0.0790
     31 H           0.2742   12.2760   -0.0002 H       1  LIG1        0.0660
     32 H           1.8163   12.1879    0.8941 H       1  LIG1        0.0660
     33 H           1.8163   12.1878   -0.8945 H       1  LIG1        0.0660
     34 H           3.9967   11.1296   -0.0002 H       1  LIG1        0.0694
     35 C           5.7953    8.8133   -0.0002 C.ar    1  LIG1        0.2111
     36 C           6.7589    7.8102   -0.0001 C.ar    1  LIG1        0.1687
     37 C           8.0349    8.4647   -0.0002 C.ar    1  LIG1        0.0187
     38 C           7.7848    9.7972   -0.0003 C.ar    1  LIG1        0.0964
     39 O           6.4509   10.0364   -0.0003 O.2     1  LIG1       -0.4560
     40 H           8.4204   10.6690   -0.0004 H       1  LIG1        0.1031
     41 O           6.7334    6.4611    0.0001 O.3     1  LIG1       -0.4912
     42 C           5.4960    5.7485    0.0000 C.3     1  LIG1        0.0790
     43 H           5.7729    4.6933    0.0001 H       1  LIG1        0.0660
     44 H           4.9033    5.9763    0.8894 H       1  LIG1        0.0660
     45 H           4.9034    5.9762   -0.8894 H       1  LIG1        0.0660
     46 H           8.9919    7.9655   -0.0001 H       1  LIG1        0.0686
@<TRIPOS>BOND
     1    33    30    1
     2    22    19    1
     3    11     8    1
     4    45    42    1
     5    40    38    1
     6    39    38   ar
     7    39    35   ar
     8    38    37   ar
     9    31    30    1
    10    30    29    1
    11    30    32    1
    12    35    27    1
    13    35    36   ar
    14    34    26    1
    15    37    46    1
    16    37    36   ar
    17    27    26   ar
    18    27    28   ar
    19    26    25   ar
    20    28    24   ar
    21    25    24   ar
    22    25    29    1
    23    24    16    1
    24    17    16   ar
    25    17    13   ar
    26    16    15   ar
    27     5     1   ar
    28     5     4   ar
    29    36    41    1
    30     6     1    1
    31    13     4    1
    32    13    14   ar
    33    15    23    1
    34    15    14   ar
    35     1     2   ar
    36     4     3   ar
    37    14    18    1
    38    19    20    1
    39    19    18    1
    40    19    21    1
    41     8     9    1
    42     8     7    1
    43     8    10    1
    44     2     3   ar
    45     2     7    1
    46     3    12    1
    47    42    41    1
    48    42    43    1
    49    42    44    1
