@<TRIPOS>MOLECULE
mol_data/opt/b3lyp/geoms/mol2/12la12la12la.out
 35 37 0 0 0
SMALL
GASTEIGER

@<TRIPOS>ATOM
      1 C          -0.0298    1.6964   -0.0002 C.ar    1  LIG1        0.1342
      2 C           1.3292    1.5492    0.0000 C.ar    1  LIG1        0.1583
      3 C           1.8954    2.8604    0.0001 C.ar    1  LIG1        0.0292
      4 C           0.8366    3.7392   -0.0000 C.ar    1  LIG1        0.1770
      5 O          -0.3352    3.0329   -0.0002 O.2     1  LIG1       -0.4560
      6 H          -0.8661    1.0190   -0.0003 H       1  LIG1        0.1068
      7 O           2.0923    0.4270    0.0001 O.3     1  LIG1       -0.4919
      8 C           1.3636   -0.7922   -0.0000 C.3     1  LIG1        0.0789
      9 H           2.0997   -1.5970    0.0000 H       1  LIG1        0.0660
     10 H           0.7306   -0.8748    0.8936 H       1  LIG1        0.0660
     11 H           0.7308   -0.8748   -0.8938 H       1  LIG1        0.0660
     12 H           2.9493    3.0727    0.0002 H       1  LIG1        0.0693
     13 C           0.6550    5.1783   -0.0000 C.ar    1  LIG1        0.2121
     14 C           1.4069    6.3464    0.0001 C.ar    1  LIG1        0.1694
     15 C           0.4940    7.4387    0.0000 C.ar    1  LIG1        0.0300
     16 C          -0.7712    6.9071   -0.0000 C.ar    1  LIG1        0.1780
     17 O          -0.6771    5.5494   -0.0001 O.2     1  LIG1       -0.4447
     18 O           2.7324    6.6374    0.0001 O.3     1  LIG1       -0.4912
     19 C           3.6932    5.5934    0.0000 C.3     1  LIG1        0.0790
     20 H           4.6678    6.0844   -0.0001 H       1  LIG1        0.0660
     21 H           3.6066    4.9715    0.8973 H       1  LIG1        0.0660
     22 H           3.6064    4.9715   -0.8973 H       1  LIG1        0.0660
     23 H           0.8000    8.4695    0.0001 H       1  LIG1        0.0694
     24 C          -2.1336    7.4044   -0.0001 C.ar    1  LIG1        0.2111
     25 C          -2.8242    8.6124   -0.0002 C.ar    1  LIG1        0.1687
     26 C          -4.2201    8.2988   -0.0002 C.ar    1  LIG1        0.0187
     27 C          -4.3040    6.9445   -0.0001 C.ar    1  LIG1        0.0964
     28 O          -3.0737    6.3876   -0.0001 O.2     1  LIG1       -0.4560
     29 H          -5.1336    6.2547   -0.0001 H       1  LIG1        0.1031
     30 O          -2.4684    9.9206   -0.0002 O.3     1  LIG1       -0.4912
     31 C          -1.0983   10.2896   -0.0004 C.3     1  LIG1        0.0790
     32 H          -1.0827   11.3807   -0.0006 H       1  LIG1        0.0660
     33 H          -0.5877    9.9249    0.8972 H       1  LIG1        0.0660
     34 H          -0.5878    9.9245   -0.8979 H       1  LIG1        0.0660
     35 H          -5.0231    9.0201   -0.0002 H       1  LIG1        0.0686
@<TRIPOS>BOND
     1    34    31    1
     2    22    19    1
     3    11     8    1
     4    32    31    1
     5    31    30    1
     6    31    33    1
     7     6     1    1
     8    30    25    1
     9    35    26    1
    10     5     1   ar
    11     5     4   ar
    12    25    26   ar
    13    25    24   ar
    14     1     2   ar
    15    26    27   ar
    16    27    29    1
    17    27    28   ar
    18    24    28   ar
    19    24    16    1
    20    17    16   ar
    21    17    13   ar
    22    20    19    1
    23    16    15   ar
    24     8     9    1
    25     8     7    1
    26     8    10    1
    27     4    13    1
    28     4     3   ar
    29    13    14   ar
    30    19    18    1
    31    19    21    1
    32     2     7    1
    33     2     3   ar
    34    15    14   ar
    35    15    23    1
    36    14    18    1
    37     3    12    1
