@<TRIPOS>MOLECULE
mol_data/opt/b3lyp/geoms/mol2/12la12la12la12la.out
 46 49 0 0 0
SMALL
GASTEIGER

@<TRIPOS>ATOM
      1 C          -0.1099    1.7341   -0.0018 C.ar    1  LIG1        0.1342
      2 C           1.2422    1.5328   -0.0007 C.ar    1  LIG1        0.1583
      3 C           1.8600    2.8202    0.0004 C.ar    1  LIG1        0.0292
      4 C           0.8369    3.7408   -0.0002 C.ar    1  LIG1        0.1770
      5 O          -0.3618    3.0815   -0.0016 O.2     1  LIG1       -0.4560
      6 H          -0.9727    1.0907   -0.0029 H       1  LIG1        0.1068
      7 O           1.9607    0.3814   -0.0004 O.3     1  LIG1       -0.4919
      8 C           1.1849   -0.8082   -0.0015 C.3     1  LIG1        0.0789
      9 H           1.8890   -1.6412   -0.0012 H       1  LIG1        0.0660
     10 H           0.5483   -0.8665    0.8916 H       1  LIG1        0.0660
     11 H           0.5499   -0.8659   -0.8958 H       1  LIG1        0.0660
     12 H           2.9217    2.9897    0.0015 H       1  LIG1        0.0693
     13 C           0.7134    5.1855    0.0002 C.ar    1  LIG1        0.2121
     14 C           1.5132    6.3220    0.0008 C.ar    1  LIG1        0.1694
     15 C           0.6473    7.4506    0.0010 C.ar    1  LIG1        0.0300
     16 C          -0.6405    6.9719    0.0004 C.ar    1  LIG1        0.1780
     17 O          -0.6026    5.6113   -0.0001 O.2     1  LIG1       -0.4447
     18 O           2.8500    6.5577    0.0013 O.3     1  LIG1       -0.4912
     19 C           3.7672    5.4754    0.0009 C.3     1  LIG1        0.0790
     20 H           4.7610    5.9265    0.0009 H       1  LIG1        0.0660
     21 H           3.6555    4.8573    0.8980 H       1  LIG1        0.0660
     22 H           3.6553    4.8577   -0.8965 H       1  LIG1        0.0660
     23 H           0.9967    8.4674    0.0016 H       1  LIG1        0.0694
     24 C          -1.9756    7.5289    0.0002 C.ar    1  LIG1        0.2121
     25 C          -2.6116    8.7659   -0.0002 C.ar    1  LIG1        0.1694
     26 C          -4.0128    8.5217    0.0001 C.ar    1  LIG1        0.0300
     27 C          -4.1854    7.1595    0.0005 C.ar    1  LIG1        0.1780
     28 O          -2.9635    6.5612    0.0006 O.2     1  LIG1       -0.4447
     29 O          -2.2000   10.0581   -0.0008 O.3     1  LIG1       -0.4912
     30 C          -0.8154   10.3694   -0.0013 C.3     1  LIG1        0.0790
     31 H          -0.7549   11.4590   -0.0023 H       1  LIG1        0.0660
     32 H          -0.3200    9.9848    0.8964 H       1  LIG1        0.0660
     33 H          -0.3202    9.9832   -0.8985 H       1  LIG1        0.0660
     34 H          -4.7521    9.3022   -0.0001 H       1  LIG1        0.0694
     35 C          -5.2986    6.2310    0.0010 C.ar    1  LIG1        0.2111
     36 C          -6.6905    6.2401    0.0006 C.ar    1  LIG1        0.1687
     37 C          -7.1193    4.8753    0.0018 C.ar    1  LIG1        0.0187
     38 C          -5.9896    4.1236    0.0028 C.ar    1  LIG1        0.0964
     39 O          -4.8910    4.9080    0.0023 O.2     1  LIG1       -0.4560
     40 H          -5.8086    3.0599    0.0038 H       1  LIG1        0.1031
     41 O          -7.6440    7.2034   -0.0007 O.3     1  LIG1       -0.4912
     42 C          -7.2782    8.5744   -0.0023 C.3     1  LIG1        0.0790
     43 H          -8.2153    9.1334   -0.0037 H       1  LIG1        0.0660
     44 H          -6.7075    8.8353    0.8953 H       1  LIG1        0.0660
     45 H          -6.7064    8.8329   -0.8999 H       1  LIG1        0.0660
     46 H          -8.1462    4.5427    0.0019 H       1  LIG1        0.0686
@<TRIPOS>BOND
     1    45    42    1
     2    33    30    1
     3    22    19    1
     4    11     8    1
     5    43    42    1
     6     6     1    1
     7    42    41    1
     8    42    44    1
     9    31    30    1
    10     1     5   ar
    11     1     2   ar
    12     5     4   ar
    13     8     9    1
    14     8     7    1
    15     8    10    1
    16    30    29    1
    17    30    32    1
    18    29    25    1
    19    41    36    1
    20     2     7    1
    21     2     3   ar
    22     4    13    1
    23     4     3   ar
    24    25    26   ar
    25    25    24   ar
    26    17    13   ar
    27    17    16   ar
    28    34    26    1
    29    26    27   ar
    30    13    14   ar
    31    24    16    1
    32    24    28   ar
    33     3    12    1
    34    16    15   ar
    35    27    28   ar
    36    27    35    1
    37    36    35   ar
    38    36    37   ar
    39    14    15   ar
    40    14    18    1
    41    19    20    1
    42    19    18    1
    43    19    21    1
    44    35    39   ar
    45    15    23    1
    46    37    46    1
    47    37    38   ar
    48    39    38   ar
    49    38    40    1
