@<TRIPOS>MOLECULE
mol_data/opt/b3lyp/geoms/mol2/12la12la-12la12la-.out
 46 49 0 0 0
SMALL
GASTEIGER

@<TRIPOS>ATOM
      1 C          -0.2195    1.8231   -0.0001 C.ar    1  LIG1        0.1342
      2 C           1.1454    1.7128   -0.0001 C.ar    1  LIG1        0.1583
      3 C           1.6781    3.0383   -0.0000 C.ar    1  LIG1        0.0292
      4 C           0.5901    3.8771   -0.0000 C.ar    1  LIG1        0.1770
      5 O          -0.5670    3.1543   -0.0000 O.2     1  LIG1       -0.4560
      6 H          -1.0352    1.1211   -0.0001 H       1  LIG1        0.1068
      7 O           1.9317    0.6065   -0.0001 O.3     1  LIG1       -0.4919
      8 C           1.2301   -0.6279   -0.0001 C.3     1  LIG1        0.0789
      9 H           1.9835   -1.4167   -0.0001 H       1  LIG1        0.0660
     10 H           0.5989   -0.7246    0.8935 H       1  LIG1        0.0660
     11 H           0.5989   -0.7246   -0.8937 H       1  LIG1        0.0660
     12 H           2.7205    3.3152   -0.0000 H       1  LIG1        0.0693
     13 C           0.4760    5.3035   -0.0000 C.ar    1  LIG1        0.2121
     14 C          -0.5797    6.1951    0.0000 C.ar    1  LIG1        0.1694
     15 C          -0.0268    7.5077    0.0000 C.ar    1  LIG1        0.0300
     16 C           1.3419    7.3476   -0.0000 C.ar    1  LIG1        0.1780
     17 O           1.6562    6.0224   -0.0001 O.2     1  LIG1       -0.4447
     18 O          -1.8795    5.8158    0.0001 O.3     1  LIG1       -0.4912
     19 C          -2.8369    6.8655    0.0001 C.3     1  LIG1        0.0790
     20 H          -3.8152    6.3832    0.0002 H       1  LIG1        0.0660
     21 H          -2.7427    7.4951    0.8941 H       1  LIG1        0.0660
     22 H          -2.7428    7.4950   -0.8938 H       1  LIG1        0.0660
     23 H          -0.5416    8.4541    0.0001 H       1  LIG1        0.0694
     24 C           2.3661    8.3546   -0.0001 C.ar    1  LIG1        0.2121
     25 C           3.7529    8.4894   -0.0001 C.ar    1  LIG1        0.1694
     26 C           4.0391    9.8859   -0.0001 C.ar    1  LIG1        0.0300
     27 C           2.8323   10.5333   -0.0002 C.ar    1  LIG1        0.1780
     28 O           1.8175    9.6302   -0.0002 O.2     1  LIG1       -0.4447
     29 O           4.7887    7.6218    0.0000 O.3     1  LIG1       -0.4912
     30 C           4.5556    6.2161   -0.0000 C.3     1  LIG1        0.0790
     31 H           5.5458    5.7578   -0.0000 H       1  LIG1        0.0660
     32 H           4.0035    5.9036    0.8907 H       1  LIG1        0.0660
     33 H           4.0035    5.9037   -0.8908 H       1  LIG1        0.0660
     34 H           5.0230   10.3280   -0.0001 H       1  LIG1        0.0694
     35 C           2.4801   11.9207   -0.0003 C.ar    1  LIG1        0.2111
     36 C           1.2841   12.6128   -0.0003 C.ar    1  LIG1        0.1687
     37 C           1.6116   14.0077   -0.0004 C.ar    1  LIG1        0.0187
     38 C           2.9734   14.0683   -0.0004 C.ar    1  LIG1        0.0964
     39 O           3.5158   12.8255   -0.0004 O.2     1  LIG1       -0.4560
     40 H           3.6728   14.8894   -0.0004 H       1  LIG1        0.1031
     41 O           0.0669   12.0177   -0.0002 O.3     1  LIG1       -0.4912
     42 C          -1.0557   12.8895   -0.0003 C.3     1  LIG1        0.0790
     43 H          -1.9381   12.2486   -0.0002 H       1  LIG1        0.0660
     44 H          -1.0711   13.5250    0.8943 H       1  LIG1        0.0660
     45 H          -1.0711   13.5248   -0.8949 H       1  LIG1        0.0660
     46 H           0.9332   14.8470   -0.0004 H       1  LIG1        0.0686
@<TRIPOS>BOND
     1    45    42    1
     2    22    19    1
     3    11     8    1
     4    33    30    1
     5    46    37    1
     6    40    38    1
     7    37    38   ar
     8    37    36   ar
     9    38    39   ar
    10    39    35   ar
    11    36    35   ar
    12    36    41    1
    13    35    27    1
    14    42    41    1
    15    42    43    1
    16    42    44    1
    17    27    28   ar
    18    27    26   ar
    19    28    24   ar
    20     9     8    1
    21    34    26    1
    22    26    25   ar
    23     8     7    1
    24     8    10    1
    25     7     2    1
    26    24    25   ar
    27    24    16    1
    28     2     1   ar
    29     2     3   ar
    30     6     1    1
    31     1     5   ar
    32    25    29    1
    33    17    16   ar
    34    17    13   ar
    35     5     4   ar
    36    31    30    1
    37     3     4   ar
    38     3    12    1
    39    30    29    1
    40    30    32    1
    41     4    13    1
    42    16    15   ar
    43    13    14   ar
    44    15    14   ar
    45    15    23    1
    46    14    18    1
    47    18    19    1
    48    19    20    1
    49    19    21    1
