@<TRIPOS>MOLECULE
mol_data/opt/b3lyp/geoms/mol2/12la12la-12la12la.out
 46 49 0 0 0
SMALL
GASTEIGER

@<TRIPOS>ATOM
      1 C          -0.2934    1.7057   -0.0001 C.ar    1  LIG1        0.1342
      2 C           1.0700    1.5784   -0.0001 C.ar    1  LIG1        0.1583
      3 C           1.6189    2.8974   -0.0000 C.ar    1  LIG1        0.0292
      4 C           0.5412    3.7494   -0.0001 C.ar    1  LIG1        0.1770
      5 O          -0.6244    3.0407   -0.0002 O.2     1  LIG1       -0.4560
      6 H          -1.1177    1.0140   -0.0002 H       1  LIG1        0.1068
      7 O           1.8420    0.4622   -0.0001 O.3     1  LIG1       -0.4919
      8 C           1.1243   -0.7631   -0.0001 C.3     1  LIG1        0.0789
      9 H           1.8675   -1.5615   -0.0001 H       1  LIG1        0.0660
     10 H           0.4919   -0.8514    0.8935 H       1  LIG1        0.0660
     11 H           0.4920   -0.8514   -0.8939 H       1  LIG1        0.0660
     12 H           2.6646    3.1611    0.0001 H       1  LIG1        0.0693
     13 C           0.4417    5.1772   -0.0001 C.ar    1  LIG1        0.2121
     14 C          -0.6067    6.0775   -0.0001 C.ar    1  LIG1        0.1694
     15 C          -0.0424    7.3853   -0.0001 C.ar    1  LIG1        0.0300
     16 C           1.3244    7.2138   -0.0000 C.ar    1  LIG1        0.1780
     17 O           1.6277    5.8859   -0.0000 O.2     1  LIG1       -0.4447
     18 O          -1.9091    5.7097   -0.0001 O.3     1  LIG1       -0.4912
     19 C          -2.8586    6.7676   -0.0002 C.3     1  LIG1        0.0790
     20 H          -3.8404    6.2926   -0.0002 H       1  LIG1        0.0660
     21 H          -2.7595    7.3959    0.8939 H       1  LIG1        0.0660
     22 H          -2.7594    7.3960   -0.8942 H       1  LIG1        0.0660
     23 H          -0.5524    8.3347   -0.0001 H       1  LIG1        0.0694
     24 C           2.3612    8.2089    0.0000 C.ar    1  LIG1        0.2121
     25 C           3.7462    8.3239    0.0002 C.ar    1  LIG1        0.1694
     26 C           4.0499    9.7165    0.0001 C.ar    1  LIG1        0.0300
     27 C           2.8574   10.3955   -0.0000 C.ar    1  LIG1        0.1780
     28 O           1.8367    9.4905   -0.0001 O.2     1  LIG1       -0.4447
     29 O           4.7764    7.4489    0.0003 O.3     1  LIG1       -0.4912
     30 C           4.5327    6.0445    0.0003 C.3     1  LIG1        0.0790
     31 H           5.5195    5.5789    0.0004 H       1  LIG1        0.0660
     32 H           3.9781    5.7364    0.8909 H       1  LIG1        0.0660
     33 H           3.9783    5.7364   -0.8905 H       1  LIG1        0.0660
     34 H           5.0522   10.1056    0.0002 H       1  LIG1        0.0694
     35 C           2.4170   11.7762   -0.0001 C.ar    1  LIG1        0.2111
     36 C           2.9488   13.0620   -0.0003 C.ar    1  LIG1        0.1687
     37 C           1.8458   13.9735   -0.0003 C.ar    1  LIG1        0.0187
     38 C           0.7236   13.2114   -0.0000 C.ar    1  LIG1        0.0964
     39 O           1.0360   11.8965   -0.0001 O.2     1  LIG1       -0.4560
     40 H          -0.3295   13.4460    0.0001 H       1  LIG1        0.1031
     41 O           4.1998   13.5815   -0.0004 O.3     1  LIG1       -0.4912
     42 C           5.3318   12.7248   -0.0006 C.3     1  LIG1        0.0790
     43 H           6.2030   13.3816   -0.0010 H       1  LIG1        0.0660
     44 H           5.3565   12.0983    0.8972 H       1  LIG1        0.0660
     45 H           5.3560   12.0979   -0.8982 H       1  LIG1        0.0660
     46 H           1.9248   15.0500   -0.0005 H       1  LIG1        0.0686
@<TRIPOS>BOND
     1    45    42    1
     2    22    19    1
     3    11     8    1
     4    33    30    1
     5    43    42    1
     6    42    41    1
     7    42    44    1
     8    46    37    1
     9    41    36    1
    10    37    36   ar
    11    37    38   ar
    12    36    35   ar
    13    20    19    1
    14     5     1   ar
    15     5     4   ar
    16    19    18    1
    17    19    21    1
    18     6     1    1
    19     8     9    1
    20     8     7    1
    21     8    10    1
    22    35    39   ar
    23    35    27    1
    24    18    14    1
    25     1     2   ar
    26    28    27   ar
    27    28    24   ar
    28    14    13   ar
    29    14    15   ar
    30     2     7    1
    31     2     3   ar
    32     4    13    1
    33     4     3   ar
    34    13    17   ar
    35    23    15    1
    36    39    38   ar
    37    15    16   ar
    38    27    26   ar
    39    38    40    1
    40    16    17   ar
    41    16    24    1
    42     3    12    1
    43    24    25   ar
    44    26    25   ar
    45    26    34    1
    46    25    29    1
    47    30    29    1
    48    30    31    1
    49    30    32    1
