@<TRIPOS>MOLECULE
mol_data/opt/b3lyp/geoms/mol2/12la12la12la-12la-.out
 46 49 0 0 0
SMALL
GASTEIGER

@<TRIPOS>ATOM
      1 C          -0.0593    1.7345   -0.0001 C.ar    1  LIG1        0.1342
      2 C           1.3005    1.5962    0.0000 C.ar    1  LIG1        0.1583
      3 C           1.8586    2.9105    0.0001 C.ar    1  LIG1        0.0292
      4 C           0.7944    3.7841   -0.0000 C.ar    1  LIG1        0.1770
      5 O          -0.3731    3.0695   -0.0002 O.2     1  LIG1       -0.4560
      6 H          -0.8914    1.0519   -0.0002 H       1  LIG1        0.1068
      7 O           2.0708    0.4781    0.0001 O.3     1  LIG1       -0.4919
      8 C           1.3495   -0.7447    0.0000 C.3     1  LIG1        0.0789
      9 H           2.0898   -1.5458    0.0001 H       1  LIG1        0.0660
     10 H           0.7166   -0.8314    0.8935 H       1  LIG1        0.0660
     11 H           0.7168   -0.8314   -0.8936 H       1  LIG1        0.0660
     12 H           2.9111    3.1286    0.0003 H       1  LIG1        0.0693
     13 C           0.6025    5.2208   -0.0001 C.ar    1  LIG1        0.2121
     14 C           1.3492    6.3976   -0.0000 C.ar    1  LIG1        0.1694
     15 C           0.4327    7.4850   -0.0001 C.ar    1  LIG1        0.0300
     16 C          -0.8229    6.9339   -0.0001 C.ar    1  LIG1        0.1780
     17 O          -0.7379    5.5799   -0.0001 O.2     1  LIG1       -0.4447
     18 O           2.6751    6.6874   -0.0000 O.3     1  LIG1       -0.4912
     19 C           3.6374    5.6462   -0.0002 C.3     1  LIG1        0.0790
     20 H           4.6110    6.1394   -0.0004 H       1  LIG1        0.0660
     21 H           3.5533    5.0237    0.8970 H       1  LIG1        0.0660
     22 H           3.5530    5.0237   -0.8974 H       1  LIG1        0.0660
     23 H           0.6927    8.5318   -0.0000 H       1  LIG1        0.0694
     24 C          -2.1234    7.5244   -0.0001 C.ar    1  LIG1        0.2121
     25 C          -3.4172    7.0310   -0.0001 C.ar    1  LIG1        0.1694
     26 C          -4.2964    8.1514   -0.0001 C.ar    1  LIG1        0.0300
     27 C          -3.4869    9.2661   -0.0002 C.ar    1  LIG1        0.1780
     28 O          -2.1755    8.9012   -0.0001 O.2     1  LIG1       -0.4447
     29 O          -3.7136    5.7118   -0.0001 O.3     1  LIG1       -0.4912
     30 C          -5.0946    5.3792   -0.0001 C.3     1  LIG1        0.0790
     31 H          -5.1434    4.2897   -0.0001 H       1  LIG1        0.0660
     32 H          -5.6006    5.7654    0.8940 H       1  LIG1        0.0660
     33 H          -5.6005    5.7654   -0.8942 H       1  LIG1        0.0660
     34 H          -5.3743    8.1604   -0.0001 H       1  LIG1        0.0694
     35 C          -3.7958   10.6629   -0.0002 C.ar    1  LIG1        0.2111
     36 C          -4.9994   11.3410   -0.0003 C.ar    1  LIG1        0.1687
     37 C          -4.6936   12.7379   -0.0003 C.ar    1  LIG1        0.0187
     38 C          -3.3310   12.8138   -0.0002 C.ar    1  LIG1        0.0964
     39 O          -2.7726   11.5775   -0.0002 O.2     1  LIG1       -0.4560
     40 H          -2.6413   13.6429   -0.0001 H       1  LIG1        0.1031
     41 O          -6.2028   10.7117   -0.0003 O.3     1  LIG1       -0.4912
     42 C          -7.3498   11.5524   -0.0004 C.3     1  LIG1        0.0790
     43 H          -8.2152   10.8887   -0.0004 H       1  LIG1        0.0660
     44 H          -7.3799   12.1870    0.8941 H       1  LIG1        0.0660
     45 H          -7.3798   12.1869   -0.8950 H       1  LIG1        0.0660
     46 H          -5.3823   13.5688   -0.0004 H       1  LIG1        0.0686
@<TRIPOS>BOND
     1    22    19    1
     2    45    42    1
     3    33    30    1
     4    11     8    1
     5    43    42    1
     6    20    19    1
     7    46    37    1
     8    42    41    1
     9    42    44    1
    10    37    36   ar
    11    37    38   ar
    12    41    36    1
    13    36    35   ar
    14     6     1    1
    15    39    35   ar
    16    39    38   ar
    17    35    27    1
    18    19    18    1
    19    19    21    1
    20     5     1   ar
    21     5     4   ar
    22    27    28   ar
    23    27    26   ar
    24    38    40    1
    25    28    24   ar
    26    34    26    1
    27    26    25   ar
    28     1     2   ar
    29    24    25   ar
    30    24    16    1
    31    25    29    1
    32    30    31    1
    33    30    29    1
    34    30    32    1
    35    17    16   ar
    36    17    13   ar
    37    16    15   ar
    38    13    14   ar
    39    13     4    1
    40    15    23    1
    41    15    14   ar
    42    14    18    1
    43     4     3   ar
    44     8     9    1
    45     8     7    1
    46     8    10    1
    47     2     3   ar
    48     2     7    1
    49     3    12    1
