@<TRIPOS>MOLECULE
mol_data/opt/b3lyp/geoms/mol2/12la6fi-13hi4le6ah13dl12he6he.out
 103 110 0 0 0
SMALL
GASTEIGER

@<TRIPOS>ATOM
      1 C           3.4272    4.6325   -4.5763 C.ar    1  LIG1        0.1341
      2 C           4.0501    3.8192   -3.6706 C.ar    1  LIG1        0.1582
      3 C           3.4819    4.0935   -2.3868 C.ar    1  LIG1        0.0262
      4 C           2.5308    5.0613   -2.5763 C.ar    1  LIG1        0.1435
      5 O           2.4905    5.3964   -3.9111 O.2     1  LIG1       -0.4590
      6 H           3.5073    4.7936   -5.6369 H       1  LIG1        0.1068
      7 O           5.0299    2.9041   -3.8518 O.3     1  LIG1       -0.4919
      8 C           5.4868    2.7631   -5.1913 C.3     1  LIG1        0.0789
      9 H           6.2665    2.0012   -5.1757 H       1  LIG1        0.0660
     10 H           4.6725    2.4411   -5.8535 H       1  LIG1        0.0660
     11 H           5.9036    3.7069   -5.5667 H       1  LIG1        0.0660
     12 H           3.7718    3.6291   -1.4571 H       1  LIG1        0.0692
     13 C           0.8369    6.8802   -2.0382 C.ar    1  LIG1        0.2239
     14 C           1.6170    5.7472   -1.6762 C.ar    1  LIG1        0.0789
     15 C           1.4497    5.2914   -0.3605 C.ar    1  LIG1       -0.0410
     16 C           0.6229    5.9288    0.5605 C.ar    1  LIG1       -0.0221
     17 C          -0.0152    7.1125    0.1107 C.ar    1  LIG1        0.0956
     18 N           0.0762    7.5271   -1.1728 N.ar    1  LIG1       -0.2106
     19 H           1.9564    4.3788   -0.0585 H       1  LIG1        0.0630
     20 O           0.8191    7.3991   -3.2877 O.3     1  LIG1       -0.4919
     21 H           1.3792    6.8563   -3.8655 H       1  LIG1        0.2938
     22 C           0.3364    5.2848    1.8945 C.3     1  LIG1       -0.0376
     23 H          -0.7317    5.0537    1.9830 H       1  LIG1        0.0278
     24 H           0.5752    5.9252    2.7476 H       1  LIG1        0.0278
     25 H           0.8908    4.3469    1.9911 H       1  LIG1        0.0278
     26 C          -0.8796    7.9546    0.9350 C.ar    1  LIG1        0.0869
     27 C          -0.8334    8.4317    2.2548 C.ar    1  LIG1        0.0552
     28 C          -1.9101    9.3423    2.4348 C.ar    1  LIG1       -0.0038
     29 C          -2.5893    9.4165    1.2056 C.ar    1  LIG1        0.0552
     30 N          -1.9348    8.5952    0.3308 N.ar    1  LIG1       -0.3512
     31 H          -2.1452    8.5198   -0.6540 H       1  LIG1        0.1660
     32 N           0.1391    8.1158    3.2222 N.pl3   1  LIG1       -0.3561
     33 H           1.0829    8.1503    2.8522 H       1  LIG1        0.1424
     34 H           0.0790    8.7147    4.0369 H       1  LIG1        0.1424
     35 C          -2.1635   10.1302    3.6869 C.3     1  LIG1       -0.0359
     36 H          -2.6352   11.0920    3.4697 H       1  LIG1        0.0279
     37 H          -1.2227   10.3537    4.2063 H       1  LIG1        0.0279
     38 H          -2.8040    9.6041    4.4072 H       1  LIG1        0.0279
     39 C          -4.0076   10.5520   -0.5489 C.ar    1  LIG1        0.1298
     40 C          -5.1353   11.2824   -0.9033 C.ar    1  LIG1       -0.0104
     41 C          -3.7656   10.1842    0.7980 C.ar    1  LIG1        0.0414
     42 C          -6.0905   11.6926    0.0371 C.ar    1  LIG1        0.0025
     43 H          -5.2837   11.5005   -1.9558 H       1  LIG1        0.0661
     44 C          -4.7345   10.5797    1.7335 C.ar    1  LIG1       -0.0331
     45 C          -5.8720   11.3289    1.3913 C.ar    1  LIG1        0.0333
     46 H          -4.6215   10.2856    2.7687 H       1  LIG1        0.0638
     47 O          -3.1590   10.1347   -1.5588 O.3     1  LIG1       -0.4944
     48 C          -2.0709   11.0265   -1.8456 C.3     1  LIG1        0.0788
     49 H          -2.4443   11.9714   -2.2584 H       1  LIG1        0.0660
     50 H          -1.4783   11.2295   -0.9470 H       1  LIG1        0.0660
     51 H          -1.4454   10.5185   -2.5808 H       1  LIG1        0.0660
     52 C          -6.7543   11.7182    2.4488 C.1     1  LIG1       -0.0690
     53 C          -7.4582   12.0296    3.3830 C.1     1  LIG1       -0.1139
     54 H          -8.0922   12.3129    4.1912 H       1  LIG1        0.1232
     55 C          -8.5778   12.1688    0.0027 C.ar    1  LIG1        0.0362
     56 C          -7.2676   12.4681   -0.4175 C.ar    1  LIG1        0.0033
     57 C          -7.1320   13.5136   -1.3277 C.ar    1  LIG1       -0.0297
     58 C          -8.2382   14.2418   -1.8023 C.ar    1  LIG1        0.0530
     59 C          -9.5190   13.8291   -1.3384 C.ar    1  LIG1        0.1090
     60 N          -9.6398   12.8197   -0.4456 N.ar    1  LIG1       -0.2510
     61 H          -6.1395   13.8104   -1.6578 H       1  LIG1        0.0643
     62 H          -8.7617   11.3670    0.7100 H       1  LIG1        0.0836
     63 N          -8.0128   15.3520   -2.5903 N.pl3   1  LIG1       -0.3563
     64 H          -7.0765   15.4309   -2.9606 H       1  LIG1        0.1424
     65 H          -8.7131   15.6452   -3.2556 H       1  LIG1        0.1424
     66 C         -10.8158   14.4386   -1.6642 C.ar    1  LIG1        0.0885
     67 C         -11.3632   15.2614   -2.6715 C.ar    1  LIG1        0.1208
     68 C         -12.7510   15.4520   -2.3641 C.ar    1  LIG1        0.1663
     69 C         -13.0334   14.7447   -1.2010 C.ar    1  LIG1        0.1280
     70 N         -11.8495   14.1545   -0.8181 N.ar    1  LIG1       -0.3465
     71 H         -11.7007   13.5439   -0.0251 H       1  LIG1        0.1662
     72 N         -10.2783   16.1123   -4.8512 N.1     1  LIG1       -0.1907
     73 C         -10.7634   15.7210   -3.8637 C.1     1  LIG1        0.1050
     74 O         -13.6609   16.1396   -3.1222 O.3     1  LIG1       -0.4916
     75 C         -13.4401   17.5614   -3.1965 C.3     1  LIG1        0.0789
     76 H         -14.2293   17.9566   -3.8382 H       1  LIG1        0.0660
     77 H         -13.5096   18.0132   -2.2011 H       1  LIG1        0.0660
     78 H         -12.4675   17.7858   -3.6428 H       1  LIG1        0.0660
     79 C         -14.2383   14.5520   -0.4466 C.ar    1  LIG1        0.1771
     80 C         -15.5229   15.0462   -0.5079 C.ar    1  LIG1        0.0888
     81 C         -16.2452   14.4347    0.5827 C.ar    1  LIG1        0.0918
     82 C         -15.3540   13.6049    1.2499 C.ar    1  LIG1        0.1562
     83 O         -14.1428   13.6727    0.6234 O.2     1  LIG1       -0.4499
     84 N         -16.0511   15.9762   -1.3766 N.pl3   1  LIG1       -0.3540
     85 H         -15.5719   16.0374   -2.2671 H       1  LIG1        0.1425
     86 H         -17.0602   15.9566   -1.4402 H       1  LIG1        0.1425
     87 C         -17.6209   14.6600    0.8253 C.1     1  LIG1       -0.0640
     88 C         -18.8012   14.8969    0.9653 C.1     1  LIG1       -0.1137
     89 H         -19.8393   15.0858    1.1141 H       1  LIG1        0.1232
     90 C         -14.5905   11.6574    2.6980 C.ar    1  LIG1        0.1270
     91 C         -15.4796   12.7466    2.4161 C.ar    1  LIG1        0.0592
     92 C         -16.5251   12.9565    3.3213 C.ar    1  LIG1       -0.0309
     93 C         -16.6911   12.1317    4.4421 C.ar    1  LIG1        0.0436
     94 C         -15.7563   11.0938    4.6078 C.ar    1  LIG1        0.0451
     95 N         -14.7507   10.8636    3.7728 N.ar    1  LIG1       -0.2388
     96 H         -17.2178   13.7726    3.1570 H       1  LIG1        0.0638
     97 H         -15.8405   10.4235    5.4604 H       1  LIG1        0.0843
     98 N         -13.5123   11.3509    1.9184 N.pl3   1  LIG1       -0.3426
     99 H         -13.0791   10.4616    2.1149 H       1  LIG1        0.1437
    100 H         -13.4330   11.7363    0.9928 H       1  LIG1        0.1437
    101 C         -17.7470   12.3321    5.3789 C.1     1  LIG1       -0.0681
    102 C         -18.6406   12.4948    6.1794 C.1     1  LIG1       -0.1139
    103 H         -19.4258   12.6387    6.8844 H       1  LIG1        0.1232
@<TRIPOS>BOND
     1    10     8    1
     2     6     1    1
     3    11     8    1
     4     8     9    1
     5     8     7    1
     6    72    73    3
     7     1     5   ar
     8     1     2   ar
     9     5     4   ar
    10    21    20    1
    11    73    67    1
    12     7     2    1
    13    76    75    1
    14     2     3   ar
    15    78    75    1
    16    20    13    1
    17    65    63    1
    18    75    74    1
    19    75    77    1
    20    74    68    1
    21    64    63    1
    22    67    68   ar
    23    67    66   ar
    24    63    58    1
    25    51    48    1
    26     4     3   ar
    27     4    14    1
    28     3    12    1
    29    68    69   ar
    30    85    84    1
    31    49    48    1
    32    13    14   ar
    33    13    18   ar
    34    43    40    1
    35    48    47    1
    36    48    50    1
    37    58    59   ar
    38    58    57   ar
    39    14    15   ar
    40    66    59    1
    41    66    70   ar
    42    61    57    1
    43    47    39    1
    44    86    84    1
    45    84    80    1
    46    59    60   ar
    47    57    56   ar
    48    69    70   ar
    49    69    79    1
    50    18    17   ar
    51    40    39   ar
    52    40    42   ar
    53    70    71    1
    54    31    30    1
    55    39    41   ar
    56    80    79   ar
    57    80    81   ar
    58    79    83   ar
    59    60    55   ar
    60    56    55   ar
    61    56    42    1
    62    15    19    1
    63    15    16   ar
    64    55    62    1
    65    42    45   ar
    66    17    16   ar
    67    17    26    1
    68    30    26   ar
    69    30    29   ar
    70    16    22    1
    71    81    87    1
    72    81    82   ar
    73    83    82   ar
    74    41    29    1
    75    41    44   ar
    76    87    88    3
    77    26    27   ar
    78    88    89    1
    79   100    98    1
    80    29    28   ar
    81    82    91    1
    82    45    44   ar
    83    45    52    1
    84    44    46    1
    85    22    23    1
    86    22    25    1
    87    22    24    1
    88    98    99    1
    89    98    90    1
    90    27    28   ar
    91    27    32    1
    92    91    90   ar
    93    91    92   ar
    94    28    35    1
    95    52    53    3
    96    90    95   ar
    97    33    32    1
    98    96    92    1
    99    32    34    1
   100    92    93   ar
   101    53    54    1
   102    36    35    1
   103    35    37    1
   104    35    38    1
   105    95    94   ar
   106    93    94   ar
   107    93   101    1
   108    94    97    1
   109   101   102    3
   110   102   103    1
