@<TRIPOS>MOLECULE
mol_data/opt/b3lyp/geoms/mol2/12la12la-12la.out
 35 37 0 0 0
SMALL
GASTEIGER

@<TRIPOS>ATOM
      1 C          -0.1308    1.7625   -0.0001 C.ar    1  LIG1        0.1342
      2 C           1.2375    1.7068    0.0000 C.ar    1  LIG1        0.1583
      3 C           1.7162    3.0529   -0.0000 C.ar    1  LIG1        0.0292
      4 C           0.5954    3.8468   -0.0001 C.ar    1  LIG1        0.1770
      5 O          -0.5314    3.0782   -0.0001 O.2     1  LIG1       -0.4560
      6 H          -0.9179    1.0283   -0.0001 H       1  LIG1        0.1068
      7 O           2.0675    0.6333    0.0001 O.3     1  LIG1       -0.4919
      8 C           1.4165   -0.6287    0.0001 C.3     1  LIG1        0.0789
      9 H           2.2014   -1.3861    0.0001 H       1  LIG1        0.0660
     10 H           0.7899   -0.7510    0.8938 H       1  LIG1        0.0660
     11 H           0.7900   -0.7510   -0.8937 H       1  LIG1        0.0660
     12 H           2.7465    3.3712    0.0000 H       1  LIG1        0.0693
     13 C           0.4210    5.2681   -0.0001 C.ar    1  LIG1        0.2121
     14 C          -0.6727    6.1116   -0.0001 C.ar    1  LIG1        0.1694
     15 C          -0.1759    7.4477   -0.0001 C.ar    1  LIG1        0.0300
     16 C           1.1968    7.3478   -0.0001 C.ar    1  LIG1        0.1780
     17 O           1.5679    6.0380   -0.0001 O.2     1  LIG1       -0.4447
     18 O          -1.9543    5.6768   -0.0000 O.3     1  LIG1       -0.4912
     19 C          -2.9584    6.6828   -0.0001 C.3     1  LIG1        0.0790
     20 H          -3.9136    6.1565   -0.0000 H       1  LIG1        0.0660
     21 H          -2.8932    7.3155    0.8941 H       1  LIG1        0.0660
     22 H          -2.8932    7.3155   -0.8943 H       1  LIG1        0.0660
     23 H          -0.7370    8.3677   -0.0001 H       1  LIG1        0.0694
     24 C           2.1853    8.3959   -0.0002 C.ar    1  LIG1        0.2111
     25 C           3.5643    8.5725   -0.0001 C.ar    1  LIG1        0.1687
     26 C           3.8018    9.9865   -0.0002 C.ar    1  LIG1        0.0187
     27 C           2.5835   10.5809   -0.0003 C.ar    1  LIG1        0.0964
     28 O           1.5965    9.6526   -0.0003 O.2     1  LIG1       -0.4560
     29 H           2.2625   11.6110   -0.0004 H       1  LIG1        0.1031
     30 O           4.6330    7.7458    0.0000 O.3     1  LIG1       -0.4912
     31 C           4.4566    6.3316   -0.0001 C.3     1  LIG1        0.0790
     32 H           5.4643    5.9134   -0.0000 H       1  LIG1        0.0660
     33 H           3.9172    5.9977    0.8907 H       1  LIG1        0.0660
     34 H           3.9173    5.9978   -0.8909 H       1  LIG1        0.0660
     35 H           4.7734   10.4560   -0.0001 H       1  LIG1        0.0686
@<TRIPOS>BOND
     1    22    19    1
     2    11     8    1
     3    34    31    1
     4    29    27    1
     5    27    28   ar
     6    27    26   ar
     7    28    24   ar
     8    24    16    1
     9    24    25   ar
    10    26    35    1
    11    26    25   ar
    12     6     1    1
    13    16    17   ar
    14    16    15   ar
    15    17    13   ar
    16     1     5   ar
    17     1     2   ar
    18    25    30    1
    19    15    23    1
    20    15    14   ar
    21    13    14   ar
    22    13     4    1
    23    14    18    1
    24    31    32    1
    25    31    30    1
    26    31    33    1
    27     5     4   ar
    28    19    18    1
    29    19    20    1
    30    19    21    1
    31     4     3   ar
    32     3     2   ar
    33     3    12    1
    34     2     7    1
    35     8     7    1
    36     8     9    1
    37     8    10    1
