@<TRIPOS>MOLECULE
mol_data/opt/b3lyp/geoms/mol2/12la12la12la12la-.out
 46 49 0 0 0
SMALL
GASTEIGER

@<TRIPOS>ATOM
      1 C          -0.1171    1.7134   -0.0004 C.ar    1  LIG1        0.1342
      2 C           1.2399    1.5508   -0.0001 C.ar    1  LIG1        0.1583
      3 C           1.8207    2.8551    0.0001 C.ar    1  LIG1        0.0292
      4 C           0.7720    3.7467   -0.0001 C.ar    1  LIG1        0.1770
      5 O          -0.4079    3.0537   -0.0004 O.2     1  LIG1       -0.4560
      6 H          -0.9599    1.0442   -0.0007 H       1  LIG1        0.1068
      7 O           1.9910    0.4202    0.0000 O.3     1  LIG1       -0.4919
      8 C           1.2503   -0.7910   -0.0003 C.3     1  LIG1        0.0789
      9 H           1.9779   -1.6037   -0.0001 H       1  LIG1        0.0660
     10 H           0.6161   -0.8677    0.8933 H       1  LIG1        0.0660
     11 H           0.6166   -0.8676   -0.8942 H       1  LIG1        0.0660
     12 H           2.8770    3.0543    0.0004 H       1  LIG1        0.0693
     13 C           0.6117    5.1877   -0.0000 C.ar    1  LIG1        0.2121
     14 C           1.3851    6.3423    0.0001 C.ar    1  LIG1        0.1694
     15 C           0.4940    7.4505    0.0001 C.ar    1  LIG1        0.0300
     16 C          -0.7832    6.9432   -0.0001 C.ar    1  LIG1        0.1780
     17 O          -0.7141    5.5833   -0.0001 O.2     1  LIG1       -0.4447
     18 O           2.7160    6.6104    0.0003 O.3     1  LIG1       -0.4912
     19 C           3.6610    5.5527    0.0002 C.3     1  LIG1        0.0790
     20 H           4.6428    6.0296    0.0001 H       1  LIG1        0.0660
     21 H           3.5661    4.9319    0.8974 H       1  LIG1        0.0660
     22 H           3.5660    4.9320   -0.8972 H       1  LIG1        0.0660
     23 H           0.8207    8.4746    0.0002 H       1  LIG1        0.0694
     24 C          -2.1295    7.4716   -0.0002 C.ar    1  LIG1        0.2121
     25 C          -2.7913    8.6993   -0.0003 C.ar    1  LIG1        0.1694
     26 C          -4.1876    8.4297   -0.0003 C.ar    1  LIG1        0.0300
     27 C          -4.3187    7.0658   -0.0003 C.ar    1  LIG1        0.1780
     28 O          -3.0974    6.4782   -0.0002 O.2     1  LIG1       -0.4447
     29 O          -2.3988    9.9971   -0.0003 O.3     1  LIG1       -0.4912
     30 C          -1.0210   10.3344   -0.0004 C.3     1  LIG1        0.0790
     31 H          -0.9813   11.4250   -0.0006 H       1  LIG1        0.0660
     32 H          -0.5179    9.9594    0.8971 H       1  LIG1        0.0660
     33 H          -0.5179    9.9590   -0.8979 H       1  LIG1        0.0660
     34 H          -4.9733    9.1685   -0.0004 H       1  LIG1        0.0694
     35 C          -5.4712    6.2163   -0.0003 C.ar    1  LIG1        0.2111
     36 C          -5.6634    4.8481   -0.0002 C.ar    1  LIG1        0.1687
     37 C          -7.0795    4.6279   -0.0003 C.ar    1  LIG1        0.0187
     38 C          -7.6468    5.8675   -0.0005 C.ar    1  LIG1        0.0964
     39 O          -6.6992    6.8372   -0.0005 O.2     1  LIG1       -0.4560
     40 H          -8.6706    6.2072   -0.0006 H       1  LIG1        0.1031
     41 O          -4.6544    3.9500    0.0000 O.3     1  LIG1       -0.4912
     42 C          -5.0255    2.5797    0.0002 C.3     1  LIG1        0.0790
     43 H          -4.0917    2.0168    0.0003 H       1  LIG1        0.0660
     44 H          -5.6060    2.3198    0.8949 H       1  LIG1        0.0660
     45 H          -5.6058    2.3196   -0.8946 H       1  LIG1        0.0660
     46 H          -7.6018    3.6837   -0.0002 H       1  LIG1        0.0686
@<TRIPOS>BOND
     1    33    30    1
     2    22    19    1
     3    45    42    1
     4    11     8    1
     5     6     1    1
     6    31    30    1
     7    40    38    1
     8    39    38   ar
     9    39    35   ar
    10    38    37   ar
    11    30    29    1
    12    30    32    1
    13    34    26    1
    14     1     5   ar
    15     1     2   ar
    16     5     4   ar
    17    26    27   ar
    18    26    25   ar
    19    29    25    1
    20    35    27    1
    21    35    36   ar
    22    27    28   ar
    23    25    24   ar
    24    37    46    1
    25    37    36   ar
    26     8     9    1
    27     8     7    1
    28     8    10    1
    29    28    24   ar
    30    24    16    1
    31    36    41    1
    32    17    16   ar
    33    17    13   ar
    34     2     7    1
    35     2     3   ar
    36    16    15   ar
    37     4    13    1
    38     4     3   ar
    39    13    14   ar
    40    41    42    1
    41    15    14   ar
    42    15    23    1
    43     3    12    1
    44    20    19    1
    45    14    18    1
    46    42    43    1
    47    42    44    1
    48    19    18    1
    49    19    21    1
