@<TRIPOS>MOLECULE
mol_data/opt/b3lyp/geoms/mol2/12la12la12la-12la.out
 46 49 0 0 0
SMALL
GASTEIGER

@<TRIPOS>ATOM
      1 C          -0.0439    1.6103   -0.0002 C.ar    1  LIG1        0.1342
      2 C           1.3172    1.4856    0.0001 C.ar    1  LIG1        0.1583
      3 C           1.8620    2.8056    0.0001 C.ar    1  LIG1        0.0292
      4 C           0.7890    3.6681   -0.0001 C.ar    1  LIG1        0.1770
      5 O          -0.3712    2.9420   -0.0003 O.2     1  LIG1       -0.4560
      6 H          -0.8688    0.9192   -0.0004 H       1  LIG1        0.1068
      7 O           2.0988    0.3758    0.0004 O.3     1  LIG1       -0.4919
      8 C           1.3902   -0.8548    0.0003 C.3     1  LIG1        0.0789
      9 H           2.1392   -1.6478    0.0005 H       1  LIG1        0.0660
     10 H           0.7584   -0.9479    0.8938 H       1  LIG1        0.0660
     11 H           0.7588   -0.9480   -0.8935 H       1  LIG1        0.0660
     12 H           2.9125    3.0340    0.0004 H       1  LIG1        0.0693
     13 C           0.5831    5.1029   -0.0001 C.ar    1  LIG1        0.2121
     14 C           1.3185    6.2858   -0.0002 C.ar    1  LIG1        0.1694
     15 C           0.3912    7.3646   -0.0002 C.ar    1  LIG1        0.0300
     16 C          -0.8601    6.8029   -0.0002 C.ar    1  LIG1        0.1780
     17 O          -0.7605    5.4499   -0.0002 O.2     1  LIG1       -0.4447
     18 O           2.6409    6.5902   -0.0002 O.3     1  LIG1       -0.4912
     19 C           3.6148    5.5591   -0.0004 C.3     1  LIG1        0.0790
     20 H           4.5829    6.0630   -0.0006 H       1  LIG1        0.0660
     21 H           3.5368    4.9361    0.8969 H       1  LIG1        0.0660
     22 H           3.5365    4.9361   -0.8977 H       1  LIG1        0.0660
     23 H           0.6487    8.4118   -0.0002 H       1  LIG1        0.0694
     24 C          -2.1697    7.3730   -0.0002 C.ar    1  LIG1        0.2121
     25 C          -3.4545    6.8615   -0.0002 C.ar    1  LIG1        0.1694
     26 C          -4.3498    7.9696   -0.0002 C.ar    1  LIG1        0.0300
     27 C          -3.5637    9.1002   -0.0002 C.ar    1  LIG1        0.1780
     28 O          -2.2481    8.7530   -0.0002 O.2     1  LIG1       -0.4447
     29 O          -3.7326    5.5396   -0.0002 O.3     1  LIG1       -0.4912
     30 C          -5.1093    5.1855   -0.0002 C.3     1  LIG1        0.0790
     31 H          -5.1400    4.0955   -0.0002 H       1  LIG1        0.0660
     32 H          -5.6205    5.5634    0.8942 H       1  LIG1        0.0660
     33 H          -5.6205    5.5634   -0.8946 H       1  LIG1        0.0660
     34 H          -5.4274    7.9556   -0.0002 H       1  LIG1        0.0694
     35 C          -3.9619   10.4842   -0.0003 C.ar    1  LIG1        0.2111
     36 C          -3.4109   11.7610   -0.0002 C.ar    1  LIG1        0.1687
     37 C          -4.5065   12.6857   -0.0002 C.ar    1  LIG1        0.0187
     38 C          -5.6387   11.9401   -0.0006 C.ar    1  LIG1        0.0964
     39 O          -5.3432   10.6180   -0.0004 O.2     1  LIG1       -0.4560
     40 H          -6.6885   12.1889   -0.0008 H       1  LIG1        0.1031
     41 O          -2.1555   12.2596    0.0001 O.3     1  LIG1       -0.4912
     42 C          -1.0267   11.3894    0.0001 C.3     1  LIG1        0.0790
     43 H          -0.1550   12.0455    0.0003 H       1  LIG1        0.0660
     44 H          -1.0131   10.7555    0.8910 H       1  LIG1        0.0660
     45 H          -1.0128   10.7556   -0.8909 H       1  LIG1        0.0660
     46 H          -4.4152   13.7613   -0.0001 H       1  LIG1        0.0686
@<TRIPOS>BOND
     1    22    19    1
     2    33    30    1
     3    11     8    1
     4    45    42    1
     5    40    38    1
     6    20    19    1
     7    38    39   ar
     8    38    37   ar
     9    39    35   ar
    10    19    18    1
    11    19    21    1
    12     6     1    1
    13     5     1   ar
    14     5     4   ar
    15    35    27    1
    16    35    36   ar
    17     1     2   ar
    18    28    27   ar
    19    28    24   ar
    20    27    26   ar
    21    26    25   ar
    22    26    34    1
    23    25    24   ar
    24    25    29    1
    25    24    16    1
    26    30    29    1
    27    30    31    1
    28    30    32    1
    29    37    36   ar
    30    37    46    1
    31    18    14    1
    32    17    16   ar
    33    17    13   ar
    34    16    15   ar
    35    23    15    1
    36    14    15   ar
    37    14    13   ar
    38    36    41    1
    39    13     4    1
    40     4     3   ar
    41    41    42    1
    42     2     3   ar
    43     2     7    1
    44     3    12    1
    45    42    43    1
    46    42    44    1
    47     8     7    1
    48     8     9    1
    49     8    10    1
