@<TRIPOS>MOLECULE
mol_data/opt/b3lyp/geoms/mol2/12la12la.out
 24 25 0 0 0
SMALL
GASTEIGER

@<TRIPOS>ATOM
      1 C          -0.0308    1.7629   -0.0001 C.ar    1  LIG1        0.1342
      2 C           1.3323    1.6667    0.0001 C.ar    1  LIG1        0.1583
      3 C           1.8488    2.9991    0.0001 C.ar    1  LIG1        0.0292
      4 C           0.7591    3.8369   -0.0000 C.ar    1  LIG1        0.1770
      5 O          -0.3857    3.0875   -0.0001 O.2     1  LIG1       -0.4560
      6 H          -0.8407    1.0545   -0.0001 H       1  LIG1        0.1068
      7 O           2.1377    0.5750    0.0002 O.3     1  LIG1       -0.4919
      8 C           1.4563   -0.6715    0.0001 C.3     1  LIG1        0.0789
      9 H           2.2232   -1.4470    0.0001 H       1  LIG1        0.0660
     10 H           0.8272   -0.7784    0.8938 H       1  LIG1        0.0660
     11 H           0.8274   -0.7784   -0.8938 H       1  LIG1        0.0660
     12 H           2.8942    3.2505    0.0002 H       1  LIG1        0.0693
     13 C           0.5204    5.2707   -0.0001 C.ar    1  LIG1        0.2110
     14 C           1.2287    6.4666   -0.0001 C.ar    1  LIG1        0.1687
     15 C           0.2663    7.5266   -0.0001 C.ar    1  LIG1        0.0187
     16 C          -0.9523    6.9315   -0.0002 C.ar    1  LIG1        0.0964
     17 O          -0.8284    5.5859   -0.0002 O.2     1  LIG1       -0.4560
     18 H          -1.9617    7.3121   -0.0002 H       1  LIG1        0.1031
     19 O           2.5421    6.8059    0.0000 O.3     1  LIG1       -0.4912
     20 C           3.5413    5.7988   -0.0001 C.3     1  LIG1        0.0790
     21 H           4.4967    6.3260   -0.0002 H       1  LIG1        0.0660
     22 H           3.4779    5.1743    0.8973 H       1  LIG1        0.0660
     23 H           3.4777    5.1743   -0.8975 H       1  LIG1        0.0660
     24 H           0.4978    8.5807   -0.0001 H       1  LIG1        0.0686
@<TRIPOS>BOND
     1    23    20    1
     2    11     8    1
     3    18    16    1
     4    16    17   ar
     5    16    15   ar
     6    21    20    1
     7    17    13   ar
     8    24    15    1
     9     5     1   ar
    10     5     4   ar
    11    15    14   ar
    12     6     1    1
    13    20    19    1
    14    20    22    1
    15    13    14   ar
    16    13     4    1
    17    14    19    1
    18     1     2   ar
    19     4     3   ar
    20     2     3   ar
    21     2     7    1
    22     8     9    1
    23     8     7    1
    24     8    10    1
    25     3    12    1
