@<TRIPOS>MOLECULE
mol_data/opt/b3lyp/geoms/mol2/12la6df13fd4hi-.out
 49 52 0 0 0
SMALL
GASTEIGER

@<TRIPOS>ATOM
      1 C           0.0667    1.6697   -0.2339 C.ar    1  LIG1        0.1341
      2 C           1.4383    1.6797   -0.2037 C.ar    1  LIG1        0.1582
      3 C           1.8400    3.0456   -0.1168 C.ar    1  LIG1        0.0261
      4 C           0.6823    3.7845   -0.0981 C.ar    1  LIG1        0.1413
      5 O          -0.3961    2.9541   -0.1686 O.2     1  LIG1       -0.4591
      6 H          -0.6818    0.8986   -0.2949 H       1  LIG1        0.1068
      7 O           2.3221    0.6560   -0.2476 O.3     1  LIG1       -0.4919
      8 C           1.7437   -0.6402   -0.3462 C.3     1  LIG1        0.0789
      9 H           2.5721   -1.3485   -0.3727 H       1  LIG1        0.0660
     10 H           1.1060   -0.8547    0.5213 H       1  LIG1        0.0660
     11 H           1.1483   -0.7378   -1.2632 H       1  LIG1        0.0660
     12 H           2.8569    3.4065   -0.0933 H       1  LIG1        0.0692
     13 C          -0.7923    5.8482   -0.2884 C.ar    1  LIG1        0.1516
     14 C           0.4473    5.2167   -0.0188 C.ar    1  LIG1        0.0567
     15 C           1.5012    6.0663    0.3433 C.ar    1  LIG1       -0.0046
     16 C           1.3422    7.4457    0.4257 C.ar    1  LIG1        0.1450
     17 C           0.0566    7.9850    0.1319 C.ar    1  LIG1        0.1334
     18 N          -0.9551    7.1751   -0.2075 N.ar    1  LIG1       -0.2304
     19 H           2.4759    5.6625    0.5921 H       1  LIG1        0.0663
     20 N          -2.9749    4.6415   -1.0315 N.1     1  LIG1       -0.1893
     21 C          -1.9819    5.1429   -0.6928 C.1     1  LIG1        0.1198
     22 O           2.4216    8.1540    0.8038 O.3     1  LIG1       -0.5045
     23 H           2.2605    9.1176    0.8178 H       1  LIG1        0.2922
     24 C          -0.3096    9.3987    0.1809 C.ar    1  LIG1        0.1123
     25 C           0.3451   10.6001    0.3919 C.ar    1  LIG1        0.1617
     26 C          -0.6004   11.6642    0.2931 C.ar    1  LIG1        0.1190
     27 C          -1.8553   11.0798    0.0150 C.ar    1  LIG1        0.0700
     28 N          -1.6348    9.7409   -0.0461 N.ar    1  LIG1       -0.3488
     29 H          -2.3111    9.0284   -0.2902 H       1  LIG1        0.1661
     30 O           1.6817   10.7432    0.6390 O.3     1  LIG1       -0.5034
     31 H           1.8712   11.6443    0.9418 H       1  LIG1        0.2923
     32 N           0.2092   14.0448    0.8498 N.1     1  LIG1       -0.1907
     33 C          -0.2360   13.0001    0.5834 C.1     1  LIG1        0.1050
     34 C          -3.4617   12.8036   -0.8919 C.ar    1  LIG1        0.0338
     35 C          -4.7918   13.2555   -0.9779 C.ar    1  LIG1       -0.0402
     36 C          -3.2035   11.6371   -0.1298 C.ar    1  LIG1        0.0206
     37 C          -5.8280   12.5758   -0.3562 C.ar    1  LIG1       -0.0571
     38 H          -5.0025   14.1520   -1.5555 H       1  LIG1        0.0636
     39 C          -4.2806   10.9648    0.4814 C.ar    1  LIG1       -0.0479
     40 C          -5.5968   11.4064    0.3865 C.ar    1  LIG1       -0.0497
     41 H          -4.0633   10.0826    1.0783 H       1  LIG1        0.0627
     42 H          -6.8412   12.9587   -0.4511 H       1  LIG1        0.0621
     43 N          -2.4497   13.5109   -1.5205 N.pl3   1  LIG1       -0.3575
     44 H          -1.6100   13.0020   -1.7553 H       1  LIG1        0.1423
     45 H          -2.7421   14.1552   -2.2402 H       1  LIG1        0.1423
     46 C          -6.7299   10.6749    1.0656 C.3     1  LIG1       -0.0397
     47 H          -6.3750    9.7728    1.5714 H       1  LIG1        0.0278
     48 H          -7.4993   10.3706    0.3467 H       1  LIG1        0.0278
     49 H          -7.2224   11.3036    1.8166 H       1  LIG1        0.0278
@<TRIPOS>BOND
     1    45    43    1
     2    44    43    1
     3    38    35    1
     4    43    34    1
     5    11     8    1
     6    20    21    3
     7    35    34   ar
     8    35    37   ar
     9    34    36   ar
    10    21    13    1
    11    42    37    1
    12     9     8    1
    13    37    40   ar
    14     8     7    1
    15     8    10    1
    16     6     1    1
    17    29    28    1
    18    13    18   ar
    19    13    14   ar
    20     7     2    1
    21     1     2   ar
    22     1     5   ar
    23    18    17   ar
    24     2     3   ar
    25     5     4   ar
    26    36    27    1
    27    36    39   ar
    28     3     4   ar
    29     3    12    1
    30     4    14    1
    31    28    27   ar
    32    28    24   ar
    33    14    15   ar
    34    27    26   ar
    35    17    24    1
    36    17    16   ar
    37    24    25   ar
    38    26    25   ar
    39    26    33    1
    40    15    16   ar
    41    15    19    1
    42    48    46    1
    43    40    39   ar
    44    40    46    1
    45    25    30    1
    46    16    22    1
    47    39    41    1
    48    33    32    3
    49    30    31    1
    50    22    23    1
    51    46    47    1
    52    46    49    1
