@<TRIPOS>MOLECULE
mol_data/opt/b3lyp/geoms/mol2/12la12ad-4ea-12ld.out
 45 48 0 0 0
SMALL
GASTEIGER

@<TRIPOS>ATOM
      1 C           0.4118    1.4652    0.4587 C.ar    1  LIG1        0.1342
      2 C           1.7766    1.4914    0.3283 C.ar    1  LIG1        0.1583
      3 C           2.1412    2.8381    0.0235 C.ar    1  LIG1        0.0291
      4 C           0.9660    3.5435   -0.0135 C.ar    1  LIG1        0.1734
      5 O          -0.0908    2.7237    0.2486 O.2     1  LIG1       -0.4561
      6 H          -0.3091    0.6984    0.6839 H       1  LIG1        0.1068
      7 O           2.6859    0.4965    0.4488 O.3     1  LIG1       -0.4919
      8 C           2.1473   -0.7818    0.7630 C.3     1  LIG1        0.0789
      9 H           2.9924   -1.4677    0.8275 H       1  LIG1        0.0660
     10 H           1.6176   -0.7614    1.7244 H       1  LIG1        0.0660
     11 H           1.4577   -1.1227   -0.0203 H       1  LIG1        0.0660
     12 H           3.1412    3.2123   -0.1351 H       1  LIG1        0.0693
     13 C           0.6831    4.9299   -0.2790 C.ar    1  LIG1        0.1720
     14 C           1.4681    5.9789   -0.6708 C.ar    1  LIG1        0.0053
     15 C           0.6047    7.1200   -0.7512 C.ar    1  LIG1        0.0981
     16 C          -0.6652    6.6932   -0.3934 C.ar    1  LIG1        0.1543
     17 O          -0.6073    5.3568   -0.1148 O.2     1  LIG1       -0.4504
     18 H           2.5230    5.9588   -0.8972 H       1  LIG1        0.0669
     19 N           1.3787    9.4040   -1.6760 N.1     1  LIG1       -0.1907
     20 C           1.0015    8.3929   -1.2403 C.1     1  LIG1        0.1030
     21 C          -2.2390    8.5993    0.1679 C.ar    1  LIG1        0.0360
     22 C          -3.5480    9.1056    0.1651 C.ar    1  LIG1       -0.0349
     23 C          -1.9925    7.2934   -0.3334 C.ar    1  LIG1        0.0340
     24 C          -4.6294    8.3431   -0.3000 C.ar    1  LIG1        0.0221
     25 H          -3.7159   10.1019    0.5516 H       1  LIG1        0.0637
     26 C          -3.0905    6.5283   -0.7681 C.ar    1  LIG1       -0.0492
     27 C          -4.3795    7.0332   -0.7572 C.ar    1  LIG1       -0.0502
     28 H          -2.9126    5.5226   -1.1324 H       1  LIG1        0.0625
     29 C          -1.2115    9.4066    0.7437 C.1     1  LIG1       -0.0689
     30 C          -0.3826   10.1162    1.2657 C.1     1  LIG1       -0.1139
     31 H           0.3763   10.7329    1.6888 H       1  LIG1        0.1232
     32 H          -5.2006    6.4211   -1.1117 H       1  LIG1        0.0625
     33 C          -5.9780    8.8789   -0.3036 C.ar    1  LIG1        0.1775
     34 C          -6.5334   10.0948    0.0426 C.ar    1  LIG1        0.1830
     35 C          -7.9567    9.9869   -0.2018 C.ar    1  LIG1        0.1316
     36 C          -8.1507    8.7122   -0.6775 C.ar    1  LIG1        0.1137
     37 O          -6.9906    8.0465   -0.7409 O.2     1  LIG1       -0.4578
     38 H          -9.0405    8.1892   -0.9907 H       1  LIG1        0.1044
     39 O          -5.8034   11.1205    0.5236 O.3     1  LIG1       -0.4901
     40 C          -6.4258   12.3985    0.6923 C.3     1  LIG1        0.0790
     41 H          -5.6291   13.0683    1.0157 H       1  LIG1        0.0660
     42 H          -6.8495   12.7599   -0.2498 H       1  LIG1        0.0660
     43 H          -7.2073   12.3619    1.4565 H       1  LIG1        0.0660
     44 N          -9.8678   11.6921    0.1404 N.1     1  LIG1       -0.1906
     45 C          -8.9980   10.9334   -0.0103 C.1     1  LIG1        0.1060
@<TRIPOS>BOND
     1    19    20    3
     2    20    15    1
     3    28    26    1
     4    32    27    1
     5    38    36    1
     6    18    14    1
     7    26    27   ar
     8    26    23   ar
     9    27    24   ar
    10    15    14   ar
    11    15    16   ar
    12    37    36   ar
    13    37    33   ar
    14    36    35   ar
    15    14    13   ar
    16    16    23    1
    17    16    17   ar
    18    23    21   ar
    19    33    24    1
    20    33    34   ar
    21    24    22   ar
    22    13    17   ar
    23    13     4    1
    24    42    40    1
    25    35    45    1
    26    35    34   ar
    27    12     3    1
    28    11     8    1
    29     4     3   ar
    30     4     5   ar
    31    45    44    3
    32     3     2   ar
    33    34    39    1
    34    22    21   ar
    35    22    25    1
    36    21    29    1
    37     5     1   ar
    38     2     7    1
    39     2     1   ar
    40     7     8    1
    41     1     6    1
    42    39    40    1
    43    40    41    1
    44    40    43    1
    45    29    30    3
    46     8     9    1
    47     8    10    1
    48    30    31    1
