@<TRIPOS>MOLECULE
mol_data/opt/b3lyp/geoms/mol2/12la12la-.out
 24 25 0 0 0
SMALL
GASTEIGER

@<TRIPOS>ATOM
      1 C           0.0830    1.8590   -0.0000 C.ar    1  LIG1        0.1342
      2 C           1.4523    1.8348    0.0000 C.ar    1  LIG1        0.1583
      3 C           1.8997    3.1921    0.0000 C.ar    1  LIG1        0.0292
      4 C           0.7613    3.9570   -0.0001 C.ar    1  LIG1        0.1770
      5 O          -0.3479    3.1648   -0.0001 O.2     1  LIG1       -0.4560
      6 H          -0.6861    1.1064   -0.0000 H       1  LIG1        0.1068
      7 O           2.3067    0.7805    0.0001 O.3     1  LIG1       -0.4919
      8 C           1.6852   -0.4960    0.0000 C.3     1  LIG1        0.0789
      9 H           2.4876   -1.2348    0.0001 H       1  LIG1        0.0660
     10 H           1.0616   -0.6332    0.8937 H       1  LIG1        0.0660
     11 H           1.0616   -0.6332   -0.8937 H       1  LIG1        0.0660
     12 H           2.9208    3.5396    0.0000 H       1  LIG1        0.0693
     13 C           0.5609    5.3786   -0.0001 C.ar    1  LIG1        0.2110
     14 C          -0.5487    6.1995   -0.0001 C.ar    1  LIG1        0.1687
     15 C          -0.0674    7.5502   -0.0001 C.ar    1  LIG1        0.0187
     16 C           1.2922    7.4583   -0.0002 C.ar    1  LIG1        0.0964
     17 O           1.6911    6.1618   -0.0002 O.2     1  LIG1       -0.4560
     18 H           2.0793    8.1953   -0.0002 H       1  LIG1        0.1031
     19 O          -1.8252    5.7444   -0.0000 O.3     1  LIG1       -0.4912
     20 C          -2.8434    6.7339   -0.0001 C.3     1  LIG1        0.0790
     21 H          -3.7909    6.1937   -0.0000 H       1  LIG1        0.0660
     22 H          -2.7897    7.3681    0.8943 H       1  LIG1        0.0660
     23 H          -2.7897    7.3680   -0.8946 H       1  LIG1        0.0660
     24 H          -0.6488    8.4597   -0.0002 H       1  LIG1        0.0686
@<TRIPOS>BOND
     1    23    20    1
     2    11     8    1
     3    18    16    1
     4    16    17   ar
     5    16    15   ar
     6    17    13   ar
     7    24    15    1
     8    15    14   ar
     9    13    14   ar
    10    13     4    1
    11     5     4   ar
    12     5     1   ar
    13    14    19    1
    14    20    21    1
    15    20    19    1
    16    20    22    1
    17     4     3   ar
    18     1     6    1
    19     1     2   ar
    20     3     2   ar
    21     3    12    1
    22     2     7    1
    23     8     7    1
    24     8     9    1
    25     8    10    1
