@<TRIPOS>MOLECULE
mol_data/opt/b3lyp/geoms/mol2/12ld12ei6fe-4ia12fa-4dh13fl13lh.out
 99 106 0 0 0
SMALL
GASTEIGER

@<TRIPOS>ATOM
      1 C           1.1825    2.0038    1.1813 C.ar    1  LIG1        0.1356
      2 C           2.3900    1.9180    0.5501 C.ar    1  LIG1        0.1757
      3 C           2.6146    3.1870   -0.0992 C.ar    1  LIG1        0.1420
      4 C           1.5106    3.9681    0.2080 C.ar    1  LIG1        0.1919
      5 O           0.6465    3.2522    0.9747 O.2     1  LIG1       -0.4547
      6 H           0.5934    1.3272    1.7756 H       1  LIG1        0.1068
      7 O           3.2726    0.9072    0.4652 O.3     1  LIG1       -0.4907
      8 C           2.8984   -0.2921    1.1390 C.3     1  LIG1        0.0790
      9 H           3.7091   -1.0013    0.9744 H       1  LIG1        0.0660
     10 H           2.7767   -0.1142    2.2148 H       1  LIG1        0.0660
     11 H           1.9650   -0.6967    0.7282 H       1  LIG1        0.0660
     12 N           4.6137    3.6603   -1.6585 N.1     1  LIG1       -0.1906
     13 C           3.7098    3.4743   -0.9491 C.1     1  LIG1        0.1068
     14 C           1.1055    5.3091   -0.0999 C.ar    1  LIG1        0.1875
     15 C           1.7565    6.4863   -0.4228 C.ar    1  LIG1        0.0770
     16 C           0.7412    7.5024   -0.5639 C.ar    1  LIG1        0.0116
     17 C          -0.4620    6.8833   -0.3169 C.ar    1  LIG1        0.1451
     18 O          -0.2405    5.5504   -0.0358 O.2     1  LIG1       -0.4500
     19 C           3.1508    6.7049   -0.5173 C.1     1  LIG1       -0.0655
     20 C           4.3378    6.9271   -0.5888 C.1     1  LIG1       -0.1138
     21 H           5.3903    7.0752   -0.6670 H       1  LIG1        0.1232
     22 C           1.0201    8.9429   -0.8636 C.3     1  LIG1       -0.0349
     23 H           0.3302    9.6043   -0.3324 H       1  LIG1        0.0279
     24 H           0.9346    9.1613   -1.9349 H       1  LIG1        0.0279
     25 H           2.0407    9.1941   -0.5645 H       1  LIG1        0.0279
     26 C          -2.8635    6.6646    0.4779 C.ar    1  LIG1        0.2239
     27 C          -1.8464    7.3314   -0.2708 C.ar    1  LIG1        0.0800
     28 C          -2.2535    8.4706   -0.9699 C.ar    1  LIG1       -0.0285
     29 C          -3.5636    8.9604   -0.8781 C.ar    1  LIG1        0.0515
     30 C          -4.4629    8.2662   -0.0270 C.ar    1  LIG1        0.0904
     31 N          -4.0981    7.1346    0.5906 N.ar    1  LIG1       -0.2112
     32 H          -1.5567    8.9780   -1.6256 H       1  LIG1        0.0639
     33 O          -2.6559    5.5113    1.1408 O.3     1  LIG1       -0.4919
     34 H          -1.7645    5.1751    0.9548 H       1  LIG1        0.2938
     35 C          -3.9526   10.0683   -1.6889 C.1     1  LIG1       -0.0675
     36 C          -4.2398   10.9973   -2.4099 C.1     1  LIG1       -0.1138
     37 H          -4.5174   11.8090   -3.0417 H       1  LIG1        0.1232
     38 C          -6.2456    9.9419    0.7150 C.ar    1  LIG1       -0.0406
     39 C          -7.6030   10.2299    0.8736 C.ar    1  LIG1       -0.0474
     40 C          -5.8764    8.6877    0.1793 C.ar    1  LIG1        0.0046
     41 C          -8.6115    9.3155    0.5171 C.ar    1  LIG1        0.0212
     42 H          -7.8872   11.1862    1.2978 H       1  LIG1        0.0627
     43 C          -6.8798    7.7556   -0.1307 C.ar    1  LIG1       -0.0516
     44 C          -8.2241    8.0580    0.0172 C.ar    1  LIG1       -0.0503
     45 H          -6.5834    6.7789   -0.4992 H       1  LIG1        0.0624
     46 C          -5.2296   10.9641    1.1731 C.3     1  LIG1       -0.0391
     47 H          -5.6783   11.6478    1.8986 H       1  LIG1        0.0278
     48 H          -4.8555   11.5612    0.3354 H       1  LIG1        0.0278
     49 H          -4.3644   10.4912    1.6468 H       1  LIG1        0.0278
     50 H          -8.9788    7.3256   -0.2448 H       1  LIG1        0.0625
     51 C         -10.0111    9.6527    0.6776 C.ar    1  LIG1        0.1768
     52 C         -10.6906   10.7673    1.1317 C.ar    1  LIG1        0.1632
     53 C         -12.0807   10.4981    1.0458 C.ar    1  LIG1        0.0265
     54 C         -12.1992    9.2223    0.5392 C.ar    1  LIG1        0.1406
     55 O         -10.9487    8.7120    0.3174 O.2     1  LIG1       -0.4510
     56 O         -10.0944   11.9079    1.5758 O.3     1  LIG1       -0.5032
     57 H         -10.7805   12.5334    1.8414 H       1  LIG1        0.2923
     58 H         -12.8860   11.1614    1.3213 H       1  LIG1        0.0692
     59 C         -14.6784    8.7198    0.3647 C.ar    1  LIG1        0.0631
     60 C         -15.6941    7.8142    0.0370 C.ar    1  LIG1       -0.0327
     61 C         -13.3135    8.3515    0.2094 C.ar    1  LIG1        0.0365
     62 C         -15.4336    6.5286   -0.4583 C.ar    1  LIG1        0.0239
     63 H         -16.7235    8.1181    0.1821 H       1  LIG1        0.0638
     64 C         -13.0569    7.0753   -0.3129 C.ar    1  LIG1       -0.0285
     65 C         -14.0667    6.1782   -0.6583 C.ar    1  LIG1        0.0346
     66 H         -12.0248    6.7809   -0.4687 H       1  LIG1        0.0643
     67 N         -15.4146   11.0347    1.2756 N.1     1  LIG1       -0.1908
     68 C         -15.0773    9.9970    0.8670 C.1     1  LIG1        0.0999
     69 N         -13.7229    4.9135   -1.1670 N.pl3   1  LIG1       -0.3574
     70 H         -14.3249    4.6147   -1.9269 H       1  LIG1        0.1423
     71 H         -12.7485    4.8515   -1.4372 H       1  LIG1        0.1423
     72 C         -16.5400    5.6227   -0.7211 C.ar    1  LIG1        0.0946
     73 C         -17.8960    5.8763   -0.8866 C.ar    1  LIG1        0.1851
     74 C         -18.5806    4.6428   -1.0194 C.ar    1  LIG1        0.1889
     75 C         -17.6471    3.6143   -0.9212 C.ar    1  LIG1        0.1130
     76 N         -16.4080    4.2266   -0.7977 N.ar    1  LIG1       -0.3470
     77 H         -15.6263    3.7632   -0.3542 H       1  LIG1        0.1662
     78 O         -18.4998    7.0934   -0.9504 O.3     1  LIG1       -0.5019
     79 H         -19.4476    6.9177   -1.0630 H       1  LIG1        0.2924
     80 O         -19.9390    4.6213   -1.2050 O.3     1  LIG1       -0.4895
     81 C         -20.3921    4.0084   -2.4210 C.3     1  LIG1        0.0791
     82 H         -21.4678    4.1881   -2.4683 H       1  LIG1        0.0660
     83 H         -19.9034    4.4630   -3.2912 H       1  LIG1        0.0660
     84 H         -20.2074    2.9320   -2.4077 H       1  LIG1        0.0660
     85 C         -17.7620    2.1767   -0.9525 C.ar    1  LIG1        0.1107
     86 C         -18.8096    1.3133   -0.6413 C.ar    1  LIG1        0.1673
     87 C         -18.3647   -0.0313   -0.8166 C.ar    1  LIG1        0.0851
     88 C         -17.0513    0.0351   -1.2359 C.ar    1  LIG1        0.0267
     89 N         -16.6811    1.3716   -1.2732 N.ar    1  LIG1       -0.3548
     90 H         -15.8943    1.7115   -1.8027 H       1  LIG1        0.1655
     91 H         -16.3467   -0.7473   -1.4722 H       1  LIG1        0.0827
     92 O         -20.0872    1.6261   -0.2482 O.3     1  LIG1       -0.4911
     93 C         -20.2040    2.1337    1.0879 C.3     1  LIG1        0.0790
     94 H         -21.2717    2.2646    1.2748 H       1  LIG1        0.0660
     95 H         -19.7870    1.4246    1.8125 H       1  LIG1        0.0660
     96 H         -19.7006    3.1002    1.1876 H       1  LIG1        0.0660
     97 N         -19.1455   -1.1536   -0.5058 N.pl3   1  LIG1       -0.3540
     98 H         -20.1313   -0.9169   -0.5120 H       1  LIG1        0.1425
     99 H         -18.9744   -1.9469   -1.1115 H       1  LIG1        0.1425
@<TRIPOS>BOND
     1    83    81    1
     2    37    36    1
     3    82    81    1
     4    81    84    1
     5    81    80    1
     6    36    35    3
     7    24    22    1
     8    70    69    1
     9    90    89    1
    10    35    29    1
    11    12    13    3
    12    32    28    1
    13    91    88    1
    14    71    69    1
    15    89    88   ar
    16    89    85   ar
    17    88    87   ar
    18    80    74    1
    19    69    65    1
    20    99    97    1
    21    79    78    1
    22    74    75   ar
    23    74    73   ar
    24    28    29   ar
    25    28    27   ar
    26    85    75    1
    27    85    86   ar
    28    78    73    1
    29    13     3    1
    30    75    76   ar
    31    73    72   ar
    32    29    30   ar
    33    22    25    1
    34    22    16    1
    35    22    23    1
    36    87    86   ar
    37    87    97    1
    38    76    72   ar
    39    76    77    1
    40    72    62    1
    41    21    20    1
    42    65    62   ar
    43    65    64   ar
    44    86    92    1
    45    20    19    3
    46    16    15   ar
    47    16    17   ar
    48    19    15    1
    49    98    97    1
    50    45    43    1
    51    66    64    1
    52    62    60   ar
    53    15    14   ar
    54    17    27    1
    55    17    18   ar
    56    64    61   ar
    57    27    26   ar
    58    92    93    1
    59    50    44    1
    60    43    44   ar
    61    43    40   ar
    62    14    18   ar
    63    14     4    1
    64     3     4   ar
    65     3     2   ar
    66    30    40    1
    67    30    31   ar
    68    44    41   ar
    69    60    63    1
    70    60    59   ar
    71    40    38   ar
    72     4     5   ar
    73    61    59   ar
    74    61    54    1
    75    55    54   ar
    76    55    51   ar
    77    48    46    1
    78    59    68    1
    79     7     2    1
    80     7     8    1
    81    26    31   ar
    82    26    33    1
    83    41    51    1
    84    41    39   ar
    85    54    53   ar
    86     2     1   ar
    87    51    52   ar
    88    38    39   ar
    89    38    46    1
    90    11     8    1
    91    68    67    3
    92    39    42    1
    93    34    33    1
    94     9     8    1
    95     5     1   ar
    96    53    52   ar
    97    53    58    1
    98    93    96    1
    99    93    94    1
   100    93    95    1
   101    52    56    1
   102     8    10    1
   103    46    49    1
   104    46    47    1
   105     1     6    1
   106    56    57    1
