@<TRIPOS>MOLECULE
mol_data/opt/b3lyp/geoms/mol2/12ld6li-4df13fa-13al-13la4ee6ah.out
 100 107 0 0 0
SMALL
GASTEIGER

@<TRIPOS>ATOM
      1 C          -0.3840    1.6535   -1.3507 C.ar    1  LIG1        0.1354
      2 C          -0.0871    1.3860   -0.0456 C.ar    1  LIG1        0.1756
      3 C          -0.1139    2.6495    0.6466 C.ar    1  LIG1        0.1391
      4 C          -0.4276    3.6079   -0.3070 C.ar    1  LIG1        0.1609
      5 O          -0.5899    3.0018   -1.5054 O.2     1  LIG1       -0.4577
      6 H          -0.4870    1.0527   -2.2374 H       1  LIG1        0.1068
      7 O           0.1829    0.2252    0.5820 O.3     1  LIG1       -0.4907
      8 C           0.1539   -0.9349   -0.2439 C.3     1  LIG1        0.0790
      9 H           0.3889   -1.7793    0.4037 H       1  LIG1        0.0660
     10 H          -0.8402   -1.0753   -0.6871 H       1  LIG1        0.0660
     11 H           0.9016   -0.8650   -1.0441 H       1  LIG1        0.0660
     12 N           0.2920    2.9869    3.1729 N.1     1  LIG1       -0.1906
     13 C           0.1056    2.8362    2.0331 C.1     1  LIG1        0.1067
     14 C          -1.4357    5.8155   -1.0500 C.ar    1  LIG1        0.2260
     15 C          -0.5678    5.0558   -0.2180 C.ar    1  LIG1        0.0804
     16 C           0.1349    5.7807    0.7450 C.ar    1  LIG1       -0.0410
     17 C           0.0233    7.1716    0.8689 C.ar    1  LIG1       -0.0235
     18 C          -0.8264    7.8132   -0.0477 C.ar    1  LIG1        0.0791
     19 N          -1.5566    7.1274   -0.9563 N.ar    1  LIG1       -0.2120
     20 H           0.7921    5.2520    1.4273 H       1  LIG1        0.0630
     21 O          -2.1751    5.1492   -1.9599 O.3     1  LIG1       -0.4792
     22 C          -3.0387    5.9169   -2.8004 C.3     1  LIG1        0.0804
     23 H          -3.4692    5.1997   -3.4999 H       1  LIG1        0.0660
     24 H          -3.8345    6.3928   -2.2189 H       1  LIG1        0.0660
     25 H          -2.4846    6.6923   -3.3351 H       1  LIG1        0.0660
     26 C           0.7736    7.8758    1.9744 C.3     1  LIG1       -0.0377
     27 H           0.2707    8.7954    2.2826 H       1  LIG1        0.0278
     28 H           1.7882    8.1443    1.6637 H       1  LIG1        0.0278
     29 H           0.8525    7.2241    2.8493 H       1  LIG1        0.0278
     30 C          -0.0349   10.2498   -0.2121 C.ar    1  LIG1        0.0618
     31 C          -0.3417   11.6172   -0.2349 C.ar    1  LIG1       -0.0310
     32 C          -1.0581    9.2857   -0.0694 C.ar    1  LIG1        0.0216
     33 C          -1.6575   12.1009   -0.1321 C.ar    1  LIG1        0.0445
     34 H           0.4652   12.3289   -0.3487 H       1  LIG1        0.0638
     35 C          -2.3699    9.7587    0.0041 C.ar    1  LIG1       -0.0091
     36 C          -2.6781   11.1145   -0.0307 C.ar    1  LIG1        0.1268
     37 H          -3.1740    9.0369    0.1035 H       1  LIG1        0.0661
     38 N           2.4497    9.5894   -0.5806 N.1     1  LIG1       -0.1908
     39 C           1.3330    9.8706   -0.4107 C.1     1  LIG1        0.0998
     40 O          -3.9888   11.5222    0.0448 O.3     1  LIG1       -0.5061
     41 H          -4.5832   10.7541    0.0234 H       1  LIG1        0.2922
     42 C          -1.9200   13.5301   -0.1385 C.ar    1  LIG1        0.0925
     43 C          -1.0643   14.6400   -0.2032 C.ar    1  LIG1        0.1428
     44 C          -1.8346   15.8219   -0.1367 C.ar    1  LIG1        0.0072
     45 C          -3.1691   15.4323   -0.0286 C.ar    1  LIG1        0.0670
     46 N          -3.1957   14.0631   -0.0452 N.ar    1  LIG1       -0.3500
     47 H          -3.9950   13.4847    0.1623 H       1  LIG1        0.1661
     48 O           0.2925   14.5418   -0.3278 O.3     1  LIG1       -0.5046
     49 H           0.6702   15.4298   -0.3402 H       1  LIG1        0.2922
     50 H          -1.4712   16.8376   -0.2079 H       1  LIG1        0.0676
     51 C          -4.4182   16.1515    0.0534 C.ar    1  LIG1        0.0670
     52 C          -4.7928   17.3903    0.5596 C.ar    1  LIG1        0.0075
     53 C          -6.2114   17.4780    0.4569 C.ar    1  LIG1        0.1474
     54 C          -6.6944   16.3049   -0.1222 C.ar    1  LIG1        0.1092
     55 N          -5.5720   15.5050   -0.3347 N.ar    1  LIG1       -0.3488
     56 H          -5.5763   14.7647   -1.0209 H       1  LIG1        0.1661
     57 H          -4.1296   18.1029    1.0257 H       1  LIG1        0.0676
     58 O          -7.0335   18.4754    0.8852 O.3     1  LIG1       -0.4929
     59 C          -6.4089   19.5630    1.5524 C.3     1  LIG1        0.0789
     60 H          -7.2086   20.2516    1.8279 H       1  LIG1        0.0660
     61 H          -5.8882   19.2292    2.4588 H       1  LIG1        0.0660
     62 H          -5.6947   20.0793    0.8980 H       1  LIG1        0.0660
     63 C          -7.9835   15.6804   -0.3276 C.ar    1  LIG1        0.1091
     64 C          -9.2781   16.0340   -0.7252 C.ar    1  LIG1        0.1474
     65 C         -10.0777   14.8586   -0.7361 C.ar    1  LIG1        0.0061
     66 C          -9.2769   13.7876   -0.3680 C.ar    1  LIG1        0.0517
     67 N          -8.0069   14.2972   -0.1629 N.ar    1  LIG1       -0.3499
     68 H          -7.3391   13.8466    0.4446 H       1  LIG1        0.1661
     69 O          -9.7955   17.2356   -1.0936 O.3     1  LIG1       -0.4929
     70 C          -8.9365   18.1310   -1.7991 C.3     1  LIG1        0.0789
     71 H          -9.5828   18.9202   -2.1891 H       1  LIG1        0.0660
     72 H          -8.1859   18.5718   -1.1384 H       1  LIG1        0.0660
     73 H          -8.4418   17.6223   -2.6360 H       1  LIG1        0.0660
     74 H         -11.1065   14.8145   -1.0555 H       1  LIG1        0.0676
     75 C         -10.7136   11.7128   -0.0042 C.ar    1  LIG1        0.0344
     76 C         -10.7650   10.3115    0.0912 C.ar    1  LIG1       -0.0368
     77 C          -9.4697   12.3461   -0.2789 C.ar    1  LIG1        0.0150
     78 C          -9.6479    9.4864   -0.0628 C.ar    1  LIG1        0.0002
     79 H         -11.7289    9.8527    0.2838 H       1  LIG1        0.0636
     80 C          -8.3528   11.5117   -0.4525 C.ar    1  LIG1       -0.0355
     81 C          -8.4054   10.1174   -0.3396 C.ar    1  LIG1        0.0331
     82 H          -7.3990   11.9576   -0.7099 H       1  LIG1        0.0637
     83 C         -11.9215   12.4460    0.1947 C.1     1  LIG1       -0.0690
     84 C         -12.9737   13.0172    0.3752 C.1     1  LIG1       -0.1139
     85 H         -13.8885   13.5398    0.5345 H       1  LIG1        0.1232
     86 C          -7.1822    9.3901   -0.4967 C.1     1  LIG1       -0.0690
     87 C          -6.1198    8.8207   -0.6349 C.1     1  LIG1       -0.1139
     88 H          -5.2455    8.2353   -0.8108 H       1  LIG1        0.1232
     89 C          -9.2854    7.1365   -0.9069 C.ar    1  LIG1        0.0354
     90 C          -9.7994    8.0155    0.0607 C.ar    1  LIG1        0.0032
     91 C         -10.5062    7.4606    1.1332 C.ar    1  LIG1       -0.0304
     92 C         -10.6695    6.0721    1.2181 C.ar    1  LIG1        0.0435
     93 C         -10.1003    5.2966    0.1903 C.ar    1  LIG1        0.0482
     94 N          -9.4330    5.8105   -0.8416 N.ar    1  LIG1       -0.2608
     95 H         -10.9060    8.1044    1.9125 H       1  LIG1        0.0643
     96 H         -10.1965    4.2109    0.2186 H       1  LIG1        0.0848
     97 H          -8.7551    7.5231   -1.7721 H       1  LIG1        0.0836
     98 N         -11.3060    5.4736    2.2999 N.pl3   1  LIG1       -0.3568
     99 H         -11.9775    6.0484    2.7893 H       1  LIG1        0.1424
    100 H         -11.6480    4.5363    2.1396 H       1  LIG1        0.1424
@<TRIPOS>BOND
     1    23    22    1
     2    25    22    1
     3    22    24    1
     4    22    21    1
     5    73    70    1
     6     6     1    1
     7    71    70    1
     8    21    14    1
     9    70    72    1
    10    70    69    1
    11    97    89    1
    12     5     1   ar
    13     5     4   ar
    14     1     2   ar
    15    69    64    1
    16    74    65    1
    17    14    19   ar
    18    14    15   ar
    19    11     8    1
    20    56    55    1
    21    19    18   ar
    22    89    94   ar
    23    89    90   ar
    24    94    93   ar
    25    88    87    1
    26    65    64   ar
    27    65    66   ar
    28    64    63   ar
    29    82    80    1
    30    10     8    1
    31    87    86    3
    32    38    39    3
    33    86    81    1
    34    80    81   ar
    35    80    77   ar
    36    39    30    1
    37    66    77    1
    38    66    67   ar
    39    34    31    1
    40    49    48    1
    41    81    78   ar
    42    55    54   ar
    43    55    51   ar
    44    48    43    1
    45    63    67   ar
    46    63    54    1
    47     4    15    1
    48     4     3   ar
    49    77    75   ar
    50     8     9    1
    51     8     7    1
    52    31    30   ar
    53    31    33   ar
    54    15    16   ar
    55    30    32   ar
    56    50    44    1
    57    43    42   ar
    58    43    44   ar
    59    67    68    1
    60    42    33    1
    61    42    46   ar
    62    44    45   ar
    63    33    36   ar
    64    54    53   ar
    65    32    18    1
    66    32    35   ar
    67    78    90    1
    68    78    76   ar
    69    18    17   ar
    70     2     7    1
    71     2     3   ar
    72    46    45   ar
    73    46    47    1
    74    36    35   ar
    75    36    40    1
    76    45    51    1
    77    75    76   ar
    78    75    83    1
    79    35    37    1
    80    41    40    1
    81    51    52   ar
    82    90    91   ar
    83    76    79    1
    84    93    96    1
    85    93    92   ar
    86    83    84    3
    87    84    85    1
    88    53    52   ar
    89    53    58    1
    90    52    57    1
    91     3    13    1
    92    16    17   ar
    93    16    20    1
    94    17    26    1
    95    58    59    1
    96    62    59    1
    97    91    92   ar
    98    91    95    1
    99    92    98    1
   100    59    60    1
   101    59    61    1
   102    28    26    1
   103    26    27    1
   104    26    29    1
   105    13    12    3
   106   100    98    1
   107    98    99    1
