@<TRIPOS>MOLECULE
mol_data/opt/b3lyp/geoms/mol2/12le13ia12eh-4il-.out
 54 57 0 0 0
SMALL
GASTEIGER

@<TRIPOS>ATOM
      1 C           0.2888    1.9469    1.1052 C.ar    1  LIG1        0.1354
      2 C           1.5434    1.7959    0.5950 C.ar    1  LIG1        0.1736
      3 C           1.9722    3.0887    0.1078 C.ar    1  LIG1        0.1134
      4 C           0.9260    3.9551    0.3884 C.ar    1  LIG1        0.1701
      5 O          -0.0939    3.2635    0.9845 O.2     1  LIG1       -0.4564
      6 H          -0.4250    1.2837    1.5622 H       1  LIG1        0.1068
      7 O           2.3237    0.6988    0.4935 O.3     1  LIG1       -0.4907
      8 C           1.7472   -0.5010    0.9929 C.3     1  LIG1        0.0790
      9 H           2.4868   -1.2875    0.8407 H       1  LIG1        0.0660
     10 H           1.5198   -0.4132    2.0635 H       1  LIG1        0.0660
     11 H           0.8268   -0.7520    0.4495 H       1  LIG1        0.0660
     12 C           3.1738    3.3200   -0.6009 C.1     1  LIG1       -0.0621
     13 C           4.2060    3.4626   -1.2176 C.1     1  LIG1       -0.1137
     14 H           5.1086    3.5904   -1.7683 H       1  LIG1        0.1232
     15 C           0.6658    5.3546    0.1752 C.ar    1  LIG1        0.0869
     16 C           1.4931    6.4835    0.0646 C.ar    1  LIG1       -0.0214
     17 C           0.6402    7.5976   -0.0915 C.ar    1  LIG1       -0.0297
     18 C          -0.6805    7.1500   -0.0636 C.ar    1  LIG1        0.0842
     19 N          -0.6417    5.7884    0.1007 N.ar    1  LIG1       -0.3491
     20 H          -1.4512    5.1927    0.1794 H       1  LIG1        0.1661
     21 C           2.9892    6.5411    0.1554 C.3     1  LIG1       -0.0376
     22 H           3.3095    7.5499    0.4316 H       1  LIG1        0.0278
     23 H           3.4719    6.2806   -0.7919 H       1  LIG1        0.0278
     24 H           3.3743    5.8446    0.9054 H       1  LIG1        0.0278
     25 H           0.9458    8.6283   -0.1955 H       1  LIG1        0.0643
     26 C          -1.9247    7.8504   -0.1725 C.ar    1  LIG1        0.1689
     27 C          -2.2555    9.1837   -0.3563 C.ar    1  LIG1        0.0931
     28 C          -3.6983    9.2399   -0.3689 C.ar    1  LIG1        0.0873
     29 C          -4.1564    7.9592   -0.1694 C.ar    1  LIG1        0.1579
     30 O          -3.0576    7.1081   -0.0744 O.2     1  LIG1       -0.4502
     31 C          -1.3982   10.2909   -0.5434 C.1     1  LIG1       -0.0639
     32 C          -0.7123   11.2756   -0.7182 C.1     1  LIG1       -0.1137
     33 H          -0.0925   12.1301   -0.8612 H       1  LIG1        0.1232
     34 N          -4.4309   10.4094   -0.5577 N.pl3   1  LIG1       -0.3541
     35 H          -3.8701   11.1541   -0.9553 H       1  LIG1        0.1425
     36 H          -5.2857   10.2745   -1.0834 H       1  LIG1        0.1425
     37 C          -6.5531    7.8491    0.6072 C.ar    1  LIG1       -0.0395
     38 C          -7.7858    7.1992    0.5131 C.ar    1  LIG1       -0.0547
     39 C          -5.4795    7.3337   -0.1672 C.ar    1  LIG1        0.0255
     40 C          -7.9860    6.0631   -0.2738 C.ar    1  LIG1       -0.0197
     41 H          -8.6198    7.5773    1.0989 H       1  LIG1        0.0622
     42 C          -5.6705    6.1820   -0.9436 C.ar    1  LIG1       -0.0090
     43 C          -6.9100    5.5404   -0.9977 C.ar    1  LIG1        0.1208
     44 H          -4.8532    5.7779   -1.5308 H       1  LIG1        0.0661
     45 H          -8.9634    5.5964   -0.2991 H       1  LIG1        0.0654
     46 C          -6.3746    8.9958    1.5736 C.3     1  LIG1       -0.0390
     47 H          -7.2760    9.1304    2.1778 H       1  LIG1        0.0278
     48 H          -6.1492    9.9466    1.0799 H       1  LIG1        0.0278
     49 H          -5.5372    8.8035    2.2537 H       1  LIG1        0.0278
     50 O          -6.9697    4.4282   -1.7924 O.3     1  LIG1       -0.4951
     51 C          -8.2098    3.7486   -1.8943 C.3     1  LIG1        0.0788
     52 H          -8.0392    2.9082   -2.5688 H       1  LIG1        0.0660
     53 H          -8.5456    3.3665   -0.9214 H       1  LIG1        0.0660
     54 H          -8.9938    4.3928   -2.3136 H       1  LIG1        0.0660
@<TRIPOS>BOND
     1    52    51    1
     2    54    51    1
     3    51    50    1
     4    51    53    1
     5    50    43    1
     6    14    13    1
     7    44    42    1
     8    13    12    3
     9    36    34    1
    10    43    42   ar
    11    43    40   ar
    12    35    34    1
    13    42    39   ar
    14    33    32    1
    15    23    21    1
    16    32    31    3
    17    12     3    1
    18    34    28    1
    19    31    27    1
    20    28    27   ar
    21    28    29   ar
    22    27    26   ar
    23    45    40    1
    24    40    38   ar
    25    25    17    1
    26    26    30   ar
    27    26    18    1
    28    29    39    1
    29    29    30   ar
    30    39    37   ar
    31    17    18   ar
    32    17    16   ar
    33    18    19   ar
    34    16    21    1
    35    16    15   ar
    36    19    15   ar
    37    19    20    1
    38     3     4   ar
    39     3     2   ar
    40    21    22    1
    41    21    24    1
    42    15     4    1
    43     4     5   ar
    44    11     8    1
    45     7     2    1
    46     7     8    1
    47    38    37   ar
    48    38    41    1
    49     2     1   ar
    50    37    46    1
    51     9     8    1
    52     5     1   ar
    53     8    10    1
    54    48    46    1
    55     1     6    1
    56    46    47    1
    57    46    49    1
