@<TRIPOS>MOLECULE
mol_data/opt/b3lyp/geoms/mol2/12le12le12le12le-.out
 54 57 0 0 0
SMALL
GASTEIGER

@<TRIPOS>ATOM
      1 C           0.7052    1.9440   -1.8743 C.ar    1  LIG1        0.1355
      2 C           1.6760    1.6790   -0.9517 C.ar    1  LIG1        0.1737
      3 C           1.8444    2.8744   -0.1595 C.ar    1  LIG1        0.1152
      4 C           0.9596    3.7971   -0.6930 C.ar    1  LIG1        0.1924
      5 O           0.2677    3.2363   -1.7245 O.2     1  LIG1       -0.4547
      6 H           0.2332    1.3703   -2.6532 H       1  LIG1        0.1068
      7 O           2.3891    0.5555   -0.7218 O.3     1  LIG1       -0.4907
      8 C           2.0804   -0.5417   -1.5723 C.3     1  LIG1        0.0790
      9 H           2.7283   -1.3632   -1.2660 H       1  LIG1        0.0660
     10 H           1.0300   -0.8419   -1.4630 H       1  LIG1        0.0660
     11 H           2.2756   -0.2927   -2.6237 H       1  LIG1        0.0660
     12 C           2.6866    3.0261    0.9666 C.1     1  LIG1       -0.0621
     13 C           3.4100    3.1530    1.9287 C.1     1  LIG1       -0.1137
     14 H           4.0335    3.2668    2.7847 H       1  LIG1        0.1232
     15 C           0.6345    5.1545   -0.3423 C.ar    1  LIG1        0.2146
     16 C           1.3483    6.2479    0.1018 C.ar    1  LIG1        0.1849
     17 C           0.3944    7.2860    0.4022 C.ar    1  LIG1        0.1159
     18 C          -0.8472    6.7598    0.0754 C.ar    1  LIG1        0.1934
     19 O          -0.7080    5.4849   -0.3751 O.2     1  LIG1       -0.4434
     20 O           2.6715    6.4483    0.2662 O.3     1  LIG1       -0.4901
     21 C           3.5575    5.9014   -0.7165 C.3     1  LIG1        0.0790
     22 H           4.5065    6.4226   -0.5801 H       1  LIG1        0.0660
     23 H           3.7100    4.8299   -0.5700 H       1  LIG1        0.0660
     24 H           3.1765    6.0890   -1.7267 H       1  LIG1        0.0660
     25 C           0.6993    8.5491    0.9594 C.1     1  LIG1       -0.0620
     26 C           0.9748    9.6253    1.4392 C.1     1  LIG1       -0.1137
     27 H           1.2032   10.5681    1.8788 H       1  LIG1        0.1232
     28 C          -2.1806    7.2864    0.1263 C.ar    1  LIG1        0.2146
     29 C          -2.7334    8.5499    0.0637 C.ar    1  LIG1        0.1849
     30 C          -4.1538    8.4058    0.2405 C.ar    1  LIG1        0.1159
     31 C          -4.3705    7.0411    0.3853 C.ar    1  LIG1        0.1934
     32 O          -3.1950    6.3683    0.3080 O.2     1  LIG1       -0.4434
     33 O          -2.1352    9.7490   -0.1221 O.3     1  LIG1       -0.4901
     34 C          -1.4246    9.9121   -1.3562 C.3     1  LIG1        0.0790
     35 H          -1.0955   10.9518   -1.3756 H       1  LIG1        0.0660
     36 H          -0.5498    9.2581   -1.4078 H       1  LIG1        0.0660
     37 H          -2.0849    9.7182   -2.2092 H       1  LIG1        0.0660
     38 C          -5.0937    9.4624    0.2365 C.1     1  LIG1       -0.0620
     39 C          -5.8722   10.3887    0.2244 C.1     1  LIG1       -0.1137
     40 H          -6.5612   11.2007    0.2205 H       1  LIG1        0.1232
     41 C          -5.5520    6.2633    0.5893 C.ar    1  LIG1        0.2136
     42 C          -5.7784    4.9073    0.7501 C.ar    1  LIG1        0.1842
     43 C          -7.2078    4.7481    0.9290 C.ar    1  LIG1        0.1047
     44 C          -7.7182    6.0238    0.8605 C.ar    1  LIG1        0.1118
     45 O          -6.7508    6.9342    0.6570 O.2     1  LIG1       -0.4547
     46 H          -8.7274    6.3956    0.9391 H       1  LIG1        0.1043
     47 O          -4.7832    4.0037    0.7119 O.3     1  LIG1       -0.4901
     48 C          -5.0581    2.6515    1.0773 C.3     1  LIG1        0.0790
     49 H          -4.0939    2.1432    1.0450 H       1  LIG1        0.0660
     50 H          -5.4742    2.5887    2.0879 H       1  LIG1        0.0660
     51 H          -5.7489    2.1798    0.3727 H       1  LIG1        0.0660
     52 C          -7.9937    3.5815    1.1235 C.1     1  LIG1       -0.0628
     53 C          -8.7037    2.6158    1.2901 C.1     1  LIG1       -0.1137
     54 H          -9.3244    1.7621    1.4351 H       1  LIG1        0.1232
@<TRIPOS>BOND
     1     6     1    1
     2    11     8    1
     3    37    34    1
     4     1     5   ar
     5     1     2   ar
     6    24    21    1
     7     5     4   ar
     8     8    10    1
     9     8     9    1
    10     8     7    1
    11    36    34    1
    12    35    34    1
    13    34    33    1
    14     2     7    1
    15     2     3   ar
    16    21    22    1
    17    21    23    1
    18    21    20    1
    19     4    15    1
    20     4     3   ar
    21    19    15   ar
    22    19    18   ar
    23    15    16   ar
    24     3    12    1
    25    33    29    1
    26    29    28   ar
    27    29    30   ar
    28    18    28    1
    29    18    17   ar
    30    16    20    1
    31    16    17   ar
    32    28    32   ar
    33    40    39    1
    34    39    38    3
    35    38    30    1
    36    30    31   ar
    37    32    31   ar
    38    51    48    1
    39    31    41    1
    40    17    25    1
    41    41    45   ar
    42    41    42   ar
    43    45    44   ar
    44    47    42    1
    45    47    48    1
    46    42    43   ar
    47    44    43   ar
    48    44    46    1
    49    43    52    1
    50    25    26    3
    51    12    13    3
    52    49    48    1
    53    48    50    1
    54    52    53    3
    55    53    54    1
    56    26    27    1
    57    13    14    1
