@<TRIPOS>MOLECULE
mol_data/opt/b3lyp/geoms/mol2/12le12le-12le.out
 41 43 0 0 0
SMALL
GASTEIGER

@<TRIPOS>ATOM
      1 C          -0.1789    1.8146   -0.0003 C.ar    1  LIG1        0.1355
      2 C           1.1742    1.6585   -0.0001 C.ar    1  LIG1        0.1737
      3 C           1.7627    2.9797   -0.0000 C.ar    1  LIG1        0.1152
      4 C           0.6840    3.8584   -0.0001 C.ar    1  LIG1        0.1924
      5 O          -0.4815    3.1545   -0.0002 O.2     1  LIG1       -0.4547
      6 H          -1.0176    1.1405   -0.0004 H       1  LIG1        0.1068
      7 O           1.9302    0.5395   -0.0001 O.3     1  LIG1       -0.4907
      8 C           1.1999   -0.6802   -0.0002 C.3     1  LIG1        0.0790
      9 H           1.9372   -1.4835   -0.0002 H       1  LIG1        0.0660
     10 H           0.5682   -0.7615    0.8941 H       1  LIG1        0.0660
     11 H           0.5684   -0.7614   -0.8947 H       1  LIG1        0.0660
     12 C           3.1564    3.2058    0.0002 C.1     1  LIG1       -0.0621
     13 C           4.3660    3.2783    0.0003 C.1     1  LIG1       -0.1137
     14 H           5.4291    3.3367    0.0005 H       1  LIG1        0.1232
     15 C           0.5299    5.2818   -0.0001 C.ar    1  LIG1        0.2146
     16 C          -0.6014    6.0764    0.0000 C.ar    1  LIG1        0.1849
     17 C          -0.1589    7.4499   -0.0000 C.ar    1  LIG1        0.1159
     18 C           1.2374    7.3882   -0.0001 C.ar    1  LIG1        0.1934
     19 O           1.6460    6.0940   -0.0002 O.2     1  LIG1       -0.4434
     20 O          -1.8364    5.5415    0.0001 O.3     1  LIG1       -0.4901
     21 C          -2.9906    6.3807   -0.0000 C.3     1  LIG1        0.0790
     22 H          -3.8386    5.6943   -0.0000 H       1  LIG1        0.0660
     23 H          -3.0278    7.0127    0.8913 H       1  LIG1        0.0660
     24 H          -3.0277    7.0126   -0.8915 H       1  LIG1        0.0660
     25 C          -0.9636    8.6181    0.0001 C.1     1  LIG1       -0.0620
     26 C          -1.6641    9.6053    0.0003 C.1     1  LIG1       -0.1137
     27 H          -2.2679   10.4827    0.0005 H       1  LIG1        0.1232
     28 C           2.2075    8.4524   -0.0002 C.ar    1  LIG1        0.2136
     29 C           3.5881    8.6436   -0.0001 C.ar    1  LIG1        0.1842
     30 C           3.8132   10.0727   -0.0004 C.ar    1  LIG1        0.1047
     31 C           2.5716   10.6435   -0.0007 C.ar    1  LIG1        0.1118
     32 O           1.6107    9.7059   -0.0006 O.2     1  LIG1       -0.4547
     33 H           2.2445   11.6714   -0.0009 H       1  LIG1        0.1043
     34 O           4.6654    7.8485    0.0002 O.3     1  LIG1       -0.4901
     35 C           4.5333    6.4274    0.0004 C.3     1  LIG1        0.0790
     36 H           5.5552    6.0478    0.0006 H       1  LIG1        0.0660
     37 H           4.0088    6.0749    0.8902 H       1  LIG1        0.0660
     38 H           4.0090    6.0746   -0.8895 H       1  LIG1        0.0660
     39 C           5.0708   10.7252   -0.0004 C.1     1  LIG1       -0.0628
     40 C           6.1417   11.2869   -0.0004 C.1     1  LIG1       -0.1137
     41 H           7.0874   11.7770   -0.0006 H       1  LIG1        0.1232
@<TRIPOS>BOND
     1    11     8    1
     2    24    21    1
     3    38    35    1
     4    33    31    1
     5    31    32   ar
     6    31    30   ar
     7    32    28   ar
     8    41    40    1
     9    40    39    3
    10    39    30    1
    11    30    29   ar
    12     6     1    1
    13     1     5   ar
    14     1     2   ar
    15     5     4   ar
    16    28    29   ar
    17    28    18    1
    18     8     9    1
    19     8     7    1
    20     8    10    1
    21    19    18   ar
    22    19    15   ar
    23    29    34    1
    24     2     7    1
    25     2     3   ar
    26    18    17   ar
    27     4    15    1
    28     4     3   ar
    29    15    16   ar
    30     3    12    1
    31    22    21    1
    32    21    20    1
    33    21    23    1
    34    17    16   ar
    35    17    25    1
    36    16    20    1
    37    25    26    3
    38    12    13    3
    39    34    35    1
    40    26    27    1
    41    13    14    1
    42    35    36    1
    43    35    37    1
