@<TRIPOS>MOLECULE
mol_data/opt/b3lyp/geoms/mol2/12le.out
 15 15 0 0 0
SMALL
GASTEIGER

@<TRIPOS>ATOM
      1 C           0.0519    1.9344   -0.0000 C.ar    1  LIG1        0.1344
      2 C           1.4162    1.8802    0.0000 C.ar    1  LIG1        0.1729
      3 C           1.8925    3.2477   -0.0000 C.ar    1  LIG1        0.1039
      4 C           0.7578    4.0167   -0.0001 C.ar    1  LIG1        0.1107
      5 O          -0.3541    3.2491   -0.0001 O.2     1  LIG1       -0.4660
      6 H          -0.7303    1.1952   -0.0000 H       1  LIG1        0.1068
      7 H           0.6095    5.0850   -0.0001 H       1  LIG1        0.1043
      8 O           2.2553    0.8220    0.0001 O.3     1  LIG1       -0.4907
      9 C           1.6215   -0.4508    0.0001 C.3     1  LIG1        0.0790
     10 H           2.4187   -1.1945    0.0001 H       1  LIG1        0.0660
     11 H           0.9981   -0.5806    0.8945 H       1  LIG1        0.0660
     12 H           0.9981   -0.5807   -0.8944 H       1  LIG1        0.0660
     13 C           3.2398    3.6861   -0.0000 C.1     1  LIG1       -0.0628
     14 C           4.3913    4.0567   -0.0000 C.1     1  LIG1       -0.1137
     15 H           5.4062    4.3798   -0.0000 H       1  LIG1        0.1232
@<TRIPOS>BOND
     1    12     9    1
     2     7     4    1
     3     5     4   ar
     4     5     1   ar
     5     4     3   ar
     6     3    13    1
     7     3     2   ar
     8     1     6    1
     9     1     2   ar
    10    13    14    3
    11    15    14    1
    12     2     8    1
    13     8     9    1
    14     9    10    1
    15     9    11    1
