@<TRIPOS>MOLECULE
mol_data/opt/b3lyp/geoms/mol2/12le4he13hf-13ai-.out
 51 54 0 0 0
SMALL
GASTEIGER

@<TRIPOS>ATOM
      1 C           0.3398    1.6256    0.6143 C.ar    1  LIG1        0.1354
      2 C           1.6126    1.5648    0.1328 C.ar    1  LIG1        0.1736
      3 C           2.0156    2.9196   -0.1700 C.ar    1  LIG1        0.1120
      4 C           0.9381    3.7249    0.1733 C.ar    1  LIG1        0.1556
      5 O          -0.0714    2.9366    0.6429 O.2     1  LIG1       -0.4579
      6 H          -0.3686    0.8963    0.9676 H       1  LIG1        0.1068
      7 O           2.4278    0.5086   -0.0776 O.3     1  LIG1       -0.4907
      8 C           1.8703   -0.7576    0.2514 C.3     1  LIG1        0.0790
      9 H           2.6353   -1.5014    0.0272 H       1  LIG1        0.0660
     10 H           1.6098   -0.8085    1.3167 H       1  LIG1        0.0660
     11 H           0.9733   -0.9607   -0.3481 H       1  LIG1        0.0660
     12 C           3.2400    3.2799   -0.7791 C.1     1  LIG1       -0.0622
     13 C           4.2998    3.5777   -1.2864 C.1     1  LIG1       -0.1137
     14 H           5.2167    3.8250   -1.7690 H       1  LIG1        0.1232
     15 C           1.5705    6.1903    0.3804 C.ar    1  LIG1        0.0361
     16 C           1.1391    7.5226    0.3004 C.ar    1  LIG1       -0.0300
     17 C           0.6355    5.1514    0.0994 C.ar    1  LIG1        0.0404
     18 C          -0.1732    7.9033   -0.0191 C.ar    1  LIG1        0.0174
     19 H           1.8509    8.2995    0.5598 H       1  LIG1        0.0643
     20 C          -0.6817    5.5250   -0.1920 C.ar    1  LIG1       -0.0332
     21 C          -1.1182    6.8532   -0.2592 C.ar    1  LIG1        0.0346
     22 H          -1.4055    4.7415   -0.3842 H       1  LIG1        0.0638
     23 N           2.8505    5.9321    0.8286 N.pl3   1  LIG1       -0.3574
     24 H           3.3117    5.0944    0.5010 H       1  LIG1        0.1423
     25 H           3.4637    6.7339    0.8569 H       1  LIG1        0.1423
     26 C          -2.4922    7.0633   -0.5892 C.1     1  LIG1       -0.0690
     27 C          -3.6724    7.1774   -0.8499 C.1     1  LIG1       -0.1139
     28 H          -4.7024    7.2479   -1.1119 H       1  LIG1        0.1232
     29 C          -0.4985    9.3164   -0.0757 C.ar    1  LIG1        0.0728
     30 C           0.3436   10.4383   -0.1787 C.ar    1  LIG1        0.0930
     31 C          -0.4775   11.5847   -0.1245 C.ar    1  LIG1        0.1649
     32 C          -1.8018   11.1809    0.0013 C.ar    1  LIG1        0.1072
     33 N          -1.7976    9.8049   -0.0082 N.ar    1  LIG1       -0.3486
     34 H          -2.5905    9.2232    0.2148 H       1  LIG1        0.1661
     35 N           1.7427   10.4847   -0.3226 N.pl3   1  LIG1       -0.3535
     36 H           2.0833    9.8245   -1.0146 H       1  LIG1        0.1425
     37 H           2.0354   11.4225   -0.5788 H       1  LIG1        0.1425
     38 O           0.0110   12.8582   -0.2550 O.3     1  LIG1       -0.5030
     39 H          -0.7322   13.4380   -0.4813 H       1  LIG1        0.2923
     40 C          -2.9938   11.9936    0.0098 C.ar    1  LIG1        0.0668
     41 C          -3.2067   13.2802    0.4915 C.ar    1  LIG1       -0.0320
     42 C          -4.5558   13.6477    0.2021 C.ar    1  LIG1       -0.0325
     43 C          -5.1263   12.5733   -0.4483 C.ar    1  LIG1        0.0051
     44 N          -4.1832   11.5733   -0.5517 N.ar    1  LIG1       -0.3592
     45 H          -4.2801   10.7345   -1.1017 H       1  LIG1        0.1654
     46 H          -6.1273   12.4393   -0.8313 H       1  LIG1        0.0809
     47 H          -2.4931   13.8570    1.0653 H       1  LIG1        0.0642
     48 C          -5.2349   14.9372    0.5606 C.3     1  LIG1       -0.0383
     49 H          -6.2714   14.9492    0.2110 H       1  LIG1        0.0278
     50 H          -4.7258   15.8000    0.1151 H       1  LIG1        0.0278
     51 H          -5.2505   15.0993    1.6449 H       1  LIG1        0.0278
@<TRIPOS>BOND
     1    14    13    1
     2    13    12    3
     3    28    27    1
     4    45    44    1
     5    36    35    1
     6    27    26    3
     7    46    43    1
     8    12     3    1
     9    26    21    1
    10    37    35    1
    11    44    43   ar
    12    44    40   ar
    13    39    38    1
    14    43    42   ar
    15    22    20    1
    16    11     8    1
    17    35    30    1
    18    21    20   ar
    19    21    18   ar
    20    38    31    1
    21    20    17   ar
    22    30    31   ar
    23    30    29   ar
    24     3     2   ar
    25     3     4   ar
    26    31    32   ar
    27     7     2    1
    28     7     8    1
    29    29    18    1
    30    29    33   ar
    31    18    16   ar
    32    33    32   ar
    33    33    34    1
    34    32    40    1
    35    40    41   ar
    36     9     8    1
    37    17     4    1
    38    17    15   ar
    39    50    48    1
    40     2     1   ar
    41     4     5   ar
    42    42    41   ar
    43    42    48    1
    44    49    48    1
    45     8    10    1
    46    16    15   ar
    47    16    19    1
    48    15    23    1
    49    41    47    1
    50    24    23    1
    51    48    51    1
    52     1     5   ar
    53     1     6    1
    54    23    25    1
