@<TRIPOS>MOLECULE
mol_data/opt/b3lyp/geoms/mol2/12le12le-12le12le-.out
 54 57 0 0 0
SMALL
GASTEIGER

@<TRIPOS>ATOM
      1 C          -0.0894    1.8310    0.1149 C.ar    1  LIG1        0.1355
      2 C           1.1848    1.8321   -0.3746 C.ar    1  LIG1        0.1737
      3 C           1.6286    3.2057   -0.4127 C.ar    1  LIG1        0.1152
      4 C           0.5576    3.9423    0.0744 C.ar    1  LIG1        0.1924
      5 O          -0.4768    3.1205    0.3926 O.2     1  LIG1       -0.4547
      6 H          -0.8167    1.0649    0.3202 H       1  LIG1        0.1068
      7 O           1.9705    0.8109   -0.7787 O.3     1  LIG1       -0.4907
      8 C           1.3809   -0.4792   -0.6826 C.3     1  LIG1        0.0790
      9 H           2.1266   -1.1888   -1.0418 H       1  LIG1        0.0660
     10 H           1.1190   -0.7164    0.3570 H       1  LIG1        0.0660
     11 H           0.4789   -0.5477   -1.3049 H       1  LIG1        0.0660
     12 C           2.8750    3.6683   -0.8915 C.1     1  LIG1       -0.0621
     13 C           3.9428    4.0525   -1.3132 C.1     1  LIG1       -0.1137
     14 H           4.8650    4.4169   -1.7017 H       1  LIG1        0.1232
     15 C           0.3669    5.3458    0.2812 C.ar    1  LIG1        0.2146
     16 C          -0.7221    6.1203    0.6211 C.ar    1  LIG1        0.1849
     17 C          -0.2740    7.4905    0.6671 C.ar    1  LIG1        0.1159
     18 C           1.0781    7.4448    0.3459 C.ar    1  LIG1        0.1934
     19 O           1.4638    6.1589    0.1226 O.2     1  LIG1       -0.4434
     20 O          -1.9505    5.6365    0.9171 O.3     1  LIG1       -0.4901
     21 C          -3.0370    6.1667    0.1452 C.3     1  LIG1        0.0790
     22 H          -3.9345    5.6672    0.5124 H       1  LIG1        0.0660
     23 H          -3.1348    7.2471    0.2823 H       1  LIG1        0.0660
     24 H          -2.9012    5.9403   -0.9189 H       1  LIG1        0.0660
     25 C          -1.0276    8.6228    1.0554 C.1     1  LIG1       -0.0620
     26 C          -1.6777    9.5846    1.3994 C.1     1  LIG1       -0.1137
     27 H          -2.2105   10.4428    1.7370 H       1  LIG1        0.1232
     28 C           2.0861    8.4489    0.2237 C.ar    1  LIG1        0.2146
     29 C           3.4620    8.4162    0.0847 C.ar    1  LIG1        0.1849
     30 C           3.9085    9.7796   -0.0162 C.ar    1  LIG1        0.1159
     31 C           2.7589   10.5539    0.0678 C.ar    1  LIG1        0.1934
     32 O           1.6676    9.7571    0.2183 O.2     1  LIG1       -0.4434
     33 O           4.2845    7.3447    0.0107 O.3     1  LIG1       -0.4901
     34 C           4.4601    6.6096    1.2324 C.3     1  LIG1        0.0790
     35 H           5.1719    5.8162    1.0040 H       1  LIG1        0.0660
     36 H           4.8639    7.2594    2.0171 H       1  LIG1        0.0660
     37 H           3.5201    6.1597    1.5618 H       1  LIG1        0.0660
     38 C           5.2515   10.1956   -0.1719 C.1     1  LIG1       -0.0620
     39 C           6.4108   10.5170   -0.2997 C.1     1  LIG1       -0.1137
     40 H           7.4289   10.8068   -0.4179 H       1  LIG1        0.1232
     41 C           2.5245   11.9646    0.0102 C.ar    1  LIG1        0.2136
     42 C           1.3806   12.7356    0.0148 C.ar    1  LIG1        0.1842
     43 C           1.8082   14.1139   -0.0893 C.ar    1  LIG1        0.1047
     44 C           3.1782   14.0619   -0.1413 C.ar    1  LIG1        0.1118
     45 O           3.6214   12.7866   -0.0779 O.2     1  LIG1       -0.4547
     46 H           3.9322   14.8294   -0.2139 H       1  LIG1        0.1043
     47 O           0.1165   12.2731    0.1496 O.3     1  LIG1       -0.4901
     48 C          -0.7376   12.4821   -0.9845 C.3     1  LIG1        0.0790
     49 H          -1.6847   12.0017   -0.7365 H       1  LIG1        0.0660
     50 H          -0.8970   13.5491   -1.1704 H       1  LIG1        0.0660
     51 H          -0.3148   12.0105   -1.8789 H       1  LIG1        0.0660
     52 C           0.9944   15.2747   -0.1009 C.1     1  LIG1       -0.0628
     53 C           0.2959   16.2627   -0.1142 C.1     1  LIG1       -0.1137
     54 H          -0.3147   17.1357   -0.1122 H       1  LIG1        0.1232
@<TRIPOS>BOND
     1    51    48    1
     2    14    13    1
     3    13    12    3
     4    11     8    1
     5    50    48    1
     6     9     8    1
     7    48    49    1
     8    48    47    1
     9    24    21    1
    10    12     3    1
    11     7     8    1
    12     7     2    1
    13     8    10    1
    14    40    39    1
    15     3     2   ar
    16     3     4   ar
    17     2     1   ar
    18    39    38    3
    19    46    44    1
    20    38    30    1
    21    44    43   ar
    22    44    45   ar
    23    53    54    1
    24    53    52    3
    25    52    43    1
    26    43    42   ar
    27    45    41   ar
    28    30    31   ar
    29    30    29   ar
    30    41    42   ar
    31    41    31    1
    32    33    29    1
    33    33    34    1
    34    42    47    1
    35    31    32   ar
    36     4    15    1
    37     4     5   ar
    38    29    28   ar
    39     1     6    1
    40     1     5   ar
    41    19    15   ar
    42    19    18   ar
    43    21    23    1
    44    21    22    1
    45    21    20    1
    46    32    28   ar
    47    28    18    1
    48    15    16   ar
    49    18    17   ar
    50    16    17   ar
    51    16    20    1
    52    17    25    1
    53    35    34    1
    54    25    26    3
    55    34    37    1
    56    34    36    1
    57    26    27    1
