@<TRIPOS>MOLECULE
mol_data/opt/b3lyp/geoms/mol2/12le12le12le12le.out
 54 57 0 0 0
SMALL
GASTEIGER

@<TRIPOS>ATOM
      1 C          -0.6000    2.2223   -0.0008 C.ar    1  LIG1        0.1355
      2 C           0.6813    1.7711   -0.0004 C.ar    1  LIG1        0.1737
      3 C           1.5512    2.9294   -0.0001 C.ar    1  LIG1        0.1152
      4 C           0.6992    4.0391   -0.0002 C.ar    1  LIG1        0.1924
      5 O          -0.5917    3.5885   -0.0007 O.2     1  LIG1       -0.4547
      6 H          -1.5680    1.7520   -0.0011 H       1  LIG1        0.1068
      7 O           1.1742    0.5138   -0.0004 O.3     1  LIG1       -0.4907
      8 C           0.1936   -0.5153   -0.0007 C.3     1  LIG1        0.0790
      9 H           0.7360   -1.4610   -0.0007 H       1  LIG1        0.0660
     10 H          -0.4408   -0.4558    0.8935 H       1  LIG1        0.0660
     11 H          -0.4403   -0.4556   -0.8954 H       1  LIG1        0.0660
     12 C           2.9521    2.7390    0.0004 C.1     1  LIG1       -0.0621
     13 C           4.1233    2.4281    0.0008 C.1     1  LIG1       -0.1137
     14 H           5.1583    2.1763    0.0012 H       1  LIG1        0.1232
     15 C           0.7372    5.4963   -0.0001 C.ar    1  LIG1        0.2146
     16 C           1.5909    6.5907    0.0000 C.ar    1  LIG1        0.1849
     17 C           0.7809    7.7902    0.0001 C.ar    1  LIG1        0.1159
     18 C          -0.5465    7.3658   -0.0001 C.ar    1  LIG1        0.1934
     19 O          -0.5503    6.0098   -0.0002 O.2     1  LIG1       -0.4434
     20 O           2.9194    6.7803    0.0001 O.3     1  LIG1       -0.4901
     21 C           3.7984    5.6678    0.0001 C.3     1  LIG1        0.0790
     22 H           4.8075    6.0839   -0.0000 H       1  LIG1        0.0660
     23 H           3.6597    5.0526    0.8919 H       1  LIG1        0.0660
     24 H           3.6596    5.0526   -0.8918 H       1  LIG1        0.0660
     25 C           1.4256    9.0489    0.0003 C.1     1  LIG1       -0.0620
     26 C           2.0981   10.0566    0.0004 C.1     1  LIG1       -0.1137
     27 H           2.6713   10.9545    0.0006 H       1  LIG1        0.1232
     28 C          -1.9039    7.8908   -0.0002 C.ar    1  LIG1        0.2146
     29 C          -2.6501    9.0632   -0.0003 C.ar    1  LIG1        0.1849
     30 C          -4.0510    8.7006   -0.0002 C.ar    1  LIG1        0.1159
     31 C          -4.0949    7.3088   -0.0001 C.ar    1  LIG1        0.1934
     32 O          -2.8200    6.8503   -0.0000 O.2     1  LIG1       -0.4434
     33 O          -2.3868   10.3776   -0.0005 O.3     1  LIG1       -0.4901
     34 C          -1.0465   10.8416   -0.0006 C.3     1  LIG1        0.0790
     35 H          -1.1083   11.9312   -0.0009 H       1  LIG1        0.0660
     36 H          -0.5119   10.5077    0.8913 H       1  LIG1        0.0660
     37 H          -0.5119   10.5072   -0.8923 H       1  LIG1        0.0660
     38 C          -5.0239    9.7274   -0.0003 C.1     1  LIG1       -0.0620
     39 C          -5.7509   10.6962   -0.0004 C.1     1  LIG1       -0.1137
     40 H          -6.4079   11.5348   -0.0002 H       1  LIG1        0.1232
     41 C          -5.0455    6.2046    0.0001 C.ar    1  LIG1        0.2136
     42 C          -6.4081    5.8976    0.0000 C.ar    1  LIG1        0.1842
     43 C          -6.5243    4.4559    0.0004 C.ar    1  LIG1        0.1047
     44 C          -5.2432    3.9846    0.0007 C.ar    1  LIG1        0.1118
     45 O          -4.3607    4.9891    0.0005 O.2     1  LIG1       -0.4547
     46 H          -4.8390    2.9844    0.0010 H       1  LIG1        0.1043
     47 O          -7.5605    6.5827   -0.0004 O.3     1  LIG1       -0.4901
     48 C          -7.5569    8.0016   -0.0008 C.3     1  LIG1        0.0790
     49 H          -8.6060    8.3022   -0.0012 H       1  LIG1        0.0660
     50 H          -7.0650    8.3960    0.8911 H       1  LIG1        0.0660
     51 H          -7.0645    8.3955   -0.8927 H       1  LIG1        0.0660
     52 C          -7.7295    3.7113    0.0004 C.1     1  LIG1       -0.0628
     53 C          -8.7546    3.0695    0.0005 C.1     1  LIG1       -0.1137
     54 H          -9.6598    2.5083    0.0006 H       1  LIG1        0.1232
@<TRIPOS>BOND
     1    11     8    1
     2    51    48    1
     3    37    34    1
     4    24    21    1
     5    49    48    1
     6     6     1    1
     7    35    34    1
     8    48    47    1
     9    48    50    1
    10     1     5   ar
    11     1     2   ar
    12     8     9    1
    13     8     7    1
    14     8    10    1
    15     5     4   ar
    16    34    33    1
    17    34    36    1
    18    33    29    1
    19     2     7    1
    20     2     3   ar
    21    39    38    3
    22    39    40    1
    23    47    42    1
    24    38    30    1
    25    29    30   ar
    26    29    28   ar
    27    30    31   ar
    28     4    15    1
    29     4     3   ar
    30    19    15   ar
    31    19    18   ar
    32    28    18    1
    33    28    32   ar
    34    15    16   ar
    35    18    17   ar
    36     3    12    1
    37    31    32   ar
    38    31    41    1
    39    22    21    1
    40    42    41   ar
    41    42    43   ar
    42    16    17   ar
    43    16    20    1
    44    21    20    1
    45    21    23    1
    46    17    25    1
    47    41    45   ar
    48    25    26    3
    49    43    52    1
    50    43    44   ar
    51    12    13    3
    52    26    27    1
    53    52    53    3
    54    53    54    1
    55    45    44   ar
    56    44    46    1
    57    13    14    1
