@<TRIPOS>MOLECULE
mol_data/opt/b3lyp/geoms/mol2/12le12le.out
 28 29 0 0 0
SMALL
GASTEIGER

@<TRIPOS>ATOM
      1 C           0.0114    1.8198    0.0000 C.ar    1  LIG1        0.1355
      2 C           1.3597    1.6543    0.0000 C.ar    1  LIG1        0.1737
      3 C           1.9608    2.9731   -0.0000 C.ar    1  LIG1        0.1152
      4 C           0.8925    3.8733   -0.0001 C.ar    1  LIG1        0.1924
      5 O          -0.2725    3.1572   -0.0000 O.2     1  LIG1       -0.4547
      6 H          -0.8347    1.1547    0.0000 H       1  LIG1        0.1068
      7 O           2.1112    0.5328    0.0000 O.3     1  LIG1       -0.4907
      8 C           1.3749   -0.6837    0.0000 C.3     1  LIG1        0.0790
      9 H           2.1085   -1.4902    0.0001 H       1  LIG1        0.0660
     10 H           0.7430   -0.7619    0.8944 H       1  LIG1        0.0660
     11 H           0.7430   -0.7619   -0.8944 H       1  LIG1        0.0660
     12 C           3.3698    3.0918   -0.0000 C.1     1  LIG1       -0.0621
     13 C           4.5805    3.0443   -0.0000 C.1     1  LIG1       -0.1137
     14 H           5.6455    3.0248    0.0001 H       1  LIG1        0.1232
     15 C           0.6171    5.3073   -0.0001 C.ar    1  LIG1        0.2136
     16 C           1.2227    6.5632   -0.0001 C.ar    1  LIG1        0.1842
     17 C           0.1659    7.5524   -0.0001 C.ar    1  LIG1        0.1047
     18 C          -1.0005    6.8445   -0.0002 C.ar    1  LIG1        0.1118
     19 O          -0.7615    5.5266   -0.0002 O.2     1  LIG1       -0.4547
     20 H          -2.0354    7.1492   -0.0002 H       1  LIG1        0.1043
     21 O           2.4782    7.0380   -0.0000 O.3     1  LIG1       -0.4901
     22 C           3.5815    6.1464   -0.0000 C.3     1  LIG1        0.0790
     23 H           4.4738    6.7748   -0.0000 H       1  LIG1        0.0660
     24 H           3.5810    5.5155    0.8919 H       1  LIG1        0.0660
     25 H           3.5810    5.5155   -0.8919 H       1  LIG1        0.0660
     26 C           0.3338    8.9591   -0.0001 C.1     1  LIG1       -0.0628
     27 C           0.4701   10.1608   -0.0002 C.1     1  LIG1       -0.1137
     28 H           0.5939   11.2187   -0.0001 H       1  LIG1        0.1232
@<TRIPOS>BOND
     1    11     8    1
     2    25    22    1
     3    20    18    1
     4    18    19   ar
     5    18    17   ar
     6    27    26    3
     7    27    28    1
     8    19    15   ar
     9    26    17    1
    10    17    16   ar
    11    15    16   ar
    12    15     4    1
    13    16    21    1
    14     4     5   ar
    15     4     3   ar
    16     5     1   ar
    17    12    13    3
    18    12     3    1
    19    13    14    1
    20     3     2   ar
    21    22    23    1
    22    22    21    1
    23    22    24    1
    24     1     2   ar
    25     1     6    1
    26     2     7    1
    27     7     8    1
    28     8     9    1
    29     8    10    1
