@<TRIPOS>MOLECULE
mol_data/opt/b3lyp/geoms/mol2/12le12le12le-12le-.out
 54 57 0 0 0
SMALL
GASTEIGER

@<TRIPOS>ATOM
      1 C          -0.0959    1.9374   -0.0002 C.ar    1  LIG1        0.1355
      2 C           1.2400    1.6924   -0.0001 C.ar    1  LIG1        0.1737
      3 C           1.9192    2.9720    0.0000 C.ar    1  LIG1        0.1152
      4 C           0.9048    3.9367   -0.0001 C.ar    1  LIG1        0.1924
      5 O          -0.3005    3.2890   -0.0002 O.2     1  LIG1       -0.4547
      6 H          -0.9794    1.3228   -0.0003 H       1  LIG1        0.1068
      7 O           1.9230    0.5265   -0.0000 O.3     1  LIG1       -0.4907
      8 C           1.1137   -0.6415   -0.0001 C.3     1  LIG1        0.0790
      9 H           1.7958   -1.4923   -0.0000 H       1  LIG1        0.0660
     10 H           0.4775   -0.6810    0.8940 H       1  LIG1        0.0660
     11 H           0.4777   -0.6810   -0.8944 H       1  LIG1        0.0660
     12 C           3.3323    3.0021    0.0002 C.1     1  LIG1       -0.0621
     13 C           4.5380    2.8782    0.0004 C.1     1  LIG1       -0.1137
     14 H           5.5996    2.7928    0.0006 H       1  LIG1        0.1232
     15 C           0.7151    5.3801   -0.0001 C.ar    1  LIG1        0.2146
     16 C           1.3936    6.5996   -0.0001 C.ar    1  LIG1        0.1849
     17 C           0.4105    7.6522   -0.0001 C.ar    1  LIG1        0.1159
     18 C          -0.8198    7.0184   -0.0001 C.ar    1  LIG1        0.1934
     19 O          -0.6482    5.6817   -0.0001 O.2     1  LIG1       -0.4434
     20 O           2.6779    6.9911   -0.0002 O.3     1  LIG1       -0.4901
     21 C           3.7191    6.0293   -0.0002 C.3     1  LIG1        0.0790
     22 H           4.6513    6.5973   -0.0004 H       1  LIG1        0.0660
     23 H           3.6782    5.3997    0.8916 H       1  LIG1        0.0660
     24 H           3.6780    5.3996   -0.8920 H       1  LIG1        0.0660
     25 C           0.7053    9.0344   -0.0001 C.1     1  LIG1       -0.0620
     26 C           0.9810   10.2127   -0.0001 C.1     1  LIG1       -0.1137
     27 H           1.2163   11.2509   -0.0001 H       1  LIG1        0.1232
     28 C          -2.1587    7.5107   -0.0001 C.ar    1  LIG1        0.2146
     29 C          -3.3983    6.8975   -0.0000 C.ar    1  LIG1        0.1849
     30 C          -4.3919    7.9484   -0.0000 C.ar    1  LIG1        0.1159
     31 C          -3.6607    9.1407   -0.0001 C.ar    1  LIG1        0.1934
     32 O          -2.3326    8.8709   -0.0001 O.2     1  LIG1       -0.4434
     33 O          -3.5120    5.5571    0.0000 O.3     1  LIG1       -0.4901
     34 C          -4.7955    4.9359   -0.0001 C.3     1  LIG1        0.0790
     35 H          -4.5905    3.8645   -0.0001 H       1  LIG1        0.0660
     36 H          -5.3703    5.2016    0.8914 H       1  LIG1        0.0660
     37 H          -5.3702    5.2017   -0.8917 H       1  LIG1        0.0660
     38 C          -5.8018    7.7957    0.0000 C.1     1  LIG1       -0.0620
     39 C          -7.0007    7.6287    0.0001 C.1     1  LIG1       -0.1137
     40 H          -8.0578    7.4996    0.0001 H       1  LIG1        0.1232
     41 C          -3.9730   10.5422   -0.0001 C.ar    1  LIG1        0.2136
     42 C          -5.1265   11.3100   -0.0002 C.ar    1  LIG1        0.1842
     43 C          -4.7062   12.6962   -0.0002 C.ar    1  LIG1        0.1047
     44 C          -3.3321   12.6488   -0.0002 C.ar    1  LIG1        0.1118
     45 O          -2.8812   11.3866   -0.0001 O.2     1  LIG1       -0.4547
     46 H          -2.5904   13.4319   -0.0002 H       1  LIG1        0.1043
     47 O          -6.3561   10.7687   -0.0002 O.3     1  LIG1       -0.4901
     48 C          -7.4999   11.6202   -0.0004 C.3     1  LIG1        0.0790
     49 H          -8.3582   10.9473   -0.0005 H       1  LIG1        0.0660
     50 H          -7.5275   12.2529    0.8917 H       1  LIG1        0.0660
     51 H          -7.5273   12.2527   -0.8927 H       1  LIG1        0.0660
     52 C          -5.4635   13.8977   -0.0003 C.1     1  LIG1       -0.0628
     53 C          -6.0627   14.9490   -0.0003 C.1     1  LIG1       -0.1137
     54 H          -6.5946   15.8721   -0.0005 H       1  LIG1        0.1232
@<TRIPOS>BOND
     1    11     8    1
     2    51    48    1
     3    24    21    1
     4    37    34    1
     5    54    53    1
     6    49    48    1
     7    48    47    1
     8    48    50    1
     9    22    21    1
    10    53    52    3
    11     6     1    1
    12    52    43    1
    13     5     1   ar
    14     5     4   ar
    15    43    44   ar
    16    43    42   ar
    17    21    20    1
    18    21    23    1
    19     1     2   ar
    20    46    44    1
    21    47    42    1
    22    44    45   ar
    23    42    41   ar
    24    20    16    1
    25    45    41   ar
    26    41    31    1
    27    32    31   ar
    28    32    28   ar
    29    16    17   ar
    30    16    15   ar
    31    26    25    3
    32    26    27    1
    33    25    17    1
    34    17    18   ar
    35    15     4    1
    36    15    19   ar
    37    35    34    1
    38     8     9    1
    39     8     7    1
    40     8    10    1
    41     4     3   ar
    42    31    30   ar
    43    19    18   ar
    44    18    28    1
    45    34    33    1
    46    34    36    1
    47    28    29   ar
    48     2     7    1
    49     2     3   ar
    50    30    29   ar
    51    30    38    1
    52    29    33    1
    53     3    12    1
    54    38    39    3
    55    40    39    1
    56    12    13    3
    57    13    14    1
