@<TRIPOS>MOLECULE
mol_data/opt/b3lyp/geoms/mol2/12le12le12le-12le.out
 54 57 0 0 0
SMALL
GASTEIGER

@<TRIPOS>ATOM
      1 C          -0.2407    1.8942    0.0000 C.ar    1  LIG1        0.1355
      2 C           1.0763    1.5615    0.0002 C.ar    1  LIG1        0.1737
      3 C           1.8379    2.7938    0.0001 C.ar    1  LIG1        0.1152
      4 C           0.8893    3.8226   -0.0001 C.ar    1  LIG1        0.1924
      5 O          -0.3563    3.2563   -0.0001 O.2     1  LIG1       -0.4547
      6 H          -1.1625    1.3387    0.0001 H       1  LIG1        0.1068
      7 O           1.6812    0.3539    0.0003 O.3     1  LIG1       -0.4907
      8 C           0.7976   -0.7595    0.0004 C.3     1  LIG1        0.0790
      9 H           1.4232   -1.6525    0.0006 H       1  LIG1        0.0660
     10 H           0.1605   -0.7573    0.8947 H       1  LIG1        0.0660
     11 H           0.1606   -0.7575   -0.8939 H       1  LIG1        0.0660
     12 C           3.2501    2.7320    0.0002 C.1     1  LIG1       -0.0621
     13 C           4.4451    2.5300    0.0003 C.1     1  LIG1       -0.1137
     14 H           5.4988    2.3746    0.0004 H       1  LIG1        0.1232
     15 C           0.7955    5.2758   -0.0003 C.ar    1  LIG1        0.2146
     16 C           1.5496    6.4468   -0.0005 C.ar    1  LIG1        0.1849
     17 C           0.6352    7.5636   -0.0005 C.ar    1  LIG1        0.1159
     18 C          -0.6373    7.0139   -0.0004 C.ar    1  LIG1        0.1934
     19 O          -0.5421    5.6672   -0.0003 O.2     1  LIG1       -0.4434
     20 O           2.8556    6.7556   -0.0007 O.3     1  LIG1       -0.4901
     21 C           3.8330    5.7282   -0.0007 C.3     1  LIG1        0.0790
     22 H           4.7997    6.2351   -0.0010 H       1  LIG1        0.0660
     23 H           3.7512    5.1030    0.8913 H       1  LIG1        0.0660
     24 H           3.7508    5.1027   -0.8924 H       1  LIG1        0.0660
     25 C           1.0739    8.9060   -0.0008 C.1     1  LIG1       -0.0620
     26 C           1.5562   10.0173   -0.0011 C.1     1  LIG1       -0.1137
     27 H           1.9859   10.9915   -0.0012 H       1  LIG1        0.1232
     28 C          -1.9693    7.5299   -0.0004 C.ar    1  LIG1        0.2146
     29 C          -3.1952    6.8872   -0.0003 C.ar    1  LIG1        0.1849
     30 C          -4.2129    7.9086   -0.0003 C.ar    1  LIG1        0.1159
     31 C          -3.5181    9.1225   -0.0004 C.ar    1  LIG1        0.1934
     32 O          -2.1809    8.8949   -0.0004 O.2     1  LIG1       -0.4434
     33 O          -3.2829    5.5473   -0.0002 O.3     1  LIG1       -0.4901
     34 C          -4.5546    4.9001   -0.0003 C.3     1  LIG1        0.0790
     35 H          -4.3266    3.8335   -0.0004 H       1  LIG1        0.0660
     36 H          -5.1340    5.1543    0.8913 H       1  LIG1        0.0660
     37 H          -5.1339    5.1544   -0.8920 H       1  LIG1        0.0660
     38 C          -5.6197    7.7269   -0.0001 C.1     1  LIG1       -0.0620
     39 C          -6.8179    7.5548    0.0001 C.1     1  LIG1       -0.1137
     40 H          -7.8741    7.4179    0.0005 H       1  LIG1        0.1232
     41 C          -4.0214   10.4708   -0.0005 C.ar    1  LIG1        0.2136
     42 C          -3.5608   11.7867   -0.0000 C.ar    1  LIG1        0.1842
     43 C          -4.7294   12.6394   -0.0005 C.ar    1  LIG1        0.1047
     44 C          -5.8041   11.7951   -0.0013 C.ar    1  LIG1        0.1118
     45 O          -5.4091   10.5124   -0.0012 O.2     1  LIG1       -0.4547
     46 H          -6.8678   11.9738   -0.0018 H       1  LIG1        0.1043
     47 O          -2.3619   12.3815    0.0009 O.3     1  LIG1       -0.4901
     48 C          -1.1569   11.6160    0.0015 C.3     1  LIG1        0.0790
     49 H          -0.3536   12.3529    0.0023 H       1  LIG1        0.0660
     50 H          -1.0826   10.9883    0.8913 H       1  LIG1        0.0660
     51 H          -1.0813   10.9889   -0.8886 H       1  LIG1        0.0660
     52 C          -4.7359   14.0561   -0.0003 C.1     1  LIG1       -0.0628
     53 C          -4.7474   15.2653   -0.0002 C.1     1  LIG1       -0.1137
     54 H          -4.7523   16.3305   -0.0001 H       1  LIG1        0.1232
@<TRIPOS>BOND
     1    11     8    1
     2    24    21    1
     3    37    34    1
     4    51    48    1
     5    46    44    1
     6    44    45   ar
     7    44    43   ar
     8    27    26    1
     9    45    41   ar
    10    26    25    3
    11    22    21    1
    12    25    17    1
    13    21    20    1
    14    21    23    1
    15    20    16    1
    16    17    16   ar
    17    17    18   ar
    18    43    52    1
    19    43    42   ar
    20    16    15   ar
    21    41    31    1
    22    41    42   ar
    23    32    31   ar
    24    32    28   ar
    25    18    28    1
    26    18    19   ar
    27    31    30   ar
    28    35    34    1
    29    28    29   ar
    30    34    33    1
    31    34    36    1
    32    52    53    3
    33    30    29   ar
    34    30    38    1
    35    15    19   ar
    36    15     4    1
    37    29    33    1
    38    53    54    1
    39     5     4   ar
    40     5     1   ar
    41     4     3   ar
    42    38    39    3
    43    42    47    1
    44     1     6    1
    45     1     2   ar
    46     3     2   ar
    47     3    12    1
    48    39    40    1
    49     2     7    1
    50    12    13    3
    51    13    14    1
    52     7     8    1
    53     8     9    1
    54     8    10    1
    55    47    48    1
    56    48    49    1
    57    48    50    1
