@<TRIPOS>MOLECULE
mol_data/opt/b3lyp/geoms/mol2/12le12le12le.out
 41 43 0 0 0
SMALL
GASTEIGER

@<TRIPOS>ATOM
      1 C          -0.1139    1.9858   -0.0001 C.ar    1  LIG1        0.1355
      2 C           1.2085    1.6746   -0.0001 C.ar    1  LIG1        0.1737
      3 C           1.9497    2.9195   -0.0000 C.ar    1  LIG1        0.1152
      4 C           0.9843    3.9315   -0.0001 C.ar    1  LIG1        0.1924
      5 O          -0.2512    3.3455   -0.0001 O.2     1  LIG1       -0.4547
      6 H          -1.0271    1.4162   -0.0002 H       1  LIG1        0.1068
      7 O           1.8334    0.4775   -0.0000 O.3     1  LIG1       -0.4907
      8 C           0.9684   -0.6509   -0.0001 C.3     1  LIG1        0.0790
      9 H           1.6093   -1.5330   -0.0001 H       1  LIG1        0.0660
     10 H           0.3317   -0.6596    0.8943 H       1  LIG1        0.0660
     11 H           0.3317   -0.6595   -0.8945 H       1  LIG1        0.0660
     12 C           3.3629    2.8825    0.0000 C.1     1  LIG1       -0.0621
     13 C           4.5613    2.7025    0.0001 C.1     1  LIG1       -0.1137
     14 H           5.6176    2.5657    0.0004 H       1  LIG1        0.1232
     15 C           0.8659    5.3847   -0.0001 C.ar    1  LIG1        0.2146
     16 C           1.5938    6.5661   -0.0000 C.ar    1  LIG1        0.1849
     17 C           0.6556    7.6695   -0.0001 C.ar    1  LIG1        0.1159
     18 C          -0.6153    7.1019   -0.0001 C.ar    1  LIG1        0.1934
     19 O          -0.4701    5.7541   -0.0001 O.2     1  LIG1       -0.4434
     20 O           2.8933    6.9004   -0.0000 O.3     1  LIG1       -0.4901
     21 C           3.8889    5.8905   -0.0001 C.3     1  LIG1        0.0790
     22 H           4.8463    6.4147   -0.0001 H       1  LIG1        0.0660
     23 H           3.8182    5.2638    0.8918 H       1  LIG1        0.0660
     24 H           3.8181    5.2638   -0.8919 H       1  LIG1        0.0660
     25 C           1.1548    8.9929   -0.0000 C.1     1  LIG1       -0.0620
     26 C           1.7079   10.0705   -0.0000 C.1     1  LIG1       -0.1137
     27 H           2.1750   11.0279   -0.0003 H       1  LIG1        0.1232
     28 C          -2.0252    7.4719   -0.0001 C.ar    1  LIG1        0.2136
     29 C          -2.8984    8.5614   -0.0001 C.ar    1  LIG1        0.1842
     30 C          -4.2455    8.0340   -0.0001 C.ar    1  LIG1        0.1047
     31 C          -4.1086    6.6760   -0.0000 C.ar    1  LIG1        0.1118
     32 O          -2.8179    6.3231   -0.0000 O.2     1  LIG1       -0.4547
     33 H          -4.8300    5.8737   -0.0000 H       1  LIG1        0.1043
     34 O          -2.7862    9.8977   -0.0002 O.3     1  LIG1       -0.4901
     35 C          -1.5077   10.5129   -0.0003 C.3     1  LIG1        0.0790
     36 H          -1.6942   11.5882   -0.0004 H       1  LIG1        0.0660
     37 H          -0.9384   10.2419    0.8916 H       1  LIG1        0.0660
     38 H          -0.9384   10.2417   -0.8921 H       1  LIG1        0.0660
     39 C          -5.4427    8.7914   -0.0001 C.1     1  LIG1       -0.0628
     40 C          -6.4686    9.4317   -0.0002 C.1     1  LIG1       -0.1137
     41 H          -7.3702    9.9990   -0.0005 H       1  LIG1        0.1232
@<TRIPOS>BOND
     1    11     8    1
     2    38    35    1
     3    24    21    1
     4    41    40    1
     5    36    35    1
     6    27    26    1
     7    35    34    1
     8    35    37    1
     9    34    29    1
    10    40    39    3
    11     6     1    1
    12    29    30   ar
    13    29    28   ar
    14    22    21    1
    15     5     1   ar
    16     5     4   ar
    17     1     2   ar
    18    39    30    1
    19    30    31   ar
    20    28    18    1
    21    28    32   ar
    22    19    18   ar
    23    19    15   ar
    24     8     9    1
    25     8     7    1
    26     8    10    1
    27    21    20    1
    28    21    23    1
    29    18    17   ar
    30    15     4    1
    31    15    16   ar
    32     4     3   ar
    33     2     7    1
    34     2     3   ar
    35    17    16   ar
    36    17    25    1
    37    16    20    1
    38    31    32   ar
    39    31    33    1
    40    26    25    3
    41     3    12    1
    42    12    13    3
    43    13    14    1
