@<TRIPOS>MOLECULE
mol_data/opt/b3lyp/geoms/mol2/12le12le-12le-12le-.out
 54 57 0 0 0
SMALL
GASTEIGER

@<TRIPOS>ATOM
      1 C          -0.1417    1.9529    0.1824 C.ar    1  LIG1        0.1355
      2 C           1.2101    1.8728    0.3532 C.ar    1  LIG1        0.1737
      3 C           1.7413    3.2076    0.2077 C.ar    1  LIG1        0.1152
      4 C           0.6367    4.0071   -0.0469 C.ar    1  LIG1        0.1924
      5 O          -0.4977    3.2579   -0.0618 O.2     1  LIG1       -0.4547
      6 H          -0.9460    1.2380    0.1944 H       1  LIG1        0.1068
      7 O           2.0004    0.8084    0.6107 O.3     1  LIG1       -0.4907
      8 C           1.3212   -0.4351    0.7233 C.3     1  LIG1        0.0790
      9 H           2.0830   -1.1873    0.9296 H       1  LIG1        0.0660
     10 H           0.5939   -0.4144    1.5458 H       1  LIG1        0.0660
     11 H           0.8006   -0.6865   -0.2102 H       1  LIG1        0.0660
     12 C           3.1014    3.5789    0.3041 C.1     1  LIG1       -0.0621
     13 C           4.2709    3.8772    0.3911 C.1     1  LIG1       -0.1137
     14 H           5.2936    4.1655    0.4577 H       1  LIG1        0.1232
     15 C           0.4914    5.4143   -0.2703 C.ar    1  LIG1        0.2146
     16 C          -0.5821    6.2204   -0.5807 C.ar    1  LIG1        0.1849
     17 C          -0.0860    7.5706   -0.6859 C.ar    1  LIG1        0.1159
     18 C           1.2753    7.4830   -0.4215 C.ar    1  LIG1        0.1934
     19 O           1.6193    6.1865   -0.1797 O.2     1  LIG1       -0.4434
     20 O          -1.8430    5.7913   -0.8277 O.3     1  LIG1       -0.4901
     21 C          -2.8445    6.2666    0.0813 C.3     1  LIG1        0.0790
     22 H          -3.7902    5.8509   -0.2697 H       1  LIG1        0.0660
     23 H          -2.6433    5.9105    1.0985 H       1  LIG1        0.0660
     24 H          -2.9006    7.3594    0.0763 H       1  LIG1        0.0660
     25 C          -0.8466    8.6918   -1.0933 C.1     1  LIG1       -0.0620
     26 C          -1.5396    9.6155   -1.4564 C.1     1  LIG1       -0.1137
     27 H          -2.1210   10.4398   -1.7981 H       1  LIG1        0.1232
     28 C           2.3445    8.4347   -0.3467 C.ar    1  LIG1        0.2146
     29 C           2.4086    9.7963   -0.1453 C.ar    1  LIG1        0.1849
     30 C           3.8022   10.1678   -0.1721 C.ar    1  LIG1        0.1159
     31 C           4.4945    8.9803   -0.3663 C.ar    1  LIG1        0.1934
     32 O           3.6220    7.9442   -0.4799 O.2     1  LIG1       -0.4434
     33 O           1.3418   10.6146   -0.0002 O.3     1  LIG1       -0.4901
     34 C           1.2735   11.3348    1.2390 C.3     1  LIG1        0.0790
     35 H           0.3468   11.9087    1.1975 H       1  LIG1        0.0660
     36 H           1.2381   10.6416    2.0874 H       1  LIG1        0.0660
     37 H           2.1236   12.0133    1.3535 H       1  LIG1        0.0660
     38 C           4.3037   11.4899   -0.1203 C.1     1  LIG1       -0.0620
     39 C           4.6729   12.6431   -0.0943 C.1     1  LIG1       -0.1137
     40 H           5.0006   13.6564   -0.0782 H       1  LIG1        0.1232
     41 C           5.8866    8.6509   -0.4862 C.ar    1  LIG1        0.2136
     42 C           7.0508    9.2347   -0.0366 C.ar    1  LIG1        0.1842
     43 C           8.1404    8.3919   -0.4842 C.ar    1  LIG1        0.1047
     44 C           7.5378    7.3573   -1.1552 C.ar    1  LIG1        0.1118
     45 O           6.1962    7.4900   -1.1608 O.2     1  LIG1       -0.4547
     46 H           7.9391    6.4889   -1.6538 H       1  LIG1        0.1043
     47 O           7.1090   10.3177    0.7692 O.3     1  LIG1       -0.4901
     48 C           7.9368   11.4007    0.3216 C.3     1  LIG1        0.0790
     49 H           7.9101   12.1443    1.1189 H       1  LIG1        0.0660
     50 H           8.9669   11.0725    0.1591 H       1  LIG1        0.0660
     51 H           7.5305   11.8357   -0.5979 H       1  LIG1        0.0660
     52 C           9.5295    8.5418   -0.2414 C.1     1  LIG1       -0.0628
     53 C          10.7163    8.6617   -0.0375 C.1     1  LIG1       -0.1137
     54 H          11.7603    8.7581    0.1518 H       1  LIG1        0.1232
@<TRIPOS>BOND
     1    27    26    1
     2    46    44    1
     3    26    25    3
     4    45    44   ar
     5    45    41   ar
     6    44    43   ar
     7    25    17    1
     8    20    16    1
     9    20    21    1
    10    17    16   ar
    11    17    18   ar
    12    51    48    1
    13    16    15   ar
    14    41    31    1
    15    41    42   ar
    16    43    52    1
    17    43    42   ar
    18    32    31   ar
    19    32    28   ar
    20    18    28    1
    21    18    19   ar
    22    31    30   ar
    23    28    29   ar
    24    15    19   ar
    25    15     4    1
    26    22    21    1
    27    52    53    3
    28    11     8    1
    29    30    29   ar
    30    30    38    1
    31    29    33    1
    32    38    39    3
    33    39    40    1
    34     5     4   ar
    35     5     1   ar
    36     4     3   ar
    37    53    54    1
    38    42    47    1
    39    33    34    1
    40    24    21    1
    41    21    23    1
    42    50    48    1
    43     1     6    1
    44     1     2   ar
    45     3    12    1
    46     3     2   ar
    47    12    13    3
    48    48    47    1
    49    48    49    1
    50     2     7    1
    51    13    14    1
    52     7     8    1
    53     8     9    1
    54     8    10    1
    55    35    34    1
    56    34    37    1
    57    34    36    1
