@<TRIPOS>MOLECULE
mol_data/opt/b3lyp/geoms/mol2/12le12le-12le12le.out
 54 57 0 0 0
SMALL
GASTEIGER

@<TRIPOS>ATOM
      1 C          -0.2348    1.7803    0.1616 C.ar    1  LIG1        0.1355
      2 C           0.9872    1.7035   -0.4408 C.ar    1  LIG1        0.1737
      3 C           1.5348    3.0398   -0.4721 C.ar    1  LIG1        0.1152
      4 C           0.5731    3.8370    0.1329 C.ar    1  LIG1        0.1924
      5 O          -0.4910    3.0837    0.5155 O.2     1  LIG1       -0.4547
      6 H          -1.0002    1.0649    0.4074 H       1  LIG1        0.1068
      7 O           1.6519    0.6438   -0.9481 O.3     1  LIG1       -0.4907
      8 C           0.9725   -0.6014   -0.8463 C.3     1  LIG1        0.0790
      9 H           1.6258   -1.3486   -1.2974 H       1  LIG1        0.0660
     10 H           0.7849   -0.8634    0.2033 H       1  LIG1        0.0660
     11 H           0.0173   -0.5742   -1.3866 H       1  LIG1        0.0660
     12 C           2.7779    3.4082   -1.0350 C.1     1  LIG1       -0.0621
     13 C           3.8474    3.6884   -1.5287 C.1     1  LIG1       -0.1137
     14 H           4.7792    3.9476   -1.9751 H       1  LIG1        0.1232
     15 C           0.5010    5.2425    0.3994 C.ar    1  LIG1        0.2146
     16 C          -0.4825    6.0601    0.9133 C.ar    1  LIG1        0.1849
     17 C           0.0488    7.4004    0.9381 C.ar    1  LIG1        0.1159
     18 C           1.3358    7.2995    0.4281 C.ar    1  LIG1        0.1934
     19 O           1.6072    6.0034    0.1036 O.2     1  LIG1       -0.4434
     20 O          -1.6828    5.6371    1.3723 O.3     1  LIG1       -0.4901
     21 C          -2.8329    6.2194    0.7417 C.3     1  LIG1        0.0790
     22 H          -3.6991    5.7752    1.2339 H       1  LIG1        0.0660
     23 H          -2.8526    7.3051    0.8712 H       1  LIG1        0.0660
     24 H          -2.8522    5.9742   -0.3265 H       1  LIG1        0.0660
     25 C          -0.5835    8.5512    1.4666 C.1     1  LIG1       -0.0620
     26 C          -1.1426    9.5193    1.9309 C.1     1  LIG1       -0.1137
     27 H          -1.6187   10.3774    2.3452 H       1  LIG1        0.1232
     28 C           2.3412    8.2889    0.1636 C.ar    1  LIG1        0.2146
     29 C           3.7232    8.3152    0.0700 C.ar    1  LIG1        0.1849
     30 C           4.0884    9.6479   -0.3405 C.ar    1  LIG1        0.1159
     31 C           2.9051   10.3597   -0.4245 C.ar    1  LIG1        0.1934
     32 O           1.8562    9.5511   -0.1223 O.2     1  LIG1       -0.4434
     33 O           4.6744    7.3913    0.2839 O.3     1  LIG1       -0.4901
     34 C           4.4170    6.3214    1.2031 C.3     1  LIG1        0.0790
     35 H           5.3985    5.9378    1.4859 H       1  LIG1        0.0660
     36 H           3.8994    6.6944    2.0941 H       1  LIG1        0.0660
     37 H           3.8314    5.5311    0.7322 H       1  LIG1        0.0660
     38 C           5.3969   10.0990   -0.6348 C.1     1  LIG1       -0.0620
     39 C           6.5159   10.4849   -0.8859 C.1     1  LIG1       -0.1137
     40 H           7.4977   10.8248   -1.1211 H       1  LIG1        0.1232
     41 C           2.6035   11.7176   -0.7963 C.ar    1  LIG1        0.2136
     42 C           3.1834   12.9499   -0.5741 C.ar    1  LIG1        0.1842
     43 C           2.4338   13.9127   -1.3503 C.ar    1  LIG1        0.1047
     44 C           1.4440   13.1907   -1.9639 C.ar    1  LIG1        0.1118
     45 O           1.5193   11.8847   -1.6440 O.2     1  LIG1       -0.4547
     46 H           0.6405   13.4812   -2.6225 H       1  LIG1        0.1043
     47 O           4.2117   13.3340    0.2056 O.3     1  LIG1       -0.4901
     48 C           4.4016   12.6558    1.4527 C.3     1  LIG1        0.0790
     49 H           5.0407   13.3093    2.0485 H       1  LIG1        0.0660
     50 H           3.4427   12.5126    1.9630 H       1  LIG1        0.0660
     51 H           4.8975   11.6930    1.3132 H       1  LIG1        0.0660
     52 C           2.6619   15.3092   -1.4235 C.1     1  LIG1       -0.0628
     53 C           2.8554   16.5013   -1.4860 C.1     1  LIG1       -0.1137
     54 H           3.0300   17.5507   -1.5398 H       1  LIG1        0.1232
@<TRIPOS>BOND
     1    46    44    1
     2    14    13    1
     3    44    45   ar
     4    44    43   ar
     5    45    41   ar
     6    54    53    1
     7    13    12    3
     8    53    52    3
     9    52    43    1
    10    11     8    1
    11    43    42   ar
    12     9     8    1
    13    40    39    1
    14    12     3    1
    15     7     8    1
    16     7     2    1
    17    39    38    3
    18     8    10    1
    19    41    42   ar
    20    41    31    1
    21    38    30    1
    22    42    47    1
    23     3     2   ar
    24     3     4   ar
    25     2     1   ar
    26    31    30   ar
    27    31    32   ar
    28    30    29   ar
    29    24    21    1
    30    32    28   ar
    31    29    28   ar
    32    29    33    1
    33    19    15   ar
    34    19    18   ar
    35     4    15    1
    36     4     5   ar
    37     1     6    1
    38     1     5   ar
    39    28    18    1
    40    47    48    1
    41    33    34    1
    42    15    16   ar
    43    18    17   ar
    44    37    34    1
    45    21    23    1
    46    21    22    1
    47    21    20    1
    48    16    17   ar
    49    16    20    1
    50    17    25    1
    51    34    35    1
    52    34    36    1
    53    51    48    1
    54    48    50    1
    55    48    49    1
    56    25    26    3
    57    26    27    1
