@<TRIPOS>MOLECULE
mol_data/opt/b3lyp/geoms/mol2/12le12le-.out
 28 29 0 0 0
SMALL
GASTEIGER

@<TRIPOS>ATOM
      1 C           0.0830    1.8644   -0.0000 C.ar    1  LIG1        0.1355
      2 C           1.4468    1.8299   -0.0000 C.ar    1  LIG1        0.1737
      3 C           1.9125    3.1975   -0.0001 C.ar    1  LIG1        0.1152
      4 C           0.7591    3.9684   -0.0001 C.ar    1  LIG1        0.1924
      5 O          -0.3418    3.1729   -0.0001 O.2     1  LIG1       -0.4547
      6 H          -0.6907    1.1167   -0.0000 H       1  LIG1        0.1068
      7 O           2.2983    0.7814   -0.0000 O.3     1  LIG1       -0.4907
      8 C           1.6797   -0.4983   -0.0000 C.3     1  LIG1        0.0790
      9 H           2.4855   -1.2327   -0.0000 H       1  LIG1        0.0660
     10 H           1.0578   -0.6357    0.8944 H       1  LIG1        0.0660
     11 H           1.0578   -0.6358   -0.8944 H       1  LIG1        0.0660
     12 C           3.2646    3.6094   -0.0001 C.1     1  LIG1       -0.0621
     13 C           4.4329    3.9261   -0.0000 C.1     1  LIG1       -0.1137
     14 H           5.4589    4.2108    0.0006 H       1  LIG1        0.1232
     15 C           0.5382    5.3839   -0.0001 C.ar    1  LIG1        0.2136
     16 C          -0.6016    6.1662   -0.0000 C.ar    1  LIG1        0.1842
     17 C          -0.1540    7.5455   -0.0001 C.ar    1  LIG1        0.1047
     18 C           1.2195    7.4725   -0.0002 C.ar    1  LIG1        0.1118
     19 O           1.6460    6.1978   -0.0002 O.2     1  LIG1       -0.4547
     20 H           1.9772    8.2397   -0.0003 H       1  LIG1        0.1043
     21 O          -1.8404    5.6343    0.0001 O.3     1  LIG1       -0.4901
     22 C          -2.9671    6.5085    0.0001 C.3     1  LIG1        0.0790
     23 H          -3.8402    5.8547    0.0001 H       1  LIG1        0.0660
     24 H          -2.9824    7.1427    0.8918 H       1  LIG1        0.0660
     25 H          -2.9825    7.1426   -0.8918 H       1  LIG1        0.0660
     26 C          -0.8875    8.7616   -0.0001 C.1     1  LIG1       -0.0628
     27 C          -1.4687    9.8231   -0.0001 C.1     1  LIG1       -0.1137
     28 H          -1.9850   10.7549   -0.0007 H       1  LIG1        0.1232
@<TRIPOS>BOND
     1    11     8    1
     2    25    22    1
     3    28    27    1
     4    20    18    1
     5    19    18   ar
     6    19    15   ar
     7    18    17   ar
     8    27    26    3
     9    15     4    1
    10    15    16   ar
    11    17    26    1
    12    17    16   ar
    13    12     3    1
    14    12    13    3
    15     4     3   ar
    16     4     5   ar
    17     3     2   ar
    18     5     1   ar
    19     2     1   ar
    20     2     7    1
    21    16    21    1
    22     1     6    1
    23    13    14    1
    24     7     8    1
    25     8     9    1
    26     8    10    1
    27    22    21    1
    28    22    23    1
    29    22    24    1
