@<TRIPOS>MOLECULE
mol_data/opt/b3lyp/geoms/mol2/12lf6eh-12hi-13id-.out
 51 54 0 0 0
SMALL
GASTEIGER

@<TRIPOS>ATOM
      1 C           0.3195    1.4944   -0.3636 C.ar    1  LIG1        0.1379
      2 C           1.6374    1.6468   -0.0254 C.ar    1  LIG1        0.2001
      3 C           1.8519    3.0558    0.1086 C.ar    1  LIG1        0.2054
      4 C           0.6500    3.6723   -0.1594 C.ar    1  LIG1        0.1825
      5 O          -0.2908    2.7134   -0.4400 O.2     1  LIG1       -0.4553
      6 H          -0.3007    0.6384   -0.5682 H       1  LIG1        0.1069
      7 O           2.6177    0.7351    0.1739 O.3     1  LIG1       -0.4888
      8 C           2.2162   -0.6193    0.0180 C.3     1  LIG1        0.0791
      9 H           3.0984   -1.2294    0.2138 H       1  LIG1        0.0660
     10 H           1.4234   -0.8813    0.7312 H       1  LIG1        0.0660
     11 H           1.8577   -0.8110   -1.0023 H       1  LIG1        0.0660
     12 O           3.0504    3.5987    0.4611 O.3     1  LIG1       -0.5008
     13 H           2.8920    4.4897    0.8038 H       1  LIG1        0.2924
     14 C          -0.9651    5.6143    0.1850 C.ar    1  LIG1        0.1248
     15 C           0.2986    5.0820   -0.1934 C.ar    1  LIG1        0.0566
     16 C           1.2636    6.0071   -0.6277 C.ar    1  LIG1       -0.0254
     17 C           0.9990    7.3721   -0.6468 C.ar    1  LIG1        0.0548
     18 C          -0.2644    7.8113   -0.1651 C.ar    1  LIG1        0.1298
     19 N          -1.2120    6.9328    0.1929 N.ar    1  LIG1       -0.2327
     20 H           2.2086    5.6423   -1.0232 H       1  LIG1        0.0644
     21 C          -2.0465    4.7821    0.6265 C.1     1  LIG1       -0.0491
     22 C          -2.9751    4.1158    1.0211 C.1     1  LIG1       -0.1124
     23 H          -3.7876    3.5174    1.3622 H       1  LIG1        0.1232
     24 N           1.9413    8.2981   -1.1291 N.pl3   1  LIG1       -0.3562
     25 H           2.6855    7.8664   -1.6655 H       1  LIG1        0.1424
     26 H           1.5029    9.0396   -1.6688 H       1  LIG1        0.1424
     27 C          -0.6049    9.2229   -0.0602 C.ar    1  LIG1        0.1765
     28 C           0.0751   10.3670    0.3352 C.ar    1  LIG1        0.0762
     29 C          -0.8937   11.4275    0.4202 C.ar    1  LIG1        0.0181
     30 C          -2.0962   10.8651    0.0631 C.ar    1  LIG1        0.1568
     31 O          -1.9406    9.5391   -0.2159 O.2     1  LIG1       -0.4496
     32 N           1.3952   10.4936    0.7454 N.pl3   1  LIG1       -0.3548
     33 H           2.0169    9.7752    0.3837 H       1  LIG1        0.1424
     34 H           1.7743   11.4243    0.6314 H       1  LIG1        0.1424
     35 C          -0.6114   12.8021    0.9451 C.3     1  LIG1       -0.0343
     36 H          -1.5293   13.2964    1.2686 H       1  LIG1        0.0279
     37 H          -0.1304   13.4522    0.2028 H       1  LIG1        0.0279
     38 H           0.0572   12.7454    1.8119 H       1  LIG1        0.0279
     39 C          -3.4634   11.3306   -0.0256 C.ar    1  LIG1        0.0866
     40 C          -4.0459   12.5429   -0.3728 C.ar    1  LIG1       -0.0048
     41 C          -5.4653   12.3419   -0.2858 C.ar    1  LIG1        0.0726
     42 C          -5.6947   11.0232    0.0884 C.ar    1  LIG1        0.0200
     43 N          -4.4859   10.4304    0.2411 N.ar    1  LIG1       -0.3569
     44 H          -4.3174    9.4628    0.4755 H       1  LIG1        0.1655
     45 H          -6.6222   10.4948    0.2446 H       1  LIG1        0.0820
     46 C          -3.3765   13.8038   -0.8287 C.3     1  LIG1       -0.0364
     47 H          -3.9745   14.2941   -1.6027 H       1  LIG1        0.0279
     48 H          -2.3872   13.5960   -1.2438 H       1  LIG1        0.0279
     49 H          -3.2534   14.5290   -0.0154 H       1  LIG1        0.0279
     50 N          -7.2656   14.1236   -0.7987 N.1     1  LIG1       -0.1908
     51 C          -6.4634   13.3122   -0.5635 C.1     1  LIG1        0.1009
@<TRIPOS>BOND
     1    26    24    1
     2    25    24    1
     3    47    46    1
     4    48    46    1
     5    24    17    1
     6    20    16    1
     7    11     8    1
     8    46    40    1
     9    46    49    1
    10    50    51    3
    11    17    16   ar
    12    17    18   ar
    13    16    15   ar
    14     6     1    1
    15    51    41    1
    16     5     1   ar
    17     5     4   ar
    18    40    41   ar
    19    40    39   ar
    20     1     2   ar
    21    41    42   ar
    22    31    27   ar
    23    31    30   ar
    24    15     4    1
    25    15    14   ar
    26    18    27    1
    27    18    19   ar
    28     4     3   ar
    29    27    28   ar
    30    39    30    1
    31    39    43   ar
    32     2     3   ar
    33     2     7    1
    34     8     7    1
    35     8     9    1
    36     8    10    1
    37    30    29   ar
    38    42    43   ar
    39    42    45    1
    40     3    12    1
    41    14    19   ar
    42    14    21    1
    43    37    35    1
    44    43    44    1
    45    28    29   ar
    46    28    32    1
    47    33    32    1
    48    29    35    1
    49    12    13    1
    50    21    22    3
    51    34    32    1
    52    35    36    1
    53    35    38    1
    54    22    23    1
