@<TRIPOS>MOLECULE
mol_data/opt/b3lyp/geoms/mol2/12lf12lf12lf12lf.out
 50 53 0 0 0
SMALL
GASTEIGER

@<TRIPOS>ATOM
      1 C           0.5719    1.0438   -0.5052 C.ar    1  LIG1        0.1381
      2 C           1.9260    1.1179   -0.3203 C.ar    1  LIG1        0.2002
      3 C           2.2321    2.4959   -0.0686 C.ar    1  LIG1        0.2086
      4 C           1.0271    3.1696   -0.1218 C.ar    1  LIG1        0.2184
      5 O           0.0102    2.2850   -0.3899 O.2     1  LIG1       -0.4521
      6 H          -0.1064    0.2337   -0.7123 H       1  LIG1        0.1069
      7 O           2.8787    0.1552   -0.3414 O.3     1  LIG1       -0.4888
      8 C           2.3954   -1.1579   -0.5818 C.3     1  LIG1        0.0791
      9 H           3.2637   -1.8176   -0.5644 H       1  LIG1        0.0660
     10 H           1.6847   -1.4673    0.1964 H       1  LIG1        0.0660
     11 H           1.9036   -1.2267   -1.5617 H       1  LIG1        0.0660
     12 O           3.4773    2.9491    0.1786 O.3     1  LIG1       -0.5007
     13 H           3.4358    3.9215    0.2854 H       1  LIG1        0.2924
     14 C           0.7033    4.5544    0.0445 C.ar    1  LIG1        0.2196
     15 C           1.5008    5.6714    0.1932 C.ar    1  LIG1        0.2117
     16 C           0.6349    6.7885    0.3694 C.ar    1  LIG1        0.2094
     17 C          -0.6540    6.2882    0.3022 C.ar    1  LIG1        0.2195
     18 O          -0.6070    4.9224    0.1155 O.2     1  LIG1       -0.4407
     19 O           2.8758    5.6612    0.2278 O.3     1  LIG1       -0.4883
     20 C           3.5101    6.5158   -0.7437 C.3     1  LIG1        0.0791
     21 H           4.5844    6.3985   -0.5948 H       1  LIG1        0.0660
     22 H           3.2393    6.2098   -1.7603 H       1  LIG1        0.0660
     23 H           3.2201    7.5557   -0.5770 H       1  LIG1        0.0660
     24 O           1.0647    8.0547    0.5607 O.3     1  LIG1       -0.5007
     25 H           0.2843    8.6485    0.5871 H       1  LIG1        0.2924
     26 C          -1.9277    6.9278    0.3915 C.ar    1  LIG1        0.2197
     27 C          -2.2782    8.2632    0.4366 C.ar    1  LIG1        0.2117
     28 C          -3.6931    8.3242    0.5872 C.ar    1  LIG1        0.2094
     29 C          -4.1320    7.0135    0.6087 C.ar    1  LIG1        0.2194
     30 O          -3.0511    6.1634    0.5004 O.2     1  LIG1       -0.4407
     31 O          -1.3886    9.3135    0.4070 O.3     1  LIG1       -0.4883
     32 C          -1.6207   10.2703   -0.6453 C.3     1  LIG1        0.0791
     33 H          -0.8486   11.0336   -0.5379 H       1  LIG1        0.0660
     34 H          -1.5380    9.7902   -1.6267 H       1  LIG1        0.0660
     35 H          -2.6095   10.7203   -0.5323 H       1  LIG1        0.0660
     36 O          -4.3952    9.4752    0.6823 O.3     1  LIG1       -0.5007
     37 H          -5.3514    9.2577    0.6933 H       1  LIG1        0.2924
     38 C          -5.4438    6.4518    0.7207 C.ar    1  LIG1        0.2186
     39 C          -6.6910    7.0369    0.6870 C.ar    1  LIG1        0.2109
     40 C          -7.6440    5.9940    0.9172 C.ar    1  LIG1        0.1979
     41 C          -6.9245    4.8432    1.0641 C.ar    1  LIG1        0.1379
     42 O          -5.5813    5.1170    0.9585 O.2     1  LIG1       -0.4521
     43 H          -7.1915    3.8134    1.2364 H       1  LIG1        0.1069
     44 O          -6.9348    8.3822    0.5199 O.3     1  LIG1       -0.4883
     45 C          -7.7440    8.7081   -0.6272 C.3     1  LIG1        0.0791
     46 H          -7.8428    9.7947   -0.6318 H       1  LIG1        0.0660
     47 H          -7.2581    8.3722   -1.5499 H       1  LIG1        0.0660
     48 H          -8.7299    8.2457   -0.5367 H       1  LIG1        0.0660
     49 O          -8.9894    6.2144    0.9466 O.3     1  LIG1       -0.5012
     50 H          -9.4451    5.3776    1.1057 H       1  LIG1        0.2924
@<TRIPOS>BOND
     1    22    20    1
     2    34    32    1
     3    11     8    1
     4    47    45    1
     5    20    21    1
     6    20    23    1
     7    20    19    1
     8     6     1    1
     9    32    33    1
    10    32    35    1
    11    32    31    1
    12    46    45    1
    13    45    48    1
    14    45    44    1
    15     8     9    1
    16     8     7    1
    17     8    10    1
    18     1     5   ar
    19     1     2   ar
    20     5     4   ar
    21     7     2    1
    22     2     3   ar
    23     4     3   ar
    24     4    14    1
    25     3    12    1
    26    14    18   ar
    27    14    15   ar
    28    18    17   ar
    29    12    13    1
    30    15    19    1
    31    15    16   ar
    32    17    16   ar
    33    17    26    1
    34    16    24    1
    35    26    27   ar
    36    26    30   ar
    37    31    27    1
    38    27    28   ar
    39    30    29   ar
    40    44    39    1
    41    24    25    1
    42    28    29   ar
    43    28    36    1
    44    29    38    1
    45    36    37    1
    46    39    38   ar
    47    39    40   ar
    48    38    42   ar
    49    40    49    1
    50    40    41   ar
    51    49    50    1
    52    42    41   ar
    53    41    43    1
