@<TRIPOS>MOLECULE
mol_data/opt/b3lyp/geoms/mol2/12lf12id4ea-6id.out
 50 53 0 0 0
SMALL
GASTEIGER

@<TRIPOS>ATOM
      1 C           0.6901    1.7469    0.8926 C.ar    1  LIG1        0.1381
      2 C           1.6704    1.6963   -0.0612 C.ar    1  LIG1        0.2002
      3 C           1.7879    3.0259   -0.5847 C.ar    1  LIG1        0.2085
      4 C           0.8834    3.8002    0.1011 C.ar    1  LIG1        0.2149
      5 O           0.1994    3.0177    1.0024 O.2     1  LIG1       -0.4522
      6 H           0.2480    1.0090    1.5404 H       1  LIG1        0.1069
      7 O           2.4237    0.6683   -0.5122 O.3     1  LIG1       -0.4888
      8 C           2.1618   -0.5853    0.1063 C.3     1  LIG1        0.0791
      9 H           2.8371   -1.3056   -0.3559 H       1  LIG1        0.0660
     10 H           2.3561   -0.5408    1.1860 H       1  LIG1        0.0660
     11 H           1.1224   -0.8980   -0.0595 H       1  LIG1        0.0660
     12 O           2.6451    3.3586   -1.5831 O.3     1  LIG1       -0.5007
     13 H           2.4065    4.2341   -1.9188 H       1  LIG1        0.2924
     14 C           0.5658    5.2031    0.0155 C.ar    1  LIG1        0.1785
     15 C           1.3390    6.3258   -0.1398 C.ar    1  LIG1        0.0165
     16 C           0.4089    7.4282   -0.1963 C.ar    1  LIG1        0.1010
     17 C          -0.8621    6.9070   -0.0361 C.ar    1  LIG1        0.1546
     18 O          -0.7656    5.5537    0.0719 O.2     1  LIG1       -0.4500
     19 C           2.8322    6.4373   -0.1910 C.3     1  LIG1       -0.0348
     20 H           3.1940    7.1176    0.5870 H       1  LIG1        0.0279
     21 H           3.1738    6.8477   -1.1484 H       1  LIG1        0.0279
     22 H           3.3097    5.4670   -0.0411 H       1  LIG1        0.0279
     23 N           1.1703    9.8395   -0.7172 N.1     1  LIG1       -0.1907
     24 C           0.7888    8.7692   -0.4639 C.1     1  LIG1        0.1033
     25 C          -2.5784    8.6631    0.5984 C.ar    1  LIG1        0.0359
     26 C          -3.9089    9.1114    0.5140 C.ar    1  LIG1       -0.0379
     27 C          -2.2200    7.4475   -0.0403 C.ar    1  LIG1        0.0340
     28 C          -4.8976    8.3817   -0.1522 C.ar    1  LIG1       -0.0149
     29 H          -4.1683   10.0372    1.0163 H       1  LIG1        0.0636
     30 C          -3.2246    6.7099   -0.6908 C.ar    1  LIG1       -0.0493
     31 C          -4.5350    7.1622   -0.7487 C.ar    1  LIG1       -0.0532
     32 H          -2.9560    5.7762   -1.1721 H       1  LIG1        0.0625
     33 C          -1.6609    9.4238    1.3827 C.1     1  LIG1       -0.0689
     34 C          -0.9334   10.0940    2.0789 C.1     1  LIG1       -0.1139
     35 H          -0.2614   10.6819    2.6607 H       1  LIG1        0.1232
     36 H          -5.2761    6.5816   -1.2876 H       1  LIG1        0.0624
     37 C          -7.4317    8.1786    0.1329 C.ar    1  LIG1        0.0460
     38 C          -6.2828    8.9186   -0.2446 C.ar    1  LIG1        0.0044
     39 C          -6.4733   10.2224   -0.7098 C.ar    1  LIG1       -0.0335
     40 C          -7.7671   10.7460   -0.8136 C.ar    1  LIG1        0.0704
     41 C          -8.8390    9.9214   -0.4388 C.ar    1  LIG1        0.0452
     42 N          -8.6720    8.6867    0.0255 N.ar    1  LIG1       -0.2583
     43 H          -5.6201   10.8237   -1.0064 H       1  LIG1        0.0637
     44 H          -9.8609   10.2853   -0.5145 H       1  LIG1        0.0843
     45 C          -7.3621    6.7856    0.7068 C.3     1  LIG1       -0.0218
     46 H          -6.4460    6.6179    1.2770 H       1  LIG1        0.0293
     47 H          -7.4006    6.0308   -0.0877 H       1  LIG1        0.0293
     48 H          -8.2312    6.6254    1.3471 H       1  LIG1        0.0293
     49 N          -8.1964   13.1536   -1.6805 N.1     1  LIG1       -0.1908
     50 C          -7.9991   12.0749   -1.2924 C.1     1  LIG1        0.1007
@<TRIPOS>BOND
     1    13    12    1
     2    49    50    3
     3    12     3    1
     4    50    40    1
     5    36    31    1
     6    32    30    1
     7    21    19    1
     8    43    39    1
     9    40    39   ar
    10    40    41   ar
    11    31    30   ar
    12    31    28   ar
    13    23    24    3
    14    39    38   ar
    15    30    27   ar
    16     3     2   ar
    17     3     4   ar
    18    44    41    1
    19     7     2    1
    20     7     8    1
    21    24    16    1
    22    41    42   ar
    23     9     8    1
    24    38    28    1
    25    38    37   ar
    26    16    15   ar
    27    16    17   ar
    28    19    15    1
    29    19    22    1
    30    19    20    1
    31    28    26   ar
    32    15    14   ar
    33    47    45    1
    34     2     1   ar
    35    11     8    1
    36    27    17    1
    37    27    25   ar
    38    17    18   ar
    39    14    18   ar
    40    14     4    1
    41    42    37   ar
    42     4     5   ar
    43     8    10    1
    44    37    45    1
    45    26    25   ar
    46    26    29    1
    47    25    33    1
    48    45    46    1
    49    45    48    1
    50     1     5   ar
    51     1     6    1
    52    33    34    3
    53    34    35    1
