@<TRIPOS>MOLECULE
mol_data/opt/b3lyp/geoms/mol2/12lf12lf-12lf12lf.out
 50 53 0 0 0
SMALL
GASTEIGER

@<TRIPOS>ATOM
      1 C          -0.2986    1.7208   -0.0258 C.ar    1  LIG1        0.1381
      2 C           1.0454    1.8671   -0.2377 C.ar    1  LIG1        0.2002
      3 C           1.3197    3.2754   -0.2026 C.ar    1  LIG1        0.2086
      4 C           0.1078    3.8915    0.0335 C.ar    1  LIG1        0.2184
      5 O          -0.8864    2.9508    0.1443 O.2     1  LIG1       -0.4521
      6 H          -0.9548    0.8698    0.0341 H       1  LIG1        0.1069
      7 O           2.0127    0.9452   -0.4493 O.3     1  LIG1       -0.4888
      8 C           1.5664   -0.4034   -0.4538 C.3     1  LIG1        0.0791
      9 H           2.4469   -1.0217   -0.6317 H       1  LIG1        0.0660
     10 H           1.1168   -0.6750    0.5108 H       1  LIG1        0.0660
     11 H           0.8315   -0.5745   -1.2520 H       1  LIG1        0.0660
     12 O           2.5497    3.8034   -0.3771 O.3     1  LIG1       -0.5007
     13 H           2.4974    4.7745   -0.3246 H       1  LIG1        0.2924
     14 C          -0.1781    5.2830    0.1823 C.ar    1  LIG1        0.2196
     15 C          -1.2609    6.1129    0.3850 C.ar    1  LIG1        0.2117
     16 C          -0.7596    7.4505    0.4532 C.ar    1  LIG1        0.2094
     17 C           0.6050    7.3874    0.2844 C.ar    1  LIG1        0.2195
     18 O           0.9497    6.0611    0.1104 O.2     1  LIG1       -0.4407
     19 O          -2.5928    5.8661    0.5598 O.3     1  LIG1       -0.4883
     20 C          -3.2385    5.1366   -0.4953 C.3     1  LIG1        0.0791
     21 H          -4.3006    5.1195   -0.2441 H       1  LIG1        0.0660
     22 H          -3.0951    5.6383   -1.4596 H       1  LIG1        0.0660
     23 H          -2.8566    4.1139   -0.5523 H       1  LIG1        0.0660
     24 O          -1.5254    8.5473    0.6529 O.3     1  LIG1       -0.5007
     25 H          -2.4336    8.2252    0.7668 H       1  LIG1        0.2924
     26 C           1.6909    8.3102    0.2453 C.ar    1  LIG1        0.2197
     27 C           3.0511    8.1119    0.0914 C.ar    1  LIG1        0.2117
     28 C           3.6539    9.4065    0.1072 C.ar    1  LIG1        0.2094
     29 C           2.6248   10.3147    0.2744 C.ar    1  LIG1        0.2194
     30 O           1.4232    9.6440    0.3438 O.2     1  LIG1       -0.4407
     31 O           3.6619    6.9044   -0.0946 O.3     1  LIG1       -0.4883
     32 C           4.7261    6.6128    0.8265 C.3     1  LIG1        0.0791
     33 H           5.0740    5.6102    0.5730 H       1  LIG1        0.0660
     34 H           5.5424    7.3321    0.7222 H       1  LIG1        0.0660
     35 H           4.3566    6.6225    1.8588 H       1  LIG1        0.0660
     36 O           4.9836    9.6228   -0.0030 O.3     1  LIG1       -0.5007
     37 H           5.1440   10.5898   -0.0161 H       1  LIG1        0.2924
     38 C           2.6209   11.7436    0.3634 C.ar    1  LIG1        0.2186
     39 C           3.6192   12.6733    0.1674 C.ar    1  LIG1        0.2109
     40 C           3.0517   13.9566    0.4498 C.ar    1  LIG1        0.1979
     41 C           1.7484   13.7333    0.7888 C.ar    1  LIG1        0.1379
     42 O           1.4818   12.3848    0.7501 O.2     1  LIG1       -0.4521
     43 H           0.9288   14.3761    1.0657 H       1  LIG1        0.1069
     44 O           4.9201   12.3867   -0.1824 O.3     1  LIG1       -0.4883
     45 C           5.3413   12.9571   -1.4376 C.3     1  LIG1        0.0791
     46 H           6.3745   12.6392   -1.5853 H       1  LIG1        0.0660
     47 H           4.7156   12.5881   -2.2574 H       1  LIG1        0.0660
     48 H           5.2904   14.0477   -1.3915 H       1  LIG1        0.0660
     49 O           3.7617   15.1167    0.3513 O.3     1  LIG1       -0.5012
     50 H           3.1865   15.8606    0.5723 H       1  LIG1        0.2924
@<TRIPOS>BOND
     1    47    45    1
     2    46    45    1
     3    22    20    1
     4    45    48    1
     5    45    44    1
     6    11     8    1
     7     9     8    1
     8    23    20    1
     9    20    21    1
    10    20    19    1
    11     8     7    1
    12     8    10    1
    13     7     2    1
    14    12    13    1
    15    12     3    1
    16     2     3   ar
    17     2     1   ar
    18     3     4   ar
    19    44    39    1
    20    31    27    1
    21    31    32    1
    22     1     6    1
    23     1     5   ar
    24    37    36    1
    25    36    28    1
    26     4     5   ar
    27     4    14    1
    28    27    28   ar
    29    27    26   ar
    30    28    29   ar
    31    18    14   ar
    32    18    17   ar
    33    39    38   ar
    34    39    40   ar
    35    14    15   ar
    36    26    17    1
    37    26    30   ar
    38    29    30   ar
    39    29    38    1
    40    17    16   ar
    41    49    40    1
    42    49    50    1
    43    38    42   ar
    44    15    16   ar
    45    15    19    1
    46    40    41   ar
    47    16    24    1
    48    33    32    1
    49    24    25    1
    50    34    32    1
    51    42    41   ar
    52    41    43    1
    53    32    35    1
