@<TRIPOS>MOLECULE
mol_data/opt/b3lyp/geoms/mol2/12lf12lf-12lf12lf-.out
 50 53 0 0 0
SMALL
GASTEIGER

@<TRIPOS>ATOM
      1 C          -0.1891    1.7528   -0.0002 C.ar    1  LIG1        0.1381
      2 C           1.1779    1.6813   -0.0001 C.ar    1  LIG1        0.2002
      3 C           1.6536    3.0314   -0.0000 C.ar    1  LIG1        0.2086
      4 C           0.5376    3.8392   -0.0001 C.ar    1  LIG1        0.2184
      5 O          -0.5934    3.0626   -0.0002 O.2     1  LIG1       -0.4521
      6 H          -0.9729    1.0149   -0.0003 H       1  LIG1        0.1069
      7 O           2.0118    0.6144   -0.0000 O.3     1  LIG1       -0.4888
      8 C           1.3646   -0.6499   -0.0003 C.3     1  LIG1        0.0791
      9 H           2.1529   -1.4034   -0.0003 H       1  LIG1        0.0660
     10 H           0.7387   -0.7743    0.8937 H       1  LIG1        0.0660
     11 H           0.7390   -0.7741   -0.8945 H       1  LIG1        0.0660
     12 O           2.9652    3.3779    0.0001 O.3     1  LIG1       -0.5007
     13 H           3.0057    4.3442    0.0002 H       1  LIG1        0.2924
     14 C           0.4057    5.2627    0.0000 C.ar    1  LIG1        0.2196
     15 C          -0.6691    6.1223    0.0001 C.ar    1  LIG1        0.2117
     16 C          -0.1329    7.4533    0.0001 C.ar    1  LIG1        0.2094
     17 C           1.2472    7.3372    0.0001 C.ar    1  LIG1        0.2195
     18 O           1.5742    5.9967    0.0000 O.2     1  LIG1       -0.4407
     19 O          -1.9519    5.6552    0.0001 O.3     1  LIG1       -0.4883
     20 C          -3.0299    6.5710    0.0000 C.3     1  LIG1        0.0791
     21 H          -3.9386    5.9669    0.0000 H       1  LIG1        0.0660
     22 H          -3.0411    7.1983    0.9038 H       1  LIG1        0.0660
     23 H          -3.0410    7.1983   -0.9037 H       1  LIG1        0.0660
     24 O          -0.7920    8.6469    0.0001 O.3     1  LIG1       -0.5007
     25 H          -1.7401    8.4850    0.0002 H       1  LIG1        0.2924
     26 C           2.2680    8.3511    0.0000 C.ar    1  LIG1        0.2197
     27 C           3.6587    8.4660    0.0001 C.ar    1  LIG1        0.2117
     28 C           3.9520    9.8638   -0.0001 C.ar    1  LIG1        0.2094
     29 C           2.7511   10.5310   -0.0002 C.ar    1  LIG1        0.2194
     30 O           1.7301    9.6255   -0.0001 O.2     1  LIG1       -0.4407
     31 O           4.7178    7.6208    0.0003 O.3     1  LIG1       -0.4883
     32 C           4.5434    6.2181    0.0003 C.3     1  LIG1        0.0791
     33 H           5.5482    5.7930    0.0001 H       1  LIG1        0.0660
     34 H           4.0139    5.8815    0.8999 H       1  LIG1        0.0660
     35 H           4.0136    5.8815   -0.8992 H       1  LIG1        0.0660
     36 O           5.2138   10.3560   -0.0001 O.3     1  LIG1       -0.5007
     37 H           5.1504   11.3233   -0.0002 H       1  LIG1        0.2924
     38 C           2.4777   11.9336   -0.0003 C.ar    1  LIG1        0.2186
     39 C           1.3418   12.7144   -0.0003 C.ar    1  LIG1        0.2109
     40 C           1.7953   14.0861   -0.0004 C.ar    1  LIG1        0.1979
     41 C           3.1582   14.0474   -0.0005 C.ar    1  LIG1        0.1379
     42 O           3.5891   12.7449   -0.0004 O.2     1  LIG1       -0.4521
     43 H           3.9103   14.8174   -0.0006 H       1  LIG1        0.1069
     44 O           0.0916   12.1671   -0.0001 O.3     1  LIG1       -0.4883
     45 C          -1.0295   13.0268   -0.0003 C.3     1  LIG1        0.0791
     46 H          -1.9080   12.3798   -0.0003 H       1  LIG1        0.0660
     47 H          -1.0710   13.6543    0.9028 H       1  LIG1        0.0660
     48 H          -1.0709   13.6540   -0.9037 H       1  LIG1        0.0660
     49 O           1.0901   15.2571   -0.0005 O.3     1  LIG1       -0.5012
     50 H           0.1464   15.0717   -0.0004 H       1  LIG1        0.2924
@<TRIPOS>BOND
     1    48    45    1
     2    23    20    1
     3    35    32    1
     4    11     8    1
     5    43    41    1
     6    41    40   ar
     7    41    42   ar
     8    49    40    1
     9    49    50    1
    10    40    39   ar
    11    42    38   ar
    12    45    46    1
    13    45    44    1
    14    45    47    1
    15     6     1    1
    16     9     8    1
    17     8     7    1
    18     8    10    1
    19    39    38   ar
    20    39    44    1
    21    38    29    1
    22     1     5   ar
    23     1     2   ar
    24     5     4   ar
    25    37    36    1
    26    29    30   ar
    27    29    28   ar
    28    30    26   ar
    29     2     7    1
    30     2     3   ar
    31    36    28    1
    32     4     3   ar
    33     4    14    1
    34    28    27   ar
    35     3    12    1
    36    14    18   ar
    37    14    15   ar
    38    18    17   ar
    39    21    20    1
    40    26    17    1
    41    26    27   ar
    42    20    19    1
    43    20    22    1
    44    17    16   ar
    45    12    13    1
    46    15    16   ar
    47    15    19    1
    48    16    24    1
    49    27    31    1
    50    33    32    1
    51    24    25    1
    52    32    31    1
    53    32    34    1
