@<TRIPOS>MOLECULE
mol_data/opt/b3lyp/geoms/mol2/12lf.out
 14 14 0 0 0
SMALL
GASTEIGER

@<TRIPOS>ATOM
      1 C           0.0530    1.9501   -0.0000 C.ar    1  LIG1        0.1370
      2 C           1.4188    1.8937    0.0000 C.ar    1  LIG1        0.1994
      3 C           1.8799    3.2564   -0.0000 C.ar    1  LIG1        0.1971
      4 C           0.7624    4.0375   -0.0001 C.ar    1  LIG1        0.1368
      5 O          -0.3607    3.2548   -0.0000 O.2     1  LIG1       -0.4635
      6 H          -0.7217    1.2022   -0.0000 H       1  LIG1        0.1069
      7 H           0.6078    5.1048   -0.0001 H       1  LIG1        0.1069
      8 O           2.2684    0.8383    0.0001 O.3     1  LIG1       -0.4888
      9 C           1.6380   -0.4343    0.0001 C.3     1  LIG1        0.0791
     10 H           2.4358   -1.1778    0.0001 H       1  LIG1        0.0660
     11 H           1.0136   -0.5666    0.8940 H       1  LIG1        0.0660
     12 H           1.0137   -0.5666   -0.8939 H       1  LIG1        0.0660
     13 O           3.2019    3.5823   -0.0000 O.3     1  LIG1       -0.5012
     14 H           3.2871    4.5443   -0.0000 H       1  LIG1        0.2924
@<TRIPOS>BOND
     1    12     9    1
     2     7     4    1
     3     4     3   ar
     4     4     5   ar
     5    14    13    1
     6     3    13    1
     7     3     2   ar
     8     1     6    1
     9     1     5   ar
    10     1     2   ar
    11     2     8    1
    12     9     8    1
    13     9    10    1
    14     9    11    1
