@<TRIPOS>MOLECULE
mol_data/opt/b3lyp/geoms/mol2/12lf13dh13lh12ae-.out
 58 61 0 0 0
SMALL
GASTEIGER

@<TRIPOS>ATOM
      1 C           0.5970    1.6247    0.7417 C.ar    1  LIG1        0.0993
      2 C           1.6133    1.6180   -0.1697 C.ar    1  LIG1        0.0297
      3 C           1.8402    3.0135   -0.4623 C.ar    1  LIG1        0.1717
      4 C           0.9603    3.7487    0.3005 C.ar    1  LIG1        0.2149
      5 O           0.1846    2.8795    1.0398 O.2     1  LIG1       -0.4556
      6 H           0.0776    0.8214    1.2429 H       1  LIG1        0.1033
      7 C           2.2544    0.3866   -0.7428 C.3     1  LIG1       -0.0332
      8 H           3.3230    0.3216   -0.5121 H       1  LIG1        0.0280
      9 H           2.1495    0.3430   -1.8324 H       1  LIG1        0.0280
     10 H           1.7772   -0.5085   -0.3336 H       1  LIG1        0.0280
     11 O           2.6736    3.6020   -1.3679 O.3     1  LIG1       -0.4909
     12 C           3.9303    2.9830   -1.6241 C.3     1  LIG1        0.0790
     13 H           4.5088    3.7065   -2.2015 H       1  LIG1        0.0660
     14 H           4.4666    2.7542   -0.6946 H       1  LIG1        0.0660
     15 H           3.8237    2.0659   -2.2126 H       1  LIG1        0.0660
     16 C           0.6460    5.1552    0.3763 C.ar    1  LIG1        0.2158
     17 C           1.3567    6.3242    0.5409 C.ar    1  LIG1        0.1723
     18 C           0.4429    7.4225    0.4091 C.ar    1  LIG1        0.0378
     19 C          -0.7852    6.8552    0.1732 C.ar    1  LIG1        0.1426
     20 O          -0.6792    5.4904    0.1604 O.2     1  LIG1       -0.4475
     21 O           2.6602    6.5611    0.8299 O.3     1  LIG1       -0.4909
     22 C           3.4038    5.5169    1.4507 C.3     1  LIG1        0.0790
     23 H           4.3415    5.9697    1.7783 H       1  LIG1        0.0660
     24 H           2.8668    5.1128    2.3170 H       1  LIG1        0.0660
     25 H           3.6142    4.7067    0.7477 H       1  LIG1        0.0660
     26 C           0.8094    8.8569    0.6314 C.3     1  LIG1       -0.0326
     27 H          -0.0612    9.4481    0.9256 H       1  LIG1        0.0280
     28 H           1.2447    9.3168   -0.2637 H       1  LIG1        0.0280
     29 H           1.5604    8.9292    1.4235 H       1  LIG1        0.0280
     30 C          -2.4914    8.4524   -0.8071 C.ar    1  LIG1       -0.0392
     31 C          -3.8304    8.8595   -0.8374 C.ar    1  LIG1       -0.0501
     32 C          -2.1502    7.3820    0.0480 C.ar    1  LIG1        0.0209
     33 C          -4.8340    8.2474   -0.0772 C.ar    1  LIG1       -0.0114
     34 H          -4.1116    9.6720   -1.5030 H       1  LIG1        0.0627
     35 C          -3.1616    6.7597    0.8030 C.ar    1  LIG1       -0.0473
     36 C          -4.4943    7.1656    0.7685 C.ar    1  LIG1       -0.0420
     37 H          -2.8803    5.9355    1.4512 H       1  LIG1        0.0627
     38 C          -1.4964    9.1278   -1.7216 C.3     1  LIG1       -0.0390
     39 H          -1.9965    9.5087   -2.6167 H       1  LIG1        0.0278
     40 H          -0.7087    8.4376   -2.0341 H       1  LIG1        0.0278
     41 H          -1.0062    9.9804   -1.2385 H       1  LIG1        0.0278
     42 C          -5.5201    6.4842    1.6443 C.3     1  LIG1       -0.0391
     43 H          -5.0430    5.7554    2.3041 H       1  LIG1        0.0278
     44 H          -6.2754    5.9598    1.0490 H       1  LIG1        0.0278
     45 H          -6.0534    7.2085    2.2690 H       1  LIG1        0.0278
     46 C          -7.2555    8.0151   -0.8435 C.ar    1  LIG1        0.1240
     47 C          -6.2321    8.7598   -0.1848 C.ar    1  LIG1        0.0231
     48 C          -6.5828   10.0096    0.3012 C.ar    1  LIG1       -0.0319
     49 C          -7.9025   10.4850    0.1661 C.ar    1  LIG1        0.0705
     50 C          -8.8268    9.6530   -0.4816 C.ar    1  LIG1        0.0471
     51 N          -8.5176    8.4598   -0.9794 N.ar    1  LIG1       -0.2388
     52 H          -5.8357   10.6209    0.7970 H       1  LIG1        0.0638
     53 H          -9.8572    9.9784   -0.6052 H       1  LIG1        0.0843
     54 N          -7.0012    6.7763   -1.3649 N.pl3   1  LIG1       -0.3427
     55 H          -7.7125    6.4036   -1.9759 H       1  LIG1        0.1437
     56 H          -6.0441    6.5150   -1.5459 H       1  LIG1        0.1437
     57 N          -8.6104   12.8077    1.0730 N.1     1  LIG1       -0.1908
     58 C          -8.2910   11.7643    0.6665 C.1     1  LIG1        0.1007
@<TRIPOS>BOND
     1    39    38    1
     2    15    12    1
     3    13    12    1
     4    40    38    1
     5    55    54    1
     6     9     7    1
     7    38    41    1
     8    38    30    1
     9    12    11    1
    10    12    14    1
    11    56    54    1
    12    34    31    1
    13    11     3    1
    14    54    46    1
    15    51    46   ar
    16    51    50   ar
    17    46    47   ar
    18    31    30   ar
    19    31    33   ar
    20    30    32   ar
    21     7     8    1
    22     7    10    1
    23     7     2    1
    24    53    50    1
    25    50    49   ar
    26     3     2   ar
    27     3     4   ar
    28    28    26    1
    29    47    33    1
    30    47    48   ar
    31     2     1   ar
    32    33    36   ar
    33    32    19    1
    34    32    35   ar
    35    20    19   ar
    36    20    16   ar
    37    49    48   ar
    38    49    58    1
    39    19    18   ar
    40     4    16    1
    41     4     5   ar
    42    48    52    1
    43    16    17   ar
    44    18    17   ar
    45    18    26    1
    46    17    21    1
    47    26    27    1
    48    26    29    1
    49    58    57    3
    50     1     5   ar
    51     1     6    1
    52    25    22    1
    53    36    35   ar
    54    36    42    1
    55    35    37    1
    56    21    22    1
    57    44    42    1
    58    22    23    1
    59    22    24    1
    60    42    45    1
    61    42    43    1
