@<TRIPOS>MOLECULE
mol_data/opt/b3lyp/geoms/mol2/12lf12lf-.out
 26 27 0 0 0
SMALL
GASTEIGER

@<TRIPOS>ATOM
      1 C           0.0617    1.8169    0.0000 C.ar    1  LIG1        0.1381
      2 C           1.4308    1.8118   -0.0000 C.ar    1  LIG1        0.2002
      3 C           1.8420    3.1845   -0.0001 C.ar    1  LIG1        0.2086
      4 C           0.6861    3.9325   -0.0000 C.ar    1  LIG1        0.2184
      5 O          -0.4064    3.1052    0.0000 O.2     1  LIG1       -0.4521
      6 H          -0.6849    1.0418    0.0001 H       1  LIG1        0.1069
      7 O           2.3147    0.7857    0.0000 O.3     1  LIG1       -0.4888
      8 C           1.7288   -0.5078    0.0000 C.3     1  LIG1        0.0791
      9 H           2.5523   -1.2227    0.0000 H       1  LIG1        0.0660
     10 H           1.1097   -0.6623    0.8941 H       1  LIG1        0.0660
     11 H           1.1096   -0.6624   -0.8940 H       1  LIG1        0.0660
     12 O           3.1352    3.5915   -0.0001 O.3     1  LIG1       -0.5007
     13 H           3.1378    4.5608   -0.0002 H       1  LIG1        0.2924
     14 C           0.5093    5.3538   -0.0001 C.ar    1  LIG1        0.2186
     15 C          -0.5730    6.2049    0.0000 C.ar    1  LIG1        0.2109
     16 C          -0.0316    7.5452   -0.0001 C.ar    1  LIG1        0.1979
     17 C           1.3256    7.4179   -0.0002 C.ar    1  LIG1        0.1379
     18 O           1.6705    6.0897   -0.0002 O.2     1  LIG1       -0.4521
     19 H           2.1267    8.1370   -0.0003 H       1  LIG1        0.1069
     20 O          -1.8567    5.7381    0.0002 O.3     1  LIG1       -0.4883
     21 C          -2.9218    6.6682   -0.0002 C.3     1  LIG1        0.0791
     22 H          -3.8400    6.0789   -0.0002 H       1  LIG1        0.0660
     23 H          -2.9228    7.2967    0.9031 H       1  LIG1        0.0660
     24 H          -2.9224    7.2963   -0.9037 H       1  LIG1        0.0660
     25 O          -0.6596    8.7592   -0.0000 O.3     1  LIG1       -0.5012
     26 H          -1.6134    8.6357    0.0002 H       1  LIG1        0.2924
@<TRIPOS>BOND
     1    24    21    1
     2    11     8    1
     3    19    17    1
     4    22    21    1
     5    17    18   ar
     6    17    16   ar
     7    21    20    1
     8    21    23    1
     9    18    14   ar
    10    13    12    1
    11    12     3    1
    12    14     4    1
    13    14    15   ar
    14     3     4   ar
    15     3     2   ar
    16    16    25    1
    17    16    15   ar
    18     4     5   ar
    19    25    26    1
    20     2     7    1
    21     2     1   ar
    22     7     8    1
    23    15    20    1
    24     1     5   ar
    25     1     6    1
    26     9     8    1
    27     8    10    1
