@<TRIPOS>MOLECULE
mol_data/opt/b3lyp/geoms/mol2/12lf12lf.out
 26 27 0 0 0
SMALL
GASTEIGER

@<TRIPOS>ATOM
      1 C           0.3912    1.8275   -0.7721 C.ar    1  LIG1        0.1381
      2 C           1.3474    1.7282    0.2025 C.ar    1  LIG1        0.2002
      3 C           1.5281    3.0540    0.7151 C.ar    1  LIG1        0.2086
      4 C           0.6899    3.8770    0.0085 C.ar    1  LIG1        0.2184
      5 O          -0.0192    3.1224   -0.9066 O.2     1  LIG1       -0.4521
      6 H          -0.0819    1.1071   -1.4182 H       1  LIG1        0.1069
      7 O           2.0314    0.6586    0.6751 O.3     1  LIG1       -0.4888
      8 C           1.6943   -0.5814    0.0693 C.3     1  LIG1        0.0791
      9 H           2.3137   -1.3403    0.5485 H       1  LIG1        0.0660
     10 H           0.6341   -0.8224    0.2240 H       1  LIG1        0.0660
     11 H           1.9035   -0.5658   -1.0089 H       1  LIG1        0.0660
     12 O           2.4003    3.3671    1.7096 O.3     1  LIG1       -0.5007
     13 H           2.2258    4.2815    1.9798 H       1  LIG1        0.2924
     14 C           0.4397    5.2957    0.1114 C.ar    1  LIG1        0.2186
     15 C           1.2121    6.4303   -0.0475 C.ar    1  LIG1        0.2109
     16 C           0.3717    7.5519    0.2704 C.ar    1  LIG1        0.1979
     17 C          -0.8520    7.0404    0.5831 C.ar    1  LIG1        0.1379
     18 O          -0.8344    5.6807    0.4989 O.2     1  LIG1       -0.4521
     19 H          -1.7903    7.4963    0.8590 H       1  LIG1        0.1069
     20 O           2.4911    6.6280   -0.4351 O.3     1  LIG1       -0.4883
     21 C           3.1970    5.5311   -1.0149 C.3     1  LIG1        0.0791
     22 H           4.1236    5.9524   -1.4074 H       1  LIG1        0.0660
     23 H           3.4317    4.7669   -0.2668 H       1  LIG1        0.0660
     24 H           2.6221    5.0771   -1.8294 H       1  LIG1        0.0660
     25 O           0.8210    8.8353    0.2160 O.3     1  LIG1       -0.5012
     26 H           0.0934    9.4319    0.4345 H       1  LIG1        0.2924
@<TRIPOS>BOND
     1    24    21    1
     2     6     1    1
     3    22    21    1
     4    21    20    1
     5    21    23    1
     6    11     8    1
     7     5     1   ar
     8     5     4   ar
     9     1     2   ar
    10    20    15    1
    11    15    14   ar
    12    15    16   ar
    13     4    14    1
    14     4     3   ar
    15     8    10    1
    16     8     9    1
    17     8     7    1
    18    14    18   ar
    19     2     7    1
    20     2     3   ar
    21    25    16    1
    22    25    26    1
    23    16    17   ar
    24    18    17   ar
    25    17    19    1
    26     3    12    1
    27    12    13    1
