@<TRIPOS>MOLECULE
mol_data/opt/b3lyp/geoms/mol2/12lf12lf12lf-12lf.out
 50 53 0 0 0
SMALL
GASTEIGER

@<TRIPOS>ATOM
      1 C           0.0706    1.2151    0.0294 C.ar    1  LIG1        0.1381
      2 C           1.4000    1.3704    0.3145 C.ar    1  LIG1        0.2002
      3 C           1.6282    2.7787    0.4645 C.ar    1  LIG1        0.2086
      4 C           0.4068    3.3868    0.2550 C.ar    1  LIG1        0.2184
      5 O          -0.5494    2.4353   -0.0134 O.2     1  LIG1       -0.4521
      6 H          -0.5546    0.3584   -0.1557 H       1  LIG1        0.1069
      7 O           2.3892    0.4574    0.4567 O.3     1  LIG1       -0.4888
      8 C           1.9832   -0.8944    0.2990 C.3     1  LIG1        0.0791
      9 H           2.8744   -1.5060    0.4432 H       1  LIG1        0.0660
     10 H           1.2253   -1.1698    1.0447 H       1  LIG1        0.0660
     11 H           1.5766   -1.0715   -0.7060 H       1  LIG1        0.0660
     12 O           2.8286    3.3115    0.7682 O.3     1  LIG1       -0.5007
     13 H           2.7415    4.2862    0.7757 H       1  LIG1        0.2924
     14 C           0.0131    4.7624    0.2648 C.ar    1  LIG1        0.2196
     15 C           0.7391    5.9319    0.3582 C.ar    1  LIG1        0.2117
     16 C          -0.1929    7.0117    0.3550 C.ar    1  LIG1        0.2094
     17 C          -1.4444    6.4330    0.2478 C.ar    1  LIG1        0.2195
     18 O          -1.3204    5.0628    0.2120 O.2     1  LIG1       -0.4407
     19 O           2.1051    5.9949    0.4917 O.3     1  LIG1       -0.4883
     20 C           2.7752    6.8016   -0.4970 C.3     1  LIG1        0.0791
     21 H           3.8384    6.7505   -0.2585 H       1  LIG1        0.0660
     22 H           2.5991    6.4029   -1.5022 H       1  LIG1        0.0660
     23 H           2.4273    7.8353   -0.4394 H       1  LIG1        0.0660
     24 O           0.1539    8.3175    0.4313 O.3     1  LIG1       -0.5007
     25 H          -0.6491    8.8701    0.4433 H       1  LIG1        0.2924
     26 C          -2.7250    7.0547    0.1943 C.ar    1  LIG1        0.2197
     27 C          -4.0598    6.7068    0.1434 C.ar    1  LIG1        0.2117
     28 C          -4.8110    7.9245    0.1578 C.ar    1  LIG1        0.2094
     29 C          -3.9128    8.9636    0.2131 C.ar    1  LIG1        0.2194
     30 O          -2.6402    8.4260    0.2218 O.2     1  LIG1       -0.4407
     31 O          -4.7102    5.5078    0.1418 O.3     1  LIG1       -0.4883
     32 C          -4.3137    4.5604   -0.8638 C.3     1  LIG1        0.0791
     33 H          -5.0345    3.7430   -0.8050 H       1  LIG1        0.0660
     34 H          -4.3521    5.0152   -1.8607 H       1  LIG1        0.0660
     35 H          -3.3084    4.1796   -0.6694 H       1  LIG1        0.0660
     36 O          -6.1617    7.9898    0.1214 O.3     1  LIG1       -0.5007
     37 H          -6.4753    7.0713    0.1171 H       1  LIG1        0.2924
     38 C          -3.9718   10.3908    0.2424 C.ar    1  LIG1        0.2186
     39 C          -2.9750   11.3448    0.2454 C.ar    1  LIG1        0.2109
     40 C          -3.6397   12.6149    0.3164 C.ar    1  LIG1        0.1979
     41 C          -4.9791   12.3539    0.3452 C.ar    1  LIG1        0.1379
     42 O          -5.1915   10.9975    0.3109 O.2     1  LIG1       -0.4521
     43 H          -5.8583   12.9755    0.3948 H       1  LIG1        0.1069
     44 O          -1.6295   11.0997    0.2499 O.3     1  LIG1       -0.4883
     45 C          -0.8982   11.7266   -0.8148 C.3     1  LIG1        0.0791
     46 H           0.1385   11.4063   -0.6970 H       1  LIG1        0.0660
     47 H          -1.2754   11.3981   -1.7907 H       1  LIG1        0.0660
     48 H          -0.9601   12.8163   -0.7461 H       1  LIG1        0.0660
     49 O          -2.9687   13.8024    0.3430 O.3     1  LIG1       -0.5012
     50 H          -3.6063   14.5257    0.3996 H       1  LIG1        0.2924
@<TRIPOS>BOND
     1    34    32    1
     2    47    45    1
     3    22    20    1
     4    32    33    1
     5    32    35    1
     6    32    31    1
     7    45    48    1
     8    45    46    1
     9    45    44    1
    10    11     8    1
    11    20    23    1
    12    20    21    1
    13    20    19    1
    14     6     1    1
    15     5     1   ar
    16     5     4   ar
    17     1     2   ar
    18    37    36    1
    19    36    28    1
    20    31    27    1
    21    27    28   ar
    22    27    26   ar
    23    28    29   ar
    24    26    30   ar
    25    26    17    1
    26    18    17   ar
    27    18    14   ar
    28    29    30   ar
    29    29    38    1
    30    38    39   ar
    31    38    42   ar
    32    39    44    1
    33    39    40   ar
    34    17    16   ar
    35     4    14    1
    36     4     3   ar
    37    14    15   ar
    38     8     9    1
    39     8     7    1
    40     8    10    1
    41    42    41   ar
    42     2     7    1
    43     2     3   ar
    44    40    49    1
    45    40    41   ar
    46    49    50    1
    47    41    43    1
    48    16    15   ar
    49    16    24    1
    50    15    19    1
    51    24    25    1
    52     3    12    1
    53    12    13    1
