@<TRIPOS>MOLECULE
mol_data/opt/b3lyp/geoms/mol2/12lf12lf12lf-12lf-.out
 50 53 0 0 0
SMALL
GASTEIGER

@<TRIPOS>ATOM
      1 C           1.7436    1.7995   -0.6270 C.ar    1  LIG1        0.1381
      2 C           0.6309    1.4748    0.1030 C.ar    1  LIG1        0.2002
      3 C          -0.1109    2.6885    0.2711 C.ar    1  LIG1        0.2086
      4 C           0.6071    3.6708   -0.3782 C.ar    1  LIG1        0.2184
      5 O           1.7429    3.1363   -0.9257 O.2     1  LIG1       -0.4521
      6 H           2.5820    1.2331   -0.9947 H       1  LIG1        0.1069
      7 O           0.2187    0.2907    0.6130 O.3     1  LIG1       -0.4888
      8 C           1.0829   -0.8067    0.3523 C.3     1  LIG1        0.0791
      9 H           0.6257   -1.6800    0.8185 H       1  LIG1        0.0660
     10 H           1.1877   -0.9798   -0.7271 H       1  LIG1        0.0660
     11 H           2.0777   -0.6384    0.7861 H       1  LIG1        0.0660
     12 O          -1.2779    2.7797    0.9545 O.3     1  LIG1       -0.5007
     13 H          -1.5173    3.7175    1.0145 H       1  LIG1        0.2924
     14 C           0.3204    5.0622   -0.5214 C.ar    1  LIG1        0.2196
     15 C           0.9664    6.1650   -1.0403 C.ar    1  LIG1        0.2117
     16 C           0.0894    7.2813   -0.8433 C.ar    1  LIG1        0.2094
     17 C          -1.0387    6.8010   -0.2138 C.ar    1  LIG1        0.2195
     18 O          -0.9109    5.4405   -0.0246 O.2     1  LIG1       -0.4407
     19 O           2.1668    6.1438   -1.6725 O.3     1  LIG1       -0.4883
     20 C           3.1435    7.0631   -1.1641 C.3     1  LIG1        0.0791
     21 H           3.3718    6.8459   -0.1137 H       1  LIG1        0.0660
     22 H           4.0388    6.9124   -1.7691 H       1  LIG1        0.0660
     23 H           2.8030    8.0982   -1.2582 H       1  LIG1        0.0660
     24 O           0.3662    8.5509   -1.2222 O.3     1  LIG1       -0.5007
     25 H          -0.3669    9.1238   -0.9428 H       1  LIG1        0.2924
     26 C          -2.2268    7.4553    0.2096 C.ar    1  LIG1        0.2197
     27 C          -3.4133    7.0764    0.7984 C.ar    1  LIG1        0.2117
     28 C          -4.1744    8.2659    1.0023 C.ar    1  LIG1        0.2094
     29 C          -3.4407    9.3213    0.5127 C.ar    1  LIG1        0.2194
     30 O          -2.2453    8.8143    0.0178 O.2     1  LIG1       -0.4407
     31 O          -3.8506    5.8465    1.2119 O.3     1  LIG1       -0.4883
     32 C          -4.2338    4.9508    0.1513 C.3     1  LIG1        0.0791
     33 H          -4.6583    4.0697    0.6357 H       1  LIG1        0.0660
     34 H          -4.9824    5.4133   -0.5019 H       1  LIG1        0.0660
     35 H          -3.3638    4.6560   -0.4430 H       1  LIG1        0.0660
     36 O          -5.3978    8.3096    1.5865 O.3     1  LIG1       -0.5007
     37 H          -5.5768    7.4152    1.9171 H       1  LIG1        0.2924
     38 C          -3.6199   10.7398    0.4259 C.ar    1  LIG1        0.2186
     39 C          -4.6893   11.5982    0.5754 C.ar    1  LIG1        0.2109
     40 C          -4.1815   12.9259    0.4057 C.ar    1  LIG1        0.1979
     41 C          -2.8493   12.8110    0.1479 C.ar    1  LIG1        0.1379
     42 O          -2.4990   11.4801    0.1531 O.2     1  LIG1       -0.4521
     43 H          -2.0631   13.5167   -0.0583 H       1  LIG1        0.1069
     44 O          -6.0077   11.3797    0.8637 O.3     1  LIG1       -0.4883
     45 C          -6.7570   10.6905   -0.1492 C.3     1  LIG1        0.0791
     46 H          -7.8018   10.7358    0.1642 H       1  LIG1        0.0660
     47 H          -6.6413   11.1805   -1.1231 H       1  LIG1        0.0660
     48 H          -6.4495    9.6442   -0.2189 H       1  LIG1        0.0660
     49 O          -4.9311   14.0538    0.4860 O.3     1  LIG1       -0.5012
     50 H          -5.8204   13.7689    0.7483 H       1  LIG1        0.2924
@<TRIPOS>BOND
     1    22    20    1
     2    19    20    1
     3    19    15    1
     4    23    20    1
     5    24    25    1
     6    24    16    1
     7    20    21    1
     8    47    45    1
     9    15    16   ar
    10    15    14   ar
    11     6     1    1
    12     5     1   ar
    13     5     4   ar
    14    16    17   ar
    15    10     8    1
    16     1     2   ar
    17    14     4    1
    18    14    18   ar
    19    34    32    1
    20    35    32    1
    21     4     3   ar
    22    48    45    1
    23    17    18   ar
    24    17    26    1
    25    45    46    1
    26    45    44    1
    27    43    41    1
    28    30    26   ar
    29    30    29   ar
    30     2     3   ar
    31     2     7    1
    32    41    42   ar
    33    41    40   ar
    34    32    33    1
    35    32    31    1
    36    42    38   ar
    37    26    27   ar
    38     3    12    1
    39     8     7    1
    40     8    11    1
    41     8     9    1
    42    40    49    1
    43    40    39   ar
    44    38    29    1
    45    38    39   ar
    46    49    50    1
    47    29    28   ar
    48    39    44    1
    49    27    28   ar
    50    27    31    1
    51    12    13    1
    52    28    36    1
    53    36    37    1
