@<TRIPOS>MOLECULE
mol_data/opt/b3lyp/geoms/mol2/12lf12lf12lf12lf-.out
 50 53 0 0 0
SMALL
GASTEIGER

@<TRIPOS>ATOM
      1 C          -0.3391    1.8440    0.0038 C.ar    1  LIG1        0.1381
      2 C           0.9866    1.5293    0.0043 C.ar    1  LIG1        0.2002
      3 C           1.7031    2.7705    0.0034 C.ar    1  LIG1        0.2086
      4 C           0.7606    3.7857    0.0024 C.ar    1  LIG1        0.2184
      5 O          -0.4902    3.1975    0.0026 O.2     1  LIG1       -0.4521
      6 H          -1.2441    1.2611    0.0042 H       1  LIG1        0.1069
      7 O           1.6262    0.3352    0.0055 O.3     1  LIG1       -0.4888
      8 C           0.7700   -0.7968    0.0063 C.3     1  LIG1        0.0791
      9 H           1.4149   -1.6762    0.0072 H       1  LIG1        0.0660
     10 H           0.1318   -0.8105    0.9005 H       1  LIG1        0.0660
     11 H           0.1321   -0.8121   -0.8880 H       1  LIG1        0.0660
     12 O           3.0610    2.7471    0.0038 O.3     1  LIG1       -0.5007
     13 H           3.4031    3.6443    0.0034 H       1  LIG1        0.2924
     14 C           0.6886    5.2413    0.0013 C.ar    1  LIG1        0.2196
     15 C           1.4833    6.3803    0.0007 C.ar    1  LIG1        0.2117
     16 C           0.6052    7.5105   -0.0002 C.ar    1  LIG1        0.2094
     17 C          -0.6912    7.0412   -0.0003 C.ar    1  LIG1        0.2195
     18 O          -0.6204    5.6677    0.0006 O.2     1  LIG1       -0.4407
     19 O           2.8087    6.6950    0.0009 O.3     1  LIG1       -0.4883
     20 C           3.8170    5.7211    0.0014 C.3     1  LIG1        0.0791
     21 H           4.7662    6.2599    0.0009 H       1  LIG1        0.0660
     22 H           3.7855    5.1027    0.9123 H       1  LIG1        0.0660
     23 H           3.7852    5.1013   -0.9084 H       1  LIG1        0.0660
     24 O           1.1533    8.7521   -0.0008 O.3     1  LIG1       -0.5007
     25 H           0.4559    9.4121   -0.0015 H       1  LIG1        0.2924
     26 C          -2.0583    7.5356   -0.0008 C.ar    1  LIG1        0.2197
     27 C          -2.8014    8.7195   -0.0010 C.ar    1  LIG1        0.2117
     28 C          -4.1802    8.3470   -0.0016 C.ar    1  LIG1        0.2094
     29 C          -4.2280    6.9768   -0.0019 C.ar    1  LIG1        0.2194
     30 O          -2.9582    6.4832   -0.0015 O.2     1  LIG1       -0.4407
     31 O          -2.5703   10.0620   -0.0005 O.3     1  LIG1       -0.4883
     32 C          -1.2816   10.6143   -0.0004 C.3     1  LIG1        0.0791
     33 H          -1.4113   11.6981    0.0001 H       1  LIG1        0.0660
     34 H          -0.7231   10.3455    0.9099 H       1  LIG1        0.0660
     35 H          -0.7234   10.3465   -0.9112 H       1  LIG1        0.0660
     36 O          -5.1894    9.2511   -0.0018 O.3     1  LIG1       -0.5007
     37 H          -6.0231    8.7565   -0.0023 H       1  LIG1        0.2924
     38 C          -5.3541    6.0965   -0.0027 C.ar    1  LIG1        0.2186
     39 C          -5.5317    4.7305   -0.0036 C.ar    1  LIG1        0.2109
     40 C          -6.9595    4.5096   -0.0042 C.ar    1  LIG1        0.1979
     41 C          -7.5453    5.7410   -0.0037 C.ar    1  LIG1        0.1379
     42 O          -6.5820    6.7178   -0.0028 O.2     1  LIG1       -0.4521
     43 H          -8.5733    6.0600   -0.0038 H       1  LIG1        0.1069
     44 O          -4.4748    3.8705   -0.0039 O.3     1  LIG1       -0.4883
     45 C          -4.7229    2.4797   -0.0059 C.3     1  LIG1        0.0791
     46 H          -3.7431    2.0007   -0.0065 H       1  LIG1        0.0660
     47 H          -5.2607    2.1539    0.8972 H       1  LIG1        0.0660
     48 H          -5.2605    2.1565   -0.9100 H       1  LIG1        0.0660
     49 O          -7.6795    3.3480   -0.0051 O.3     1  LIG1       -0.5012
     50 H          -7.0837    2.5929   -0.0052 H       1  LIG1        0.2924
@<TRIPOS>BOND
     1    35    32    1
     2    48    45    1
     3    23    20    1
     4    11     8    1
     5    46    45    1
     6    45    44    1
     7    45    47    1
     8    50    49    1
     9    49    40    1
    10    40    41   ar
    11    40    39   ar
    12    44    39    1
    13    43    41    1
    14    41    42   ar
    15    39    38   ar
    16    42    38   ar
    17    38    29    1
    18    37    36    1
    19    29    28   ar
    20    29    30   ar
    21    36    28    1
    22    28    27   ar
    23    25    24    1
    24    30    26   ar
    25    27    26   ar
    26    27    31    1
    27    24    16    1
    28    26    17    1
    29    31    32    1
    30    32    33    1
    31    32    34    1
    32    17    16   ar
    33    17    18   ar
    34    16    15   ar
    35    18    14   ar
    36    15    19    1
    37    15    14   ar
    38    19    20    1
    39    21    20    1
    40    14     4    1
    41    20    22    1
    42     4     5   ar
    43     4     3   ar
    44     5     1   ar
    45    13    12    1
    46     3    12    1
    47     3     2   ar
    48     1     6    1
    49     1     2   ar
    50     2     7    1
    51     7     8    1
    52     8     9    1
    53     8    10    1
