@<TRIPOS>MOLECULE
mol_data/opt/b3lyp/geoms/mol2/12lf12lf12lf.out
 38 40 0 0 0
SMALL
GASTEIGER

@<TRIPOS>ATOM
      1 C           0.1323    1.2056   -0.3265 C.ar    1  LIG1        0.1381
      2 C           1.4666    1.2123   -0.0224 C.ar    1  LIG1        0.2002
      3 C           1.8209    2.5760    0.2450 C.ar    1  LIG1        0.2086
      4 C           0.6626    3.3097    0.0796 C.ar    1  LIG1        0.2184
      5 O          -0.3717    2.4756   -0.2714 O.2     1  LIG1       -0.4521
      6 H          -0.5664    0.4287   -0.5865 H       1  LIG1        0.1069
      7 O           2.3655    0.2014    0.0485 O.3     1  LIG1       -0.4888
      8 C           1.8369   -1.0875   -0.2253 C.3     1  LIG1        0.0791
      9 H           2.6643   -1.7911   -0.1268 H       1  LIG1        0.0660
     10 H           1.0450   -1.3511    0.4888 H       1  LIG1        0.0660
     11 H           1.4303   -1.1414   -1.2445 H       1  LIG1        0.0660
     12 O           3.0614    2.9682    0.5984 O.3     1  LIG1       -0.5007
     13 H           3.0630    3.9431    0.6866 H       1  LIG1        0.2924
     14 C           0.3981    4.7119    0.2061 C.ar    1  LIG1        0.2196
     15 C           1.2363    5.7889    0.4090 C.ar    1  LIG1        0.2117
     16 C           0.4153    6.9504    0.5076 C.ar    1  LIG1        0.2094
     17 C          -0.8853    6.5138    0.3425 C.ar    1  LIG1        0.2194
     18 O          -0.8937    5.1458    0.1696 O.2     1  LIG1       -0.4407
     19 O           2.6018    5.7108    0.5550 O.3     1  LIG1       -0.4883
     20 C           3.3548    6.5178   -0.3711 C.3     1  LIG1        0.0791
     21 H           4.4064    6.3484   -0.1351 H       1  LIG1        0.0660
     22 H           3.1507    6.2113   -1.4031 H       1  LIG1        0.0660
     23 H           3.1068    7.5734   -0.2392 H       1  LIG1        0.0660
     24 O           0.8911    8.1971    0.7226 O.3     1  LIG1       -0.5007
     25 H           0.1444    8.8301    0.6671 H       1  LIG1        0.2924
     26 C          -2.1312    7.2193    0.3284 C.ar    1  LIG1        0.2186
     27 C          -2.4140    8.5675    0.3167 C.ar    1  LIG1        0.2109
     28 C          -3.8389    8.6926    0.3738 C.ar    1  LIG1        0.1979
     29 C          -4.3342    7.4210    0.4045 C.ar    1  LIG1        0.1379
     30 O          -3.2978    6.5172    0.3903 O.2     1  LIG1       -0.4521
     31 H          -5.3295    7.0086    0.4343 H       1  LIG1        0.1069
     32 O          -1.4775    9.5774    0.3098 O.3     1  LIG1       -0.4883
     33 C          -1.5579   10.4624   -0.8246 C.3     1  LIG1        0.0791
     34 H          -0.7582   11.1938   -0.6981 H       1  LIG1        0.0660
     35 H          -1.4132    9.9071   -1.7578 H       1  LIG1        0.0660
     36 H          -2.5260   10.9690   -0.8397 H       1  LIG1        0.0660
     37 O          -4.4761    9.8983    0.3746 O.3     1  LIG1       -0.5012
     38 H          -5.4305    9.7532    0.4096 H       1  LIG1        0.2924
@<TRIPOS>BOND
     1    35    33    1
     2    22    20    1
     3    11     8    1
     4    36    33    1
     5    33    34    1
     6    33    32    1
     7     6     1    1
     8    20    23    1
     9    20    21    1
    10    20    19    1
    11     1     5   ar
    12     1     2   ar
    13     5     4   ar
    14     8     9    1
    15     8     7    1
    16     8    10    1
    17     2     7    1
    18     2     3   ar
    19     4    14    1
    20     4     3   ar
    21    18    14   ar
    22    18    17   ar
    23    14    15   ar
    24     3    12    1
    25    32    27    1
    26    27    26   ar
    27    27    28   ar
    28    26    17    1
    29    26    30   ar
    30    17    16   ar
    31    28    37    1
    32    28    29   ar
    33    37    38    1
    34    30    29   ar
    35    29    31    1
    36    15    16   ar
    37    15    19    1
    38    16    24    1
    39    12    13    1
    40    25    24    1
