@<TRIPOS>MOLECULE
mol_data/opt/b3lyp/geoms/mol2/12lf12lf-12lf.out
 38 40 0 0 0
SMALL
GASTEIGER

@<TRIPOS>ATOM
      1 C          -0.1464    1.7571   -0.0006 C.ar    1  LIG1        0.1381
      2 C           1.2216    1.7101   -0.0002 C.ar    1  LIG1        0.2002
      3 C           1.6730    3.0688   -0.0002 C.ar    1  LIG1        0.2086
      4 C           0.5427    3.8559   -0.0004 C.ar    1  LIG1        0.2184
      5 O          -0.5741    3.0593   -0.0005 O.2     1  LIG1       -0.4521
      6 H          -0.9169    1.0055   -0.0008 H       1  LIG1        0.1069
      7 O           2.0747    0.6585   -0.0000 O.3     1  LIG1       -0.4888
      8 C           1.4504   -0.6173   -0.0001 C.3     1  LIG1        0.0791
      9 H           2.2522   -1.3564    0.0000 H       1  LIG1        0.0660
     10 H           0.8269   -0.7529    0.8939 H       1  LIG1        0.0660
     11 H           0.8273   -0.7529   -0.8944 H       1  LIG1        0.0660
     12 O           2.9787    3.4380   -0.0000 O.3     1  LIG1       -0.5007
     13 H           3.0033    4.4049   -0.0000 H       1  LIG1        0.2924
     14 C           0.3845    5.2772   -0.0004 C.ar    1  LIG1        0.2196
     15 C          -0.7050    6.1174   -0.0004 C.ar    1  LIG1        0.2117
     16 C          -0.1904    7.4584   -0.0004 C.ar    1  LIG1        0.2094
     17 C           1.1895    7.3647   -0.0003 C.ar    1  LIG1        0.2194
     18 O           1.5400    6.0311   -0.0004 O.2     1  LIG1       -0.4407
     19 O          -1.9797    5.6295   -0.0004 O.3     1  LIG1       -0.4883
     20 C          -3.0724    6.5285    0.0009 C.3     1  LIG1        0.0791
     21 H          -3.9713    5.9101    0.0014 H       1  LIG1        0.0660
     22 H          -3.0925    7.1549    0.9049 H       1  LIG1        0.0660
     23 H          -3.0941    7.1557   -0.9026 H       1  LIG1        0.0660
     24 O          -0.8688    8.6417   -0.0005 O.3     1  LIG1       -0.5007
     25 H          -1.8148    8.4674   -0.0010 H       1  LIG1        0.2924
     26 C           2.1940    8.4004   -0.0003 C.ar    1  LIG1        0.2186
     27 C           3.5775    8.5457   -0.0002 C.ar    1  LIG1        0.2109
     28 C           3.8376    9.9588   -0.0005 C.ar    1  LIG1        0.1979
     29 C           2.6326   10.5874   -0.0008 C.ar    1  LIG1        0.1379
     30 O           1.6322    9.6613   -0.0007 O.2     1  LIG1       -0.4521
     31 H           2.3309   11.6225   -0.0012 H       1  LIG1        0.1069
     32 O           4.6572    7.7262    0.0003 O.3     1  LIG1       -0.4883
     33 C           4.5083    6.3204    0.0009 C.3     1  LIG1        0.0791
     34 H           5.5201    5.9124    0.0013 H       1  LIG1        0.0660
     35 H           3.9835    5.9753    0.9002 H       1  LIG1        0.0660
     36 H           3.9839    5.9745   -0.8983 H       1  LIG1        0.0660
     37 O           5.1062   10.4512   -0.0004 O.3     1  LIG1       -0.5012
     38 H           5.0650   11.4160   -0.0007 H       1  LIG1        0.2924
@<TRIPOS>BOND
     1    23    20    1
     2    36    33    1
     3    11     8    1
     4    31    29    1
     5    25    24    1
     6    29    30   ar
     7    29    28   ar
     8     6     1    1
     9    30    26   ar
    10    38    37    1
    11     1     5   ar
    12     1     2   ar
    13     5     4   ar
    14    28    37    1
    15    28    27   ar
    16    24    16    1
    17    16    15   ar
    18    16    17   ar
    19    19    15    1
    20    19    20    1
    21    18    14   ar
    22    18    17   ar
    23    15    14   ar
    24    14     4    1
    25     4     3   ar
    26    26    17    1
    27    26    27   ar
    28     2     3   ar
    29     2     7    1
    30     3    12    1
    31    27    32    1
    32     8     7    1
    33     8     9    1
    34     8    10    1
    35    12    13    1
    36    32    33    1
    37    33    34    1
    38    33    35    1
    39    20    21    1
    40    20    22    1
