@<TRIPOS>MOLECULE
mol_data/opt/b3lyp/geoms/mol2/12lf12lf-12lf-12lf-.out
 50 53 0 0 0
SMALL
GASTEIGER

@<TRIPOS>ATOM
      1 C           0.1203    1.8172   -0.0001 C.ar    1  LIG1        0.1381
      2 C           1.4868    1.9024   -0.0001 C.ar    1  LIG1        0.2002
      3 C           1.8104    3.2986   -0.0000 C.ar    1  LIG1        0.2086
      4 C           0.6044    3.9689   -0.0001 C.ar    1  LIG1        0.2184
      5 O          -0.4324    3.0716   -0.0001 O.2     1  LIG1       -0.4521
      6 H          -0.5731    0.9939   -0.0001 H       1  LIG1        0.1069
      7 O           2.4347    0.9345   -0.0001 O.3     1  LIG1       -0.4888
      8 C           1.9324   -0.3931   -0.0001 C.3     1  LIG1        0.0791
      9 H           2.7996   -1.0543   -0.0001 H       1  LIG1        0.0660
     10 H           1.3241   -0.5873    0.8938 H       1  LIG1        0.0660
     11 H           1.3242   -0.5872   -0.8941 H       1  LIG1        0.0660
     12 O           3.0749    3.7795   -0.0000 O.3     1  LIG1       -0.5007
     13 H           3.0397    4.7496   -0.0000 H       1  LIG1        0.2924
     14 C           0.3457    5.3724   -0.0000 C.ar    1  LIG1        0.2196
     15 C          -0.7716    6.1800    0.0000 C.ar    1  LIG1        0.2117
     16 C          -0.2973    7.5372    0.0000 C.ar    1  LIG1        0.2094
     17 C           1.0844    7.4810   -0.0000 C.ar    1  LIG1        0.2195
     18 O           1.4686    6.1578   -0.0000 O.2     1  LIG1       -0.4407
     19 O          -2.0321    5.6518    0.0000 O.3     1  LIG1       -0.4883
     20 C          -3.1471    6.5206   -0.0001 C.3     1  LIG1        0.0791
     21 H          -4.0304    5.8800   -0.0002 H       1  LIG1        0.0660
     22 H          -3.1847    7.1478    0.9033 H       1  LIG1        0.0660
     23 H          -3.1845    7.1477   -0.9036 H       1  LIG1        0.0660
     24 O          -1.0009    8.7070    0.0001 O.3     1  LIG1       -0.5007
     25 H          -1.9434    8.5147    0.0001 H       1  LIG1        0.2924
     26 C           2.1632    8.4212   -0.0000 C.ar    1  LIG1        0.2197
     27 C           2.2752    9.8000   -0.0000 C.ar    1  LIG1        0.2117
     28 C           3.6789   10.0974   -0.0000 C.ar    1  LIG1        0.2094
     29 C           4.3419    8.8843   -0.0000 C.ar    1  LIG1        0.2194
     30 O           3.4165    7.8723    0.0000 O.2     1  LIG1       -0.4407
     31 O           1.1784   10.6127   -0.0000 O.3     1  LIG1       -0.4883
     32 C           1.3475   12.0152   -0.0004 C.3     1  LIG1        0.0791
     33 H           0.3426   12.4406   -0.0005 H       1  LIG1        0.0660
     34 H           1.8651   12.3717    0.9030 H       1  LIG1        0.0660
     35 H           1.8652   12.3713   -0.9038 H       1  LIG1        0.0660
     36 O           4.3141   11.3069   -0.0000 O.3     1  LIG1       -0.5007
     37 H           3.6604   12.0120    0.0000 H       1  LIG1        0.2924
     38 C           5.7145    8.4615    0.0000 C.ar    1  LIG1        0.2186
     39 C           6.9396    9.1052   -0.0000 C.ar    1  LIG1        0.2109
     40 C           7.9398    8.0669    0.0000 C.ar    1  LIG1        0.1979
     41 C           7.2616    6.8828    0.0001 C.ar    1  LIG1        0.1379
     42 O           5.9180    7.1071    0.0001 O.2     1  LIG1       -0.4521
     43 H           7.5903    5.8574    0.0002 H       1  LIG1        0.1069
     44 O           7.0520   10.4656   -0.0001 O.3     1  LIG1       -0.4883
     45 C           8.3382   11.0486   -0.0004 C.3     1  LIG1        0.0791
     46 H           8.1820   12.1287   -0.0005 H       1  LIG1        0.0660
     47 H           8.9116   10.7897    0.9026 H       1  LIG1        0.0660
     48 H           8.9113   10.7893   -0.9035 H       1  LIG1        0.0660
     49 O           9.3071    8.1396    0.0000 O.3     1  LIG1       -0.5012
     50 H           9.5857    9.0598    0.0000 H       1  LIG1        0.2924
@<TRIPOS>BOND
     1    35    32    1
     2    23    20    1
     3    48    45    1
     4    11     8    1
     5    46    45    1
     6    33    32    1
     7    45    44    1
     8    45    47    1
     9    32    31    1
    10    32    34    1
    11    21    20    1
    12     9     8    1
    13     8     7    1
    14     8    10    1
    15    20    19    1
    16    20    22    1
    17     6     1    1
    18     5     1   ar
    19     5     4   ar
    20    44    39    1
    21     1     2   ar
    22     2     7    1
    23     2     3   ar
    24     4     3   ar
    25     4    14    1
    26    31    27    1
    27    18    14   ar
    28    18    17   ar
    29     3    12    1
    30    14    15   ar
    31    27    28   ar
    32    27    26   ar
    33    39    38   ar
    34    39    40   ar
    35    36    28    1
    36    36    37    1
    37    28    29   ar
    38    17    26    1
    39    17    16   ar
    40    12    13    1
    41    26    30   ar
    42    29    30   ar
    43    29    38    1
    44    50    49    1
    45    49    40    1
    46    15    16   ar
    47    15    19    1
    48    38    42   ar
    49    16    24    1
    50    40    41   ar
    51    24    25    1
    52    42    41   ar
    53    41    43    1
