@<TRIPOS>MOLECULE
mol_data/opt/b3lyp/geoms/mol2/12lf12lf-12lf-12lf.out
 50 53 0 0 0
SMALL
GASTEIGER

@<TRIPOS>ATOM
      1 C          -0.1250    1.8230   -0.0001 C.ar    1  LIG1        0.1381
      2 C           1.2446    1.8395   -0.0002 C.ar    1  LIG1        0.2002
      3 C           1.6320    3.2177   -0.0002 C.ar    1  LIG1        0.2086
      4 C           0.4644    3.9486   -0.0001 C.ar    1  LIG1        0.2184
      5 O          -0.6150    3.1041   -0.0000 O.2     1  LIG1       -0.4521
      6 H          -0.8590    1.0356   -0.0001 H       1  LIG1        0.1069
      7 O           2.1440    0.8271   -0.0003 O.3     1  LIG1       -0.4888
      8 C           1.5782   -0.4755   -0.0003 C.3     1  LIG1        0.0791
      9 H           2.4128   -1.1774   -0.0004 H       1  LIG1        0.0660
     10 H           0.9617   -0.6393    0.8938 H       1  LIG1        0.0660
     11 H           0.9615   -0.6392   -0.8944 H       1  LIG1        0.0660
     12 O           2.9126    3.6622   -0.0003 O.3     1  LIG1       -0.5007
     13 H           2.8792    4.6316   -0.0004 H       1  LIG1        0.2924
     14 C           0.2752    5.3636   -0.0000 C.ar    1  LIG1        0.2196
     15 C          -0.8151    6.2041    0.0001 C.ar    1  LIG1        0.2117
     16 C          -0.3026    7.5453    0.0001 C.ar    1  LIG1        0.2094
     17 C           1.0791    7.4530   -0.0000 C.ar    1  LIG1        0.2195
     18 O           1.4268    6.1164   -0.0001 O.2     1  LIG1       -0.4407
     19 O          -2.0887    5.7111    0.0002 O.3     1  LIG1       -0.4883
     20 C          -3.1844    6.6051    0.0000 C.3     1  LIG1        0.0791
     21 H          -4.0813    5.9836   -0.0000 H       1  LIG1        0.0660
     22 H          -3.2084    7.2323    0.9037 H       1  LIG1        0.0660
     23 H          -3.2082    7.2322   -0.9037 H       1  LIG1        0.0660
     24 O          -0.9839    8.7275    0.0002 O.3     1  LIG1       -0.5007
     25 H          -1.9295    8.5514    0.0004 H       1  LIG1        0.2924
     26 C           2.1614    8.3919   -0.0001 C.ar    1  LIG1        0.2197
     27 C           2.2410    9.7726   -0.0001 C.ar    1  LIG1        0.2117
     28 C           3.6340   10.1067   -0.0001 C.ar    1  LIG1        0.2094
     29 C           4.3329    8.9128   -0.0001 C.ar    1  LIG1        0.2194
     30 O           3.4370    7.8741   -0.0001 O.2     1  LIG1       -0.4407
     31 O           1.1291   10.5608   -0.0001 O.3     1  LIG1       -0.4883
     32 C           1.2604   11.9682   -0.0005 C.3     1  LIG1        0.0791
     33 H           0.2437   12.3644   -0.0007 H       1  LIG1        0.0660
     34 H           1.7671   12.3385    0.9030 H       1  LIG1        0.0660
     35 H           1.7672   12.3379   -0.9043 H       1  LIG1        0.0660
     36 O           4.2312   11.3348   -0.0001 O.3     1  LIG1       -0.5007
     37 H           3.5559   12.0192   -0.0000 H       1  LIG1        0.2924
     38 C           5.7541    8.6688   -0.0002 C.ar    1  LIG1        0.2186
     39 C           6.6474    7.6022    0.0001 C.ar    1  LIG1        0.2109
     40 C           7.9639    8.1779   -0.0002 C.ar    1  LIG1        0.1979
     41 C           7.8105    9.5288   -0.0006 C.ar    1  LIG1        0.1379
     42 O           6.4840    9.8415   -0.0006 O.2     1  LIG1       -0.4521
     43 H           8.5008   10.3572   -0.0009 H       1  LIG1        0.1069
     44 O           6.5634    6.2534    0.0005 O.3     1  LIG1       -0.4883
     45 C           5.3010    5.6050    0.0007 C.3     1  LIG1        0.0791
     46 H           5.5139    4.5360    0.0011 H       1  LIG1        0.0660
     47 H           4.7211    5.8632    0.8933 H       1  LIG1        0.0660
     48 H           4.7211    5.8626   -0.8920 H       1  LIG1        0.0660
     49 O           9.0834    7.4037   -0.0000 O.3     1  LIG1       -0.5012
     50 H           9.8587    7.9794   -0.0003 H       1  LIG1        0.2924
@<TRIPOS>BOND
     1    35    32    1
     2    23    20    1
     3    11     8    1
     4    48    45    1
     5    43    41    1
     6    33    32    1
     7    41    42   ar
     8    41    40   ar
     9    42    38   ar
    10    32    31    1
    11    32    34    1
    12     9     8    1
    13    13    12    1
    14    12     3    1
    15     8     7    1
    16     8    10    1
    17     7     2    1
    18    50    49    1
    19     2     3   ar
    20     2     1   ar
    21     3     4   ar
    22    40    49    1
    23    40    39   ar
    24    38    29    1
    25    38    39   ar
    26    36    28    1
    27    36    37    1
    28    28    29   ar
    29    28    27   ar
    30    29    30   ar
    31     1     6    1
    32     1     5   ar
    33     4    14    1
    34     4     5   ar
    35    18    14   ar
    36    18    17   ar
    37    27    31    1
    38    27    26   ar
    39    30    26   ar
    40    26    17    1
    41    14    15   ar
    42    21    20    1
    43    17    16   ar
    44    20    19    1
    45    20    22    1
    46    39    44    1
    47    15    16   ar
    48    15    19    1
    49    16    24    1
    50    24    25    1
    51    44    45    1
    52    45    46    1
    53    45    47    1
