@<TRIPOS>MOLECULE
mol_data/opt/b3lyp/geoms/mol2/12lh13dl-4ld12fh-12ll-12ff-6ia13fa.out
 98 105 0 0 0
SMALL
GASTEIGER

@<TRIPOS>ATOM
      1 C           1.7181    3.6659    4.0778 C.ar    1  LIG1        0.1361
      2 C           3.0689    3.6399    3.8971 C.ar    1  LIG1        0.1789
      3 C           3.3899    4.5459    2.8248 C.ar    1  LIG1        0.1148
      4 C           2.1753    5.0608    2.4068 C.ar    1  LIG1        0.1765
      5 O           1.1518    4.5251    3.1803 O.2     1  LIG1       -0.4558
      6 H           1.0452    3.1564    4.7467 H       1  LIG1        0.1068
      7 O           4.0508    2.9466    4.5265 O.3     1  LIG1       -0.4901
      8 C           3.6122    2.0843    5.5691 C.3     1  LIG1        0.0790
      9 H           4.5036    1.6038    5.9731 H       1  LIG1        0.0660
     10 H           3.1102    2.6531    6.3624 H       1  LIG1        0.0660
     11 H           2.9252    1.3198    5.1836 H       1  LIG1        0.0660
     12 N           4.6874    4.8305    2.4638 N.pl3   1  LIG1       -0.3521
     13 H           5.3549    4.1365    2.7703 H       1  LIG1        0.1425
     14 H           4.8576    5.1731    1.5269 H       1  LIG1        0.1425
     15 C           1.7370    6.0247    1.4391 C.ar    1  LIG1        0.1057
     16 C           2.3537    6.6349    0.3309 C.ar    1  LIG1        0.1222
     17 C           1.4040    7.5575   -0.2329 C.ar    1  LIG1        0.1634
     18 C           0.2401    7.4910    0.5176 C.ar    1  LIG1        0.0941
     19 N           0.4781    6.5478    1.5142 N.ar    1  LIG1       -0.3476
     20 H          -0.1556    6.3357    2.2694 H       1  LIG1        0.1661
     21 N           4.7075    6.0948   -0.5709 N.1     1  LIG1       -0.1907
     22 C           3.6425    6.3534   -0.1669 C.1     1  LIG1        0.1051
     23 O           1.6095    8.3632   -1.3054 O.3     1  LIG1       -0.4917
     24 C           1.7674    7.6954   -2.5636 C.3     1  LIG1        0.0789
     25 H           1.8703    8.4837   -3.3108 H       1  LIG1        0.0660
     26 H           2.6621    7.0639   -2.5779 H       1  LIG1        0.0660
     27 H           0.8857    7.0855   -2.7936 H       1  LIG1        0.0660
     28 C          -1.2854    9.4725    0.0311 C.ar    1  LIG1        0.1300
     29 C          -2.5698    9.9811   -0.1110 C.ar    1  LIG1       -0.0073
     30 C          -1.0782    8.1132    0.3832 C.ar    1  LIG1        0.0448
     31 C          -3.7249    9.2055    0.1135 C.ar    1  LIG1        0.0418
     32 H          -2.6659   11.0210   -0.3976 H       1  LIG1        0.0662
     33 C          -2.2242    7.3445    0.6207 C.ar    1  LIG1       -0.0309
     34 C          -3.5271    7.8538    0.5106 C.ar    1  LIG1        0.0634
     35 H          -2.1139    6.2950    0.8745 H       1  LIG1        0.0638
     36 O          -0.2491   10.3284   -0.2316 O.3     1  LIG1       -0.4944
     37 C           0.5198   10.7524    0.8963 C.3     1  LIG1        0.0788
     38 H           1.3010   11.4033    0.5014 H       1  LIG1        0.0660
     39 H          -0.1045   11.3151    1.6023 H       1  LIG1        0.0660
     40 H           0.9859    9.9084    1.4147 H       1  LIG1        0.0660
     41 N          -5.3653    6.1358    1.1404 N.1     1  LIG1       -0.1908
     42 C          -4.5864    6.9446    0.8327 C.1     1  LIG1        0.0999
     43 C          -5.0161    9.8235   -0.0494 C.ar    1  LIG1        0.1803
     44 C          -5.4171   11.1340   -0.2289 C.ar    1  LIG1        0.1846
     45 C          -6.8344   11.1551   -0.3175 C.ar    1  LIG1        0.1170
     46 C          -7.2445    9.8431   -0.1714 C.ar    1  LIG1        0.1986
     47 O          -6.1532    9.0420   -0.0093 O.2     1  LIG1       -0.4458
     48 O          -4.6511   12.2465   -0.2967 O.3     1  LIG1       -0.5020
     49 H          -5.2793   12.9911   -0.2604 H       1  LIG1        0.2924
     50 N          -7.5356   12.3768   -0.4780 N.pl3   1  LIG1       -0.3521
     51 H          -7.6988   12.5856   -1.4616 H       1  LIG1        0.1425
     52 H          -8.4422   12.3287   -0.0191 H       1  LIG1        0.1425
     53 C          -8.5340    9.2198   -0.1316 C.ar    1  LIG1        0.2178
     54 C          -9.8184    9.7023    0.0273 C.ar    1  LIG1        0.2118
     55 C         -10.6902    8.5698    0.0248 C.ar    1  LIG1        0.2119
     56 C          -9.8879    7.4572   -0.1300 C.ar    1  LIG1        0.2197
     57 O          -8.5811    7.8532   -0.2222 O.2     1  LIG1       -0.4408
     58 O         -10.1755   11.0126    0.2061 O.3     1  LIG1       -0.4883
     59 C         -11.1188   11.5048   -0.7646 C.3     1  LIG1        0.0791
     60 H         -11.3915   12.5108   -0.4410 H       1  LIG1        0.0660
     61 H         -10.6579   11.5471   -1.7589 H       1  LIG1        0.0660
     62 H         -12.0067   10.8697   -0.8032 H       1  LIG1        0.0660
     63 O         -12.0524    8.5953    0.0861 O.3     1  LIG1       -0.4883
     64 C         -12.5809    8.8262    1.4032 C.3     1  LIG1        0.0791
     65 H         -13.6650    8.8804    1.2885 H       1  LIG1        0.0660
     66 H         -12.3245    7.9955    2.0664 H       1  LIG1        0.0660
     67 H         -12.2068    9.7695    1.8173 H       1  LIG1        0.0660
     68 C         -10.1652    6.0554   -0.2074 C.ar    1  LIG1        0.2193
     69 C         -11.1596    5.2568    0.3110 C.ar    1  LIG1        0.2091
     70 C         -10.8672    3.9293   -0.0962 C.ar    1  LIG1        0.2060
     71 C          -9.7110    3.9626   -0.8473 C.ar    1  LIG1        0.1826
     72 O          -9.2831    5.2634   -0.9074 O.2     1  LIG1       -0.4439
     73 O         -12.1955    5.6278    1.1051 O.3     1  LIG1       -0.5007
     74 H         -12.6559    4.8153    1.3641 H       1  LIG1        0.2924
     75 O         -11.6684    2.8836    0.2875 O.3     1  LIG1       -0.5008
     76 H         -11.1202    2.0963    0.4134 H       1  LIG1        0.2924
     77 C          -7.5784    2.9645   -1.8115 C.ar    1  LIG1        0.0497
     78 C          -8.9708    2.9094   -1.5206 C.ar    1  LIG1        0.0421
     79 C          -9.6625    1.7422   -1.9066 C.ar    1  LIG1       -0.0472
     80 C          -9.0025    0.6901   -2.5155 C.ar    1  LIG1       -0.0334
     81 C          -7.6241    0.8243   -2.7534 C.ar    1  LIG1        0.0910
     82 N          -6.9519    1.9464   -2.4083 N.ar    1  LIG1       -0.2496
     83 H         -10.7360    1.6820   -1.7523 H       1  LIG1        0.0626
     84 C          -6.7142    4.1519   -1.4730 C.3     1  LIG1       -0.0216
     85 H          -6.7841    4.4365   -0.4193 H       1  LIG1        0.0293
     86 H          -7.0067    5.0360   -2.0473 H       1  LIG1        0.0293
     87 H          -5.6773    3.9053   -1.7051 H       1  LIG1        0.0293
     88 H          -9.5255   -0.2080   -2.8205 H       1  LIG1        0.0640
     89 C          -6.8262   -0.2067   -3.3829 C.ar    1  LIG1        0.1069
     90 C          -7.1064   -1.4812   -3.8778 C.ar    1  LIG1        0.1435
     91 C          -5.9079   -2.0357   -4.3901 C.ar    1  LIG1       -0.0021
     92 C          -4.9161   -1.0848   -4.1969 C.ar    1  LIG1        0.0058
     93 N          -5.4752   -0.0027   -3.5970 N.ar    1  LIG1       -0.3565
     94 H          -5.0387    0.8635   -3.3166 H       1  LIG1        0.1655
     95 H          -3.8662   -1.1152   -4.4468 H       1  LIG1        0.0808
     96 O          -8.3516   -2.0481   -3.8442 O.3     1  LIG1       -0.5046
     97 H          -8.3013   -2.9212   -4.2521 H       1  LIG1        0.2922
     98 H          -5.7827   -3.0091   -4.8445 H       1  LIG1        0.0669
@<TRIPOS>BOND
     1    98    91    1
     2    95    92    1
     3    91    92   ar
     4    91    90   ar
     5    97    96    1
     6    92    93   ar
     7    90    96    1
     8    90    89   ar
     9    93    89   ar
    10    93    94    1
    11    89    81    1
    12    25    24    1
    13    88    80    1
    14    27    24    1
    15    81    80   ar
    16    81    82   ar
    17    26    24    1
    18    24    23    1
    19    80    79   ar
    20    82    77   ar
    21    86    84    1
    22    79    83    1
    23    79    78   ar
    24    77    78   ar
    25    77    84    1
    26    61    59    1
    27    87    84    1
    28    78    71    1
    29    84    85    1
    30    51    50    1
    31    23    17    1
    32    72    71   ar
    33    72    68   ar
    34    71    70   ar
    35    62    59    1
    36    59    60    1
    37    59    58    1
    38    21    22    3
    39    50    45    1
    40    50    52    1
    41    32    29    1
    42    45    44   ar
    43    45    46   ar
    44    48    49    1
    45    48    44    1
    46    17    16   ar
    47    17    18   ar
    48    36    28    1
    49    36    37    1
    50    44    43   ar
    51    57    53   ar
    52    57    56   ar
    53    68    56    1
    54    68    69   ar
    55    46    53    1
    56    46    47   ar
    57    22    16    1
    58    53    54   ar
    59    56    55   ar
    60    29    28   ar
    61    29    31   ar
    62    70    75    1
    63    70    69   ar
    64    43    47   ar
    65    43    31    1
    66    55    54   ar
    67    55    63    1
    68    54    58    1
    69    28    30   ar
    70    63    64    1
    71    31    34   ar
    72    75    76    1
    73    69    73    1
    74    16    15   ar
    75    30    18    1
    76    30    33   ar
    77    38    37    1
    78    34    33   ar
    79    34    42    1
    80    18    19   ar
    81    33    35    1
    82    42    41    3
    83    37    40    1
    84    37    39    1
    85    73    74    1
    86    65    64    1
    87    64    67    1
    88    64    66    1
    89    15    19   ar
    90    15     4    1
    91    19    20    1
    92    14    12    1
    93     4     3   ar
    94     4     5   ar
    95    12    13    1
    96    12     3    1
    97     3     2   ar
    98     5     1   ar
    99     2     1   ar
   100     2     7    1
   101     1     6    1
   102     7     8    1
   103    11     8    1
   104     8     9    1
   105     8    10    1
