@<TRIPOS>MOLECULE
mol_data/opt/b3lyp/geoms/mol2/12li12li-12li12li-.out
 58 61 0 0 0
SMALL
GASTEIGER

@<TRIPOS>ATOM
      1 C          -0.1682    2.0465    0.7790 C.ar    1  LIG1        0.1345
      2 C           1.0648    1.9728    0.1949 C.ar    1  LIG1        0.1612
      3 C           1.4300    3.2920   -0.2386 C.ar    1  LIG1        0.0402
      4 C           0.3731    4.0929    0.1295 C.ar    1  LIG1        0.1799
      5 O          -0.6004    3.3497    0.7524 O.2     1  LIG1       -0.4557
      6 H          -0.8345    1.3328    1.2325 H       1  LIG1        0.1068
      7 O           1.8789    0.9057   -0.0056 O.3     1  LIG1       -0.4917
      8 C           1.3741   -0.3357    0.4652 C.3     1  LIG1        0.0789
      9 H           2.1300   -1.0882    0.2376 H       1  LIG1        0.0660
     10 H           1.2012   -0.3063    1.5494 H       1  LIG1        0.0660
     11 H           0.4340   -0.5968   -0.0389 H       1  LIG1        0.0660
     12 C           2.6928    3.6402   -0.9640 C.3     1  LIG1       -0.0325
     13 H           2.7392    4.7025   -1.2046 H       1  LIG1        0.0280
     14 H           2.7776    3.0642   -1.8927 H       1  LIG1        0.0280
     15 H           3.5722    3.3891   -0.3591 H       1  LIG1        0.0280
     16 C           0.1404    5.5102    0.0174 C.ar    1  LIG1        0.2126
     17 C          -0.9637    6.3406   -0.0458 C.ar    1  LIG1        0.1723
     18 C          -0.4999    7.6945   -0.0976 C.ar    1  LIG1        0.0410
     19 C           0.8744    7.6101   -0.0747 C.ar    1  LIG1        0.1809
     20 O           1.2709    6.3005   -0.0042 O.2     1  LIG1       -0.4444
     21 O          -2.2937    6.0690   -0.0732 O.3     1  LIG1       -0.4909
     22 C          -2.7318    4.9552   -0.8557 C.3     1  LIG1        0.0790
     23 H          -3.8128    5.0685   -0.9578 H       1  LIG1        0.0660
     24 H          -2.2675    4.9714   -1.8490 H       1  LIG1        0.0660
     25 H          -2.5048    4.0070   -0.3632 H       1  LIG1        0.0660
     26 C          -1.3890    8.8950   -0.1954 C.3     1  LIG1       -0.0325
     27 H          -1.8335    9.1383    0.7779 H       1  LIG1        0.0280
     28 H          -2.2203    8.6903   -0.8769 H       1  LIG1        0.0280
     29 H          -0.8466    9.7734   -0.5460 H       1  LIG1        0.0280
     30 C           1.9297    8.5768   -0.1442 C.ar    1  LIG1        0.2127
     31 C           3.2991    8.4899   -0.3097 C.ar    1  LIG1        0.1723
     32 C           3.8222    9.8192   -0.3728 C.ar    1  LIG1        0.0410
     33 C           2.7274   10.6453   -0.2392 C.ar    1  LIG1        0.1809
     34 O           1.5820    9.9019   -0.0916 O.2     1  LIG1       -0.4444
     35 O           4.0496    7.3585   -0.4561 O.3     1  LIG1       -0.4909
     36 C           4.3890    6.7045    0.7736 C.3     1  LIG1        0.0790
     37 H           5.0373    5.8681    0.5056 H       1  LIG1        0.0660
     38 H           4.9285    7.3841    1.4447 H       1  LIG1        0.0660
     39 H           3.4931    6.3253    1.2749 H       1  LIG1        0.0660
     40 C           5.2641   10.1766   -0.5663 C.3     1  LIG1       -0.0325
     41 H           5.6897   10.6503    0.3253 H       1  LIG1        0.0280
     42 H           5.3966   10.8778   -1.3948 H       1  LIG1        0.0280
     43 H           5.8370    9.2713   -0.7813 H       1  LIG1        0.0280
     44 C           2.5658   12.0695   -0.2289 C.ar    1  LIG1        0.2116
     45 C           1.4849   12.9144   -0.0787 C.ar    1  LIG1        0.1716
     46 C           1.9695   14.2615   -0.2022 C.ar    1  LIG1        0.0297
     47 C           3.3088   14.1391   -0.4175 C.ar    1  LIG1        0.0993
     48 O           3.6917   12.8267   -0.4323 O.2     1  LIG1       -0.4557
     49 H           4.0986   14.8576   -0.5738 H       1  LIG1        0.1033
     50 O           0.1725   12.5789    0.1032 O.3     1  LIG1       -0.4909
     51 C          -0.1706   12.2159    1.4457 C.3     1  LIG1        0.0790
     52 H          -1.2490   12.0463    1.4516 H       1  LIG1        0.0660
     53 H           0.3429   11.2977    1.7487 H       1  LIG1        0.0660
     54 H           0.0755   13.0217    2.1484 H       1  LIG1        0.0660
     55 C           1.1456   15.5090   -0.1238 C.3     1  LIG1       -0.0332
     56 H           0.6997   15.6351    0.8692 H       1  LIG1        0.0280
     57 H           0.3209   15.4791   -0.8430 H       1  LIG1        0.0280
     58 H           1.7501   16.3954   -0.3339 H       1  LIG1        0.0280
@<TRIPOS>BOND
     1    14    12    1
     2    24    22    1
     3    42    40    1
     4    13    12    1
     5    12    15    1
     6    12     3    1
     7    23    22    1
     8    28    26    1
     9    22    25    1
    10    22    21    1
    11    57    55    1
    12    43    40    1
    13    49    47    1
    14    40    32    1
    15    40    41    1
    16    29    26    1
    17    35    31    1
    18    35    36    1
    19    48    47   ar
    20    48    44   ar
    21    47    46   ar
    22    32    31   ar
    23    32    33   ar
    24    58    55    1
    25    31    30   ar
    26    33    44    1
    27    33    34   ar
    28     3     4   ar
    29     3     2   ar
    30    44    45   ar
    31    46    55    1
    32    46    45   ar
    33    26    18    1
    34    26    27    1
    35    30    34   ar
    36    30    19    1
    37    55    56    1
    38    18    19   ar
    39    18    17   ar
    40    45    50    1
    41    19    20   ar
    42    21    17    1
    43    17    16   ar
    44    11     8    1
    45     7     2    1
    46     7     8    1
    47    20    16   ar
    48    16     4    1
    49    50    51    1
    50     4     5   ar
    51     2     1   ar
    52     9     8    1
    53     8    10    1
    54    37    36    1
    55     5     1   ar
    56    36    39    1
    57    36    38    1
    58     1     6    1
    59    51    52    1
    60    51    53    1
    61    51    54    1
