@<TRIPOS>MOLECULE
mol_data/opt/b3lyp/geoms/mol2/12li12li-12li.out
 44 46 0 0 0
SMALL
GASTEIGER

@<TRIPOS>ATOM
      1 C          -0.2288    1.9521    0.3095 C.ar    1  LIG1        0.1345
      2 C           1.0591    1.8872   -0.1423 C.ar    1  LIG1        0.1612
      3 C           1.5444    3.2297   -0.2985 C.ar    1  LIG1        0.0402
      4 C           0.4932    4.0311    0.0888 C.ar    1  LIG1        0.1799
      5 O          -0.5862    3.2692    0.4579 O.2     1  LIG1       -0.4557
      6 H          -0.9800    1.2238    0.5625 H       1  LIG1        0.1068
      7 O           1.8333    0.8116   -0.4343 O.3     1  LIG1       -0.4917
      8 C           1.2074   -0.4498   -0.2481 C.3     1  LIG1        0.0789
      9 H           1.9417   -1.2080   -0.5227 H       1  LIG1        0.0660
     10 H           0.9085   -0.5914    0.7991 H       1  LIG1        0.0660
     11 H           0.3208   -0.5491   -0.8886 H       1  LIG1        0.0660
     12 C           2.9086    3.5921   -0.7989 C.3     1  LIG1       -0.0325
     13 H           3.0022    4.6625   -0.9817 H       1  LIG1        0.0280
     14 H           3.1290    3.0555   -1.7281 H       1  LIG1        0.0280
     15 H           3.6823    3.2997   -0.0781 H       1  LIG1        0.0280
     16 C           0.3170    5.4547    0.1771 C.ar    1  LIG1        0.2126
     17 C          -0.7637    6.2895    0.3927 C.ar    1  LIG1        0.1723
     18 C          -0.2860    7.6387    0.3943 C.ar    1  LIG1        0.0410
     19 C           1.0696    7.5439    0.1733 C.ar    1  LIG1        0.1809
     20 O           1.4412    6.2300    0.0401 O.2     1  LIG1       -0.4444
     21 O          -2.0677    5.9630    0.6199 O.3     1  LIG1       -0.4909
     22 C          -2.7660    5.3821   -0.4870 C.3     1  LIG1        0.0790
     23 H          -3.8069    5.2870   -0.1714 H       1  LIG1        0.0660
     24 H          -2.7112    6.0306   -1.3699 H       1  LIG1        0.0660
     25 H          -2.3688    4.3928   -0.7308 H       1  LIG1        0.0660
     26 C          -1.1316    8.8577    0.6005 C.3     1  LIG1       -0.0325
     27 H          -2.1605    8.5546    0.8072 H       1  LIG1        0.0280
     28 H          -1.1298    9.5057   -0.2821 H       1  LIG1        0.0280
     29 H          -0.7725    9.4608    1.4401 H       1  LIG1        0.0280
     30 C           2.1156    8.5169    0.0505 C.ar    1  LIG1        0.2116
     31 C           3.4817    8.4440   -0.1308 C.ar    1  LIG1        0.1716
     32 C           3.9780    9.7897   -0.2167 C.ar    1  LIG1        0.0297
     33 C           2.8794   10.5832   -0.0800 C.ar    1  LIG1        0.0993
     34 O           1.7457    9.8376    0.0864 O.2     1  LIG1       -0.4557
     35 H           2.7393   11.6531   -0.0773 H       1  LIG1        0.1033
     36 O           4.2583    7.3265   -0.2590 O.3     1  LIG1       -0.4909
     37 C           4.5506    6.6557    0.9728 C.3     1  LIG1        0.0790
     38 H           5.2341    5.8417    0.7233 H       1  LIG1        0.0660
     39 H           5.0358    7.3335    1.6860 H       1  LIG1        0.0660
     40 H           3.6420    6.2419    1.4217 H       1  LIG1        0.0660
     41 C           5.4034   10.1957   -0.4280 C.3     1  LIG1       -0.0332
     42 H           5.4963   11.2819   -0.5109 H       1  LIG1        0.0280
     43 H           5.8078    9.7477   -1.3415 H       1  LIG1        0.0280
     44 H           6.0420    9.8663    0.3992 H       1  LIG1        0.0280
@<TRIPOS>BOND
     1    14    12    1
     2    24    22    1
     3    43    41    1
     4    13    12    1
     5    11     8    1
     6    12     3    1
     7    12    15    1
     8    25    22    1
     9     9     8    1
    10    42    41    1
    11    22    23    1
    12    22    21    1
    13     7     8    1
    14     7     2    1
    15    41    32    1
    16    41    44    1
    17     3     2   ar
    18     3     4   ar
    19    28    26    1
    20    36    31    1
    21    36    37    1
    22     8    10    1
    23    32    31   ar
    24    32    33   ar
    25     2     1   ar
    26    31    30   ar
    27    33    35    1
    28    33    34   ar
    29    20    19   ar
    30    20    16   ar
    31    30    34   ar
    32    30    19    1
    33     4    16    1
    34     4     5   ar
    35    19    18   ar
    36    16    17   ar
    37     1     5   ar
    38     1     6    1
    39    17    18   ar
    40    17    21    1
    41    18    26    1
    42    26    27    1
    43    26    29    1
    44    38    37    1
    45    37    40    1
    46    37    39    1
