@<TRIPOS>MOLECULE
mol_data/opt/b3lyp/geoms/mol2/12li12li-12li-12li.out
 58 61 0 0 0
SMALL
GASTEIGER

@<TRIPOS>ATOM
      1 C          -0.2650    2.1175   -0.2248 C.ar    1  LIG1        0.1345
      2 C           1.0576    2.0629   -0.5637 C.ar    1  LIG1        0.1612
      3 C           1.5929    3.3931   -0.4868 C.ar    1  LIG1        0.0402
      4 C           0.5299    4.1768   -0.0949 C.ar    1  LIG1        0.1799
      5 O          -0.6001    3.4160    0.0660 O.2     1  LIG1       -0.4557
      6 H          -1.0549    1.3913   -0.1387 H       1  LIG1        0.1068
      7 O           1.8283    1.0051   -0.9223 O.3     1  LIG1       -0.4917
      8 C           1.1588   -0.2470   -0.9499 C.3     1  LIG1        0.0789
      9 H           1.8971   -0.9910   -1.2515 H       1  LIG1        0.0660
     10 H           0.7623   -0.5054    0.0411 H       1  LIG1        0.0660
     11 H           0.3323   -0.2372   -1.6732 H       1  LIG1        0.0660
     12 C           3.0153    3.7565   -0.7842 C.3     1  LIG1       -0.0325
     13 H           3.2145    4.8116   -0.6004 H       1  LIG1        0.0280
     14 H           3.2620    3.5377   -1.8298 H       1  LIG1        0.0280
     15 H           3.7005    3.1588   -0.1719 H       1  LIG1        0.0280
     16 C           0.3824    5.5810    0.1736 C.ar    1  LIG1        0.2126
     17 C          -0.6543    6.3765    0.6218 C.ar    1  LIG1        0.1723
     18 C          -0.1627    7.7155    0.7414 C.ar    1  LIG1        0.0410
     19 C           1.1550    7.6585    0.3417 C.ar    1  LIG1        0.1809
     20 O           1.4854    6.3688   -0.0080 O.2     1  LIG1       -0.4444
     21 O          -1.9146    6.0041    0.9902 O.3     1  LIG1       -0.4909
     22 C          -2.8074    5.7087   -0.0887 C.3     1  LIG1        0.0790
     23 H          -3.7781    5.5032    0.3673 H       1  LIG1        0.0660
     24 H          -2.9010    6.5635   -0.7705 H       1  LIG1        0.0660
     25 H          -2.4739    4.8290   -0.6471 H       1  LIG1        0.0660
     26 C          -0.9551    8.8685    1.2752 C.3     1  LIG1       -0.0325
     27 H          -1.2944    8.6585    2.2954 H       1  LIG1        0.0280
     28 H          -1.8561    9.0383    0.6745 H       1  LIG1        0.0280
     29 H          -0.3699    9.7881    1.2790 H       1  LIG1        0.0280
     30 C           2.2238    8.6127    0.2197 C.ar    1  LIG1        0.2127
     31 C           2.3073    9.9809    0.0600 C.ar    1  LIG1        0.1723
     32 C           3.6886   10.3454    0.0075 C.ar    1  LIG1        0.0410
     33 C           4.3756    9.1559    0.1230 C.ar    1  LIG1        0.1809
     34 O           3.5009    8.1089    0.2526 O.2     1  LIG1       -0.4444
     35 O           1.2662   10.8681   -0.0188 O.3     1  LIG1       -0.4909
     36 C           0.7314   11.0245   -1.3392 C.3     1  LIG1        0.0790
     37 H          -0.0701   11.7617   -1.2625 H       1  LIG1        0.0660
     38 H           1.4977   11.3878   -2.0341 H       1  LIG1        0.0660
     39 H           0.3255   10.0784   -1.7153 H       1  LIG1        0.0660
     40 C           4.2176   11.7387   -0.1457 C.3     1  LIG1       -0.0325
     41 H           3.4039   12.4561   -0.0124 H       1  LIG1        0.0280
     42 H           4.6594   11.9006   -1.1353 H       1  LIG1        0.0280
     43 H           4.9967   11.9552    0.5901 H       1  LIG1        0.0280
     44 C           5.7709    8.8248    0.1219 C.ar    1  LIG1        0.2116
     45 C           6.4879    7.6496    0.2378 C.ar    1  LIG1        0.1716
     46 C           7.8796    7.9809    0.1001 C.ar    1  LIG1        0.0297
     47 C           7.9100    9.3296   -0.0849 C.ar    1  LIG1        0.0993
     48 O           6.6513    9.8610   -0.0704 O.2     1  LIG1       -0.4557
     49 H           8.7133   10.0350   -0.2321 H       1  LIG1        0.1033
     50 O           6.0289    6.3744    0.3908 O.3     1  LIG1       -0.4909
     51 C           5.4794    6.0620    1.6775 C.3     1  LIG1        0.0790
     52 H           5.2582    4.9933    1.6599 H       1  LIG1        0.0660
     53 H           6.2027    6.2726    2.4748 H       1  LIG1        0.0660
     54 H           4.5561    6.6189    1.8588 H       1  LIG1        0.0660
     55 C           9.0236    7.0165    0.1435 C.3     1  LIG1       -0.0332
     56 H           9.9757    7.5253   -0.0299 H       1  LIG1        0.0280
     57 H           8.9090    6.2371   -0.6168 H       1  LIG1        0.0280
     58 H           9.0837    6.5101    1.1131 H       1  LIG1        0.0280
@<TRIPOS>BOND
     1    38    36    1
     2    14    12    1
     3    39    36    1
     4    11     8    1
     5    36    37    1
     6    36    35    1
     7     9     8    1
     8    42    40    1
     9     8     7    1
    10     8    10    1
    11     7     2    1
    12    12    13    1
    13    12     3    1
    14    12    15    1
    15    24    22    1
    16    25    22    1
    17    57    55    1
    18     2     3   ar
    19     2     1   ar
    20     3     4   ar
    21    49    47    1
    22     1     6    1
    23     1     5   ar
    24    40    41    1
    25    40    32    1
    26    40    43    1
    27     4     5   ar
    28     4    16    1
    29    22    23    1
    30    22    21    1
    31    47    48   ar
    32    47    46   ar
    33    48    44   ar
    34    56    55    1
    35    35    31    1
    36    20    16   ar
    37    20    19   ar
    38    32    31   ar
    39    32    33   ar
    40    31    30   ar
    41    46    55    1
    42    46    45   ar
    43    44    33    1
    44    44    45   ar
    45    33    34   ar
    46    55    58    1
    47    16    17   ar
    48    30    34   ar
    49    30    19    1
    50    45    50    1
    51    19    18   ar
    52    50    51    1
    53    17    18   ar
    54    17    21    1
    55    28    26    1
    56    18    26    1
    57    26    29    1
    58    26    27    1
    59    52    51    1
    60    51    54    1
    61    51    53    1
