@<TRIPOS>MOLECULE
mol_data/opt/b3lyp/geoms/mol2/12li.out
 16 16 0 0 0
SMALL
GASTEIGER

@<TRIPOS>ATOM
      1 C           0.0167    1.9201    0.0281 C.ar    1  LIG1        0.1334
      2 C           1.3826    1.8830   -0.0012 C.ar    1  LIG1        0.1605
      3 C           1.8548    3.2435    0.0253 C.ar    1  LIG1        0.0290
      4 C           0.7233    3.9996    0.0690 C.ar    1  LIG1        0.0982
      5 O          -0.3985    3.2275    0.0716 O.2     1  LIG1       -0.4670
      6 H          -0.7578    1.1722    0.0242 H       1  LIG1        0.1067
      7 H           0.5618    5.0665    0.1007 H       1  LIG1        0.1033
      8 O           2.2362    0.8274   -0.0470 O.3     1  LIG1       -0.4917
      9 C           1.6134   -0.4485   -0.0677 C.3     1  LIG1        0.0789
     10 H           2.4140   -1.1885   -0.1038 H       1  LIG1        0.0660
     11 H           1.0081   -0.6075    0.8348 H       1  LIG1        0.0660
     12 H           0.9710   -0.5604   -0.9515 H       1  LIG1        0.0660
     13 C           3.2843    3.6868    0.0079 C.3     1  LIG1       -0.0332
     14 H           3.3578    4.7774    0.0356 H       1  LIG1        0.0280
     15 H           3.7993    3.3346   -0.8927 H       1  LIG1        0.0280
     16 H           3.8351    3.2876    0.8668 H       1  LIG1        0.0280
@<TRIPOS>BOND
     1    12     9    1
     2    15    13    1
     3    10     9    1
     4     9     8    1
     5     9    11    1
     6     8     2    1
     7     2     3   ar
     8     2     1   ar
     9    13     3    1
    10    13    14    1
    11    13    16    1
    12     6     1    1
    13     3     4   ar
    14     1     5   ar
    15     4     5   ar
    16     4     7    1
