@<TRIPOS>MOLECULE
mol_data/opt/b3lyp/geoms/mol2/12li12li.out
 30 31 0 0 0
SMALL
GASTEIGER

@<TRIPOS>ATOM
      1 C           1.1334    2.0483   -1.1678 C.ar    1  LIG1        0.1345
      2 C           1.5192    1.6912    0.0936 C.ar    1  LIG1        0.1612
      3 C           1.5477    2.8802    0.8979 C.ar    1  LIG1        0.0402
      4 C           1.1612    3.8938    0.0557 C.ar    1  LIG1        0.1799
      5 O           0.8975    3.4002   -1.2003 O.2     1  LIG1       -0.4557
      6 H           0.9860    1.5158   -2.0917 H       1  LIG1        0.1068
      7 O           1.8540    0.4770    0.5995 O.3     1  LIG1       -0.4917
      8 C           1.7976   -0.5983   -0.3267 C.3     1  LIG1        0.0789
      9 H           2.0883   -1.4973    0.2181 H       1  LIG1        0.0660
     10 H           0.7819   -0.7239   -0.7250 H       1  LIG1        0.0660
     11 H           2.4910   -0.4364   -1.1630 H       1  LIG1        0.0660
     12 C           1.9459    2.9463    2.3390 C.3     1  LIG1       -0.0325
     13 H           2.0281    3.9806    2.6767 H       1  LIG1        0.0280
     14 H           2.9056    2.4437    2.5000 H       1  LIG1        0.0280
     15 H           1.2109    2.4428    2.9777 H       1  LIG1        0.0280
     16 C           0.9342    5.3041    0.2796 C.ar    1  LIG1        0.2116
     17 C           1.0920    6.4726   -0.4392 C.ar    1  LIG1        0.1716
     18 C           0.5844    7.5529    0.3640 C.ar    1  LIG1        0.0297
     19 C           0.1709    6.9707    1.5215 C.ar    1  LIG1        0.0993
     20 O           0.3674    5.6259    1.5020 O.2     1  LIG1       -0.4557
     21 H          -0.2606    7.3709    2.4266 H       1  LIG1        0.1033
     22 O           1.6212    6.7356   -1.6595 O.3     1  LIG1       -0.4909
     23 C           2.5669    5.8140   -2.2010 C.3     1  LIG1        0.0790
     24 H           3.0241    6.3211   -3.0526 H       1  LIG1        0.0660
     25 H           3.3397    5.5696   -1.4621 H       1  LIG1        0.0660
     26 H           2.0819    4.8927   -2.5321 H       1  LIG1        0.0660
     27 C           0.5602    8.9969   -0.0268 C.3     1  LIG1       -0.0332
     28 H           0.1878    9.6200    0.7908 H       1  LIG1        0.0280
     29 H          -0.0810    9.1626   -0.8995 H       1  LIG1        0.0280
     30 H           1.5618    9.3483   -0.2968 H       1  LIG1        0.0280
@<TRIPOS>BOND
     1    24    23    1
     2    26    23    1
     3    23    22    1
     4    23    25    1
     5     6     1    1
     6    22    17    1
     7     5     1   ar
     8     5     4   ar
     9     1     2   ar
    10    11     8    1
    11    29    27    1
    12    10     8    1
    13    17    16   ar
    14    17    18   ar
    15     8     9    1
    16     8     7    1
    17    30    27    1
    18    27    18    1
    19    27    28    1
    20     4    16    1
    21     4     3   ar
    22     2     7    1
    23     2     3   ar
    24    16    20   ar
    25    18    19   ar
    26     3    12    1
    27    20    19   ar
    28    19    21    1
    29    12    14    1
    30    12    13    1
    31    12    15    1
