@<TRIPOS>MOLECULE
mol_data/opt/b3lyp/geoms/mol2/12li12li12li-12li.out
 58 61 0 0 0
SMALL
GASTEIGER

@<TRIPOS>ATOM
      1 C           2.2841    2.0007   -0.8105 C.ar    1  LIG1        0.1345
      2 C           1.3163    1.5725    0.0538 C.ar    1  LIG1        0.1612
      3 C           0.4351    2.6749    0.3174 C.ar    1  LIG1        0.0402
      4 C           0.9400    3.7156   -0.4310 C.ar    1  LIG1        0.1799
      5 O           2.0601    3.3198   -1.1169 O.2     1  LIG1       -0.4557
      6 H           3.1379    1.5418   -1.2787 H       1  LIG1        0.1068
      7 O           1.1270    0.3573    0.6273 O.3     1  LIG1       -0.4917
      8 C           2.0862   -0.6304    0.2782 C.3     1  LIG1        0.0789
      9 H           1.8067   -1.5408    0.8099 H       1  LIG1        0.0660
     10 H           2.0804   -0.8214   -0.8033 H       1  LIG1        0.0660
     11 H           3.0966   -0.3247    0.5811 H       1  LIG1        0.0660
     12 C          -0.7489    2.6202    1.2330 C.3     1  LIG1       -0.0325
     13 H          -1.1975    3.6030    1.3757 H       1  LIG1        0.0280
     14 H          -0.4577    2.2213    2.2109 H       1  LIG1        0.0280
     15 H          -1.5183    1.9455    0.8374 H       1  LIG1        0.0280
     16 C           0.5353    5.0806   -0.6250 C.ar    1  LIG1        0.2126
     17 C           1.0809    6.1716   -1.2743 C.ar    1  LIG1        0.1723
     18 C           0.1732    7.2689   -1.1354 C.ar    1  LIG1        0.0410
     19 C          -0.8806    6.7781   -0.3948 C.ar    1  LIG1        0.1809
     20 O          -0.6669    5.4567   -0.0822 O.2     1  LIG1       -0.4444
     21 O           2.2352    6.2475   -1.9969 O.3     1  LIG1       -0.4909
     22 C           3.4470    6.1843   -1.2379 C.3     1  LIG1        0.0790
     23 H           4.2590    6.3501   -1.9488 H       1  LIG1        0.0660
     24 H           3.4719    6.9668   -0.4693 H       1  LIG1        0.0660
     25 H           3.5696    5.2038   -0.7688 H       1  LIG1        0.0660
     26 C           0.3827    8.6341   -1.7148 C.3     1  LIG1       -0.0325
     27 H          -0.5484    9.1992   -1.7670 H       1  LIG1        0.0280
     28 H           0.8107    8.5540   -2.7183 H       1  LIG1        0.0280
     29 H           1.0915    9.2169   -1.1126 H       1  LIG1        0.0280
     30 C          -2.1052    7.3408    0.0895 C.ar    1  LIG1        0.2127
     31 C          -3.2268    6.8161    0.7035 C.ar    1  LIG1        0.1723
     32 C          -4.1311    7.8915    0.9677 C.ar    1  LIG1        0.0410
     33 C          -3.5009    9.0200    0.4901 C.ar    1  LIG1        0.1809
     34 O          -2.2756    8.6957   -0.0402 O.2     1  LIG1       -0.4444
     35 O          -3.4580    5.5154    1.0507 O.3     1  LIG1       -0.4909
     36 C          -3.8600    4.6711   -0.0354 C.3     1  LIG1        0.0790
     37 H          -4.0735    3.6932    0.4003 H       1  LIG1        0.0660
     38 H          -4.7624    5.0599   -0.5225 H       1  LIG1        0.0660
     39 H          -3.0583    4.5720   -0.7743 H       1  LIG1        0.0660
     40 C          -5.4668    7.7588    1.6327 C.3     1  LIG1       -0.0325
     41 H          -5.5686    6.7525    2.0462 H       1  LIG1        0.0280
     42 H          -6.2896    7.9256    0.9286 H       1  LIG1        0.0280
     43 H          -5.5875    8.4840    2.4422 H       1  LIG1        0.0280
     44 C          -3.8722   10.4034    0.4352 C.ar    1  LIG1        0.2116
     45 C          -3.2430   11.5548    0.0062 C.ar    1  LIG1        0.1716
     46 C          -4.1700   12.6401    0.1707 C.ar    1  LIG1        0.0297
     47 C          -5.2940   12.0725    0.6898 C.ar    1  LIG1        0.0993
     48 O          -5.1362   10.7255    0.8616 O.2     1  LIG1       -0.4557
     49 H          -6.2531   12.4712    0.9821 H       1  LIG1        0.1033
     50 O          -1.9929   11.6887   -0.5288 O.3     1  LIG1       -0.4909
     51 C          -0.9219   11.6227    0.4203 C.3     1  LIG1        0.0790
     52 H          -0.0057   11.8245   -0.1383 H       1  LIG1        0.0660
     53 H          -1.0435   12.3785    1.2060 H       1  LIG1        0.0660
     54 H          -0.8584   10.6291    0.8750 H       1  LIG1        0.0660
     55 C          -3.9233   14.0743   -0.1802 C.3     1  LIG1       -0.0332
     56 H          -4.8135   14.6833   -0.0016 H       1  LIG1        0.0280
     57 H          -3.6443   14.1780   -1.2338 H       1  LIG1        0.0280
     58 H          -3.1028   14.4966    0.4106 H       1  LIG1        0.0280
@<TRIPOS>BOND
     1    28    26    1
     2    21    17    1
     3    21    22    1
     4    23    22    1
     5    27    26    1
     6    26    18    1
     7    26    29    1
     8     6     1    1
     9    17    18   ar
    10    17    16   ar
    11    22    25    1
    12    22    24    1
    13    57    55    1
    14    18    19   ar
    15     5     1   ar
    16     5     4   ar
    17     1     2   ar
    18    10     8    1
    19    39    36    1
    20    16     4    1
    21    16    20   ar
    22    50    45    1
    23    50    51    1
    24    38    36    1
    25     4     3   ar
    26    19    20   ar
    27    19    30    1
    28    55    56    1
    29    55    46    1
    30    55    58    1
    31    52    51    1
    32    34    30   ar
    33    34    33   ar
    34    36    37    1
    35    36    35    1
    36    45    46   ar
    37    45    44   ar
    38     2     3   ar
    39     2     7    1
    40    30    31   ar
    41    46    47   ar
    42     8    11    1
    43     8     7    1
    44     8     9    1
    45     3    12    1
    46    51    54    1
    47    51    53    1
    48    44    33    1
    49    44    48   ar
    50    33    32   ar
    51    47    48   ar
    52    47    49    1
    53    31    32   ar
    54    31    35    1
    55    15    12    1
    56    42    40    1
    57    32    40    1
    58    12    13    1
    59    12    14    1
    60    40    41    1
    61    40    43    1
