@<TRIPOS>MOLECULE
mol_data/opt/b3lyp/geoms/mol2/12li12li12li.out
 44 46 0 0 0
SMALL
GASTEIGER

@<TRIPOS>ATOM
      1 C           2.4684    2.6381   -1.4953 C.ar    1  LIG1        0.1345
      2 C           1.2488    2.1444   -1.1268 C.ar    1  LIG1        0.1612
      3 C           0.4840    3.2214   -0.5636 C.ar    1  LIG1        0.0402
      4 C           1.3117    4.3195   -0.6423 C.ar    1  LIG1        0.1799
      5 O           2.5162    3.9787   -1.2035 O.2     1  LIG1       -0.4557
      6 H           3.3509    2.2175   -1.9458 H       1  LIG1        0.1068
      7 O           0.7476    0.8865   -1.2178 O.3     1  LIG1       -0.4917
      8 C           1.6301   -0.0747   -1.7789 C.3     1  LIG1        0.0789
      9 H           1.0964   -1.0258   -1.7834 H       1  LIG1        0.0660
     10 H           1.9059    0.1955   -2.8070 H       1  LIG1        0.0660
     11 H           2.5442   -0.1700   -1.1777 H       1  LIG1        0.0660
     12 C          -0.9030    3.0882   -0.0144 C.3     1  LIG1       -0.0325
     13 H          -1.6235    2.8743   -0.8137 H       1  LIG1        0.0280
     14 H          -1.2245    3.9944    0.4987 H       1  LIG1        0.0280
     15 H          -0.9565    2.2484    0.6869 H       1  LIG1        0.0280
     16 C           1.1621    5.6981   -0.2648 C.ar    1  LIG1        0.2126
     17 C           2.0187    6.7790   -0.1699 C.ar    1  LIG1        0.1723
     18 C           1.2528    7.9142    0.2462 C.ar    1  LIG1        0.0410
     19 C          -0.0363    7.4510    0.3851 C.ar    1  LIG1        0.1809
     20 O          -0.0993    6.1149    0.0798 O.2     1  LIG1       -0.4444
     21 O           3.3512    6.8445   -0.4510 O.3     1  LIG1       -0.4909
     22 C           4.2102    6.1149    0.4321 C.3     1  LIG1        0.0790
     23 H           5.2310    6.3621    0.1335 H       1  LIG1        0.0660
     24 H           4.0521    6.4189    1.4740 H       1  LIG1        0.0660
     25 H           4.0548    5.0367    0.3349 H       1  LIG1        0.0660
     26 C           1.7954    9.2928    0.4663 C.3     1  LIG1       -0.0325
     27 H           1.6888    9.6081    1.5094 H       1  LIG1        0.0280
     28 H           1.2737   10.0346   -0.1463 H       1  LIG1        0.0280
     29 H           2.8556    9.3114    0.2041 H       1  LIG1        0.0280
     30 C          -1.2661    8.0720    0.7821 C.ar    1  LIG1        0.2116
     31 C          -2.5720    7.6394    0.8899 C.ar    1  LIG1        0.1716
     32 C          -3.3514    8.7394    1.3872 C.ar    1  LIG1        0.0297
     33 C          -2.4645    9.7611    1.5442 C.ar    1  LIG1        0.0993
     34 O          -1.2018    9.3830    1.1817 O.2     1  LIG1       -0.4557
     35 H          -2.5665   10.7787    1.8883 H       1  LIG1        0.1033
     36 O          -3.0736    6.3946    0.6307 O.3     1  LIG1       -0.4909
     37 C          -3.2648    6.1033   -0.7590 C.3     1  LIG1        0.0790
     38 H          -3.7389    5.1209   -0.8034 H       1  LIG1        0.0660
     39 H          -3.9196    6.8459   -1.2316 H       1  LIG1        0.0660
     40 H          -2.3080    6.0689   -1.2898 H       1  LIG1        0.0660
     41 C          -4.8204    8.7249    1.6752 C.3     1  LIG1       -0.0332
     42 H          -5.1491    9.6779    2.0983 H       1  LIG1        0.0280
     43 H          -5.0735    7.9308    2.3851 H       1  LIG1        0.0280
     44 H          -5.4061    8.5407    0.7676 H       1  LIG1        0.0280
@<TRIPOS>BOND
     1    10     8    1
     2     6     1    1
     3     9     8    1
     4     8     7    1
     5     8    11    1
     6     1     5   ar
     7     1     2   ar
     8    40    37    1
     9    39    37    1
    10     7     2    1
    11     5     4   ar
    12     2     3   ar
    13    13    12    1
    14    38    37    1
    15    37    36    1
    16     4     3   ar
    17     4    16    1
    18     3    12    1
    19    21    17    1
    20    21    22    1
    21    16    17   ar
    22    16    20   ar
    23    17    18   ar
    24    28    26    1
    25    12    14    1
    26    12    15    1
    27    20    19   ar
    28    23    22    1
    29    29    26    1
    30    18    19   ar
    31    18    26    1
    32    25    22    1
    33    19    30    1
    34    22    24    1
    35    26    27    1
    36    36    31    1
    37    44    41    1
    38    30    31   ar
    39    30    34   ar
    40    31    32   ar
    41    34    33   ar
    42    32    33   ar
    43    32    41    1
    44    33    35    1
    45    41    42    1
    46    41    43    1
