@<TRIPOS>MOLECULE
mol_data/opt/b3lyp/geoms/mol2/12li12li12li12li-.out
 58 61 0 0 0
SMALL
GASTEIGER

@<TRIPOS>ATOM
      1 C           2.6662    2.2154   -1.0879 C.ar    1  LIG1        0.1345
      2 C           1.4317    1.6374   -1.1829 C.ar    1  LIG1        0.1612
      3 C           0.4445    2.6517   -0.9411 C.ar    1  LIG1        0.0402
      4 C           1.1704    3.8004   -0.7140 C.ar    1  LIG1        0.1799
      5 O           2.5161    3.5485   -0.7995 O.2     1  LIG1       -0.4557
      6 H           3.6776    1.8620   -1.1925 H       1  LIG1        0.1068
      7 O           1.0826    0.3536   -1.4503 O.3     1  LIG1       -0.4917
      8 C           2.1693   -0.5326   -1.6750 C.3     1  LIG1        0.0789
      9 H           1.7374   -1.5134   -1.8778 H       1  LIG1        0.0660
     10 H           2.7695   -0.2112   -2.5367 H       1  LIG1        0.0660
     11 H           2.8186   -0.5943   -0.7913 H       1  LIG1        0.0660
     12 C          -1.0354    2.4206   -0.9601 C.3     1  LIG1       -0.0325
     13 H          -1.5924    3.3183   -0.6945 H       1  LIG1        0.0280
     14 H          -1.3088    1.6204   -0.2626 H       1  LIG1        0.0280
     15 H          -1.3645    2.0931   -1.9533 H       1  LIG1        0.0280
     16 C           0.8052    5.1597   -0.4230 C.ar    1  LIG1        0.2126
     17 C           1.5109    6.3284   -0.2111 C.ar    1  LIG1        0.1723
     18 C           0.5658    7.3802    0.0112 C.ar    1  LIG1        0.0410
     19 C          -0.6735    6.7868   -0.0947 C.ar    1  LIG1        0.1809
     20 O          -0.5311    5.4416   -0.3486 O.2     1  LIG1       -0.4444
     21 O           2.8605    6.5281   -0.2427 O.3     1  LIG1       -0.4909
     22 C           3.5832    6.0332    0.8894 C.3     1  LIG1        0.0790
     23 H           4.6202    6.3448    0.7479 H       1  LIG1        0.0660
     24 H           3.1994    6.4641    1.8225 H       1  LIG1        0.0660
     25 H           3.5353    4.9415    0.9418 H       1  LIG1        0.0660
     26 C           0.9310    8.7958    0.3360 C.3     1  LIG1       -0.0325
     27 H           0.0581    9.4491    0.3212 H       1  LIG1        0.0280
     28 H           1.6693    9.1737   -0.3788 H       1  LIG1        0.0280
     29 H           1.3918    8.8613    1.3290 H       1  LIG1        0.0280
     30 C          -2.0332    7.2436    0.0084 C.ar    1  LIG1        0.2127
     31 C          -2.6789    8.4530   -0.1484 C.ar    1  LIG1        0.1723
     32 C          -4.0727    8.2554    0.1006 C.ar    1  LIG1        0.0410
     33 C          -4.1978    6.9117    0.3811 C.ar    1  LIG1        0.1809
     34 O          -2.9741    6.2964    0.3294 O.2     1  LIG1       -0.4444
     35 O          -2.1112    9.6574   -0.4710 O.3     1  LIG1       -0.4909
     36 C          -1.9499    9.8683   -1.8802 C.3     1  LIG1        0.0790
     37 H          -1.5125   10.8618   -1.9953 H       1  LIG1        0.0660
     38 H          -1.2799    9.1192   -2.3169 H       1  LIG1        0.0660
     39 H          -2.9164    9.8317   -2.3965 H       1  LIG1        0.0660
     40 C          -5.1268    9.3186    0.0466 C.3     1  LIG1       -0.0325
     41 H          -5.7742    9.2074   -0.8308 H       1  LIG1        0.0280
     42 H          -4.6526   10.3022   -0.0017 H       1  LIG1        0.0280
     43 H          -5.7744    9.2862    0.9267 H       1  LIG1        0.0280
     44 C          -5.3195    6.0737    0.6915 C.ar    1  LIG1        0.2116
     45 C          -5.4792    4.7260    0.9489 C.ar    1  LIG1        0.1716
     46 C          -6.8840    4.4887    1.1379 C.ar    1  LIG1        0.0297
     47 C          -7.4762    5.7055    0.9856 C.ar    1  LIG1        0.0993
     48 O          -6.5525    6.6771    0.7207 O.2     1  LIG1       -0.4557
     49 H          -8.5018    6.0371    1.0355 H       1  LIG1        0.1033
     50 O          -4.5375    3.7393    0.9680 O.3     1  LIG1       -0.4909
     51 C          -3.6597    3.7411    2.1009 C.3     1  LIG1        0.0790
     52 H          -3.0427    2.8455    2.0065 H       1  LIG1        0.0660
     53 H          -3.0160    4.6250    2.1002 H       1  LIG1        0.0660
     54 H          -4.2277    3.6963    3.0385 H       1  LIG1        0.0660
     55 C          -7.5241    3.1663    1.4246 C.3     1  LIG1       -0.0332
     56 H          -7.1666    2.7453    2.3707 H       1  LIG1        0.0280
     57 H          -7.2879    2.4380    0.6419 H       1  LIG1        0.0280
     58 H          -8.6116    3.2594    1.4872 H       1  LIG1        0.0280
@<TRIPOS>BOND
     1    10     8    1
     2    39    36    1
     3    38    36    1
     4    37    36    1
     5    15    12    1
     6    36    35    1
     7     9     8    1
     8     8     7    1
     9     8    11    1
    10     7     2    1
    11     6     1    1
    12     2     1   ar
    13     2     3   ar
    14     1     5   ar
    15    12     3    1
    16    12    13    1
    17    12    14    1
    18     3     4   ar
    19    41    40    1
    20     5     4   ar
    21     4    16    1
    22    35    31    1
    23    16    20   ar
    24    16    17   ar
    25    28    26    1
    26    20    19   ar
    27    21    17    1
    28    21    22    1
    29    17    18   ar
    30    31    30   ar
    31    31    32   ar
    32    19    30    1
    33    19    18   ar
    34    42    40    1
    35    30    34   ar
    36    18    26    1
    37    40    32    1
    38    40    43    1
    39    32    33   ar
    40    27    26    1
    41    34    33   ar
    42    26    29    1
    43    33    44    1
    44    57    55    1
    45    44    48   ar
    46    44    45   ar
    47    48    47   ar
    48    23    22    1
    49    22    25    1
    50    22    24    1
    51    45    50    1
    52    45    46   ar
    53    50    51    1
    54    47    49    1
    55    47    46   ar
    56    46    55    1
    57    55    58    1
    58    55    56    1
    59    52    51    1
    60    53    51    1
    61    51    54    1
