@<TRIPOS>MOLECULE
mol_data/opt/b3lyp/geoms/mol2/12li12li12li-12li-.out
 58 61 0 0 0
SMALL
GASTEIGER

@<TRIPOS>ATOM
      1 C           2.1742    2.1788   -0.8116 C.ar    1  LIG1        0.1345
      2 C           0.9385    1.6583   -0.5480 C.ar    1  LIG1        0.1612
      3 C           0.0217    2.7506   -0.3825 C.ar    1  LIG1        0.0402
      4 C           0.7874    3.8819   -0.5576 C.ar    1  LIG1        0.1799
      5 O           2.0920    3.5486   -0.8178 O.2     1  LIG1       -0.4557
      6 H           3.1451    1.7590   -1.0111 H       1  LIG1        0.1068
      7 O           0.5332    0.3669   -0.4483 O.3     1  LIG1       -0.4917
      8 C           1.5486   -0.6022   -0.6654 C.3     1  LIG1        0.0789
      9 H           1.0766   -1.5799   -0.5612 H       1  LIG1        0.0660
     10 H           1.9767   -0.5069   -1.6722 H       1  LIG1        0.0660
     11 H           2.3536   -0.5038    0.0754 H       1  LIG1        0.0660
     12 C          -1.4431    2.6046   -0.1073 C.3     1  LIG1       -0.0325
     13 H          -1.9666    3.5574   -0.1862 H       1  LIG1        0.0280
     14 H          -1.6163    2.2018    0.8985 H       1  LIG1        0.0280
     15 H          -1.8939    1.8954   -0.8099 H       1  LIG1        0.0280
     16 C           0.4913    5.2874   -0.5350 C.ar    1  LIG1        0.2126
     17 C           1.1715    6.4209   -0.9368 C.ar    1  LIG1        0.1723
     18 C           0.3224    7.5498   -0.7117 C.ar    1  LIG1        0.0410
     19 C          -0.8382    7.0292   -0.1809 C.ar    1  LIG1        0.1809
     20 O          -0.7387    5.6641   -0.0611 O.2     1  LIG1       -0.4444
     21 O           2.4002    6.4927   -1.5255 O.3     1  LIG1       -0.4909
     22 C           3.5105    6.4231   -0.6240 C.3     1  LIG1        0.0790
     23 H           4.4065    6.5585   -1.2332 H       1  LIG1        0.0660
     24 H           3.4594    7.2199    0.1285 H       1  LIG1        0.0660
     25 H           3.5506    5.4491   -0.1267 H       1  LIG1        0.0660
     26 C           0.6680    8.9727   -1.0268 C.3     1  LIG1       -0.0325
     27 H           0.8638    9.5538   -0.1183 H       1  LIG1        0.0280
     28 H          -0.1445    9.4764   -1.5561 H       1  LIG1        0.0280
     29 H           1.5659    8.9998   -1.6491 H       1  LIG1        0.0280
     30 C          -2.0733    7.6151    0.2435 C.ar    1  LIG1        0.2127
     31 C          -3.2408    7.1143    0.7866 C.ar    1  LIG1        0.1723
     32 C          -4.1388    8.2110    0.9811 C.ar    1  LIG1        0.0410
     33 C          -3.4645    9.3216    0.5247 C.ar    1  LIG1        0.1809
     34 O          -2.2089    8.9676    0.0835 O.2     1  LIG1       -0.4444
     35 O          -3.5421    5.8124    1.0728 O.3     1  LIG1       -0.4909
     36 C          -2.9843    5.3249    2.2991 C.3     1  LIG1        0.0790
     37 H          -3.3627    4.3087    2.4248 H       1  LIG1        0.0660
     38 H          -1.8908    5.3020    2.2517 H       1  LIG1        0.0660
     39 H          -3.3022    5.9404    3.1496 H       1  LIG1        0.0660
     40 C          -5.4930    8.1150    1.6150 C.3     1  LIG1       -0.0325
     41 H          -5.4096    8.0244    2.7051 H       1  LIG1        0.0280
     42 H          -6.0157    7.2216    1.2600 H       1  LIG1        0.0280
     43 H          -6.1033    8.9931    1.3983 H       1  LIG1        0.0280
     44 C          -3.8006   10.7197    0.4299 C.ar    1  LIG1        0.2116
     45 C          -4.9721   11.4132    0.2161 C.ar    1  LIG1        0.1716
     46 C          -4.6688   12.8157    0.2728 C.ar    1  LIG1        0.0297
     47 C          -3.3263   12.8734    0.4989 C.ar    1  LIG1        0.0993
     48 O          -2.7817   11.6271    0.5935 O.2     1  LIG1       -0.4557
     49 H          -2.6356   13.6957    0.6072 H       1  LIG1        0.1033
     50 O          -6.2295   10.9161   -0.0023 O.3     1  LIG1       -0.4909
     51 C          -6.3974   10.2322   -1.2513 C.3     1  LIG1        0.0790
     52 H          -7.4526    9.9594   -1.3112 H       1  LIG1        0.0660
     53 H          -6.1389   10.8862   -2.0923 H       1  LIG1        0.0660
     54 H          -5.7834    9.3264   -1.2976 H       1  LIG1        0.0660
     55 C          -5.6412   13.9416    0.1066 C.3     1  LIG1       -0.0332
     56 H          -6.4226   13.9061    0.8731 H       1  LIG1        0.0280
     57 H          -6.1450   13.8947   -0.8649 H       1  LIG1        0.0280
     58 H          -5.1387   14.9098    0.1791 H       1  LIG1        0.0280
@<TRIPOS>BOND
     1    53    51    1
     2    10     8    1
     3    29    26    1
     4    28    26    1
     5    21    17    1
     6    21    22    1
     7    52    51    1
     8    54    51    1
     9    51    50    1
    10    23    22    1
    11    26    18    1
    12    26    27    1
    13     6     1    1
    14    17    18   ar
    15    17    16   ar
    16    57    55    1
    17     5     1   ar
    18     5     4   ar
    19     1     2   ar
    20    15    12    1
    21    18    19   ar
    22     8     9    1
    23     8     7    1
    24     8    11    1
    25    22    25    1
    26    22    24    1
    27     4    16    1
    28     4     3   ar
    29     2     7    1
    30     2     3   ar
    31    16    20   ar
    32     3    12    1
    33    13    12    1
    34    19    20   ar
    35    19    30    1
    36    12    14    1
    37    50    45    1
    38    34    30   ar
    39    34    33   ar
    40    55    58    1
    41    55    46    1
    42    55    56    1
    43    45    46   ar
    44    45    44   ar
    45    30    31   ar
    46    46    47   ar
    47    44    33    1
    48    44    48   ar
    49    47    48   ar
    50    47    49    1
    51    33    32   ar
    52    31    32   ar
    53    31    35    1
    54    32    40    1
    55    35    36    1
    56    42    40    1
    57    43    40    1
    58    40    41    1
    59    38    36    1
    60    36    37    1
    61    36    39    1
