@<TRIPOS>MOLECULE
mol_data/opt/b3lyp/geoms/mol2/12li12li-.out
 30 31 0 0 0
SMALL
GASTEIGER

@<TRIPOS>ATOM
      1 C          -0.0793    2.0755   -0.1593 C.ar    1  LIG1        0.1345
      2 C           1.2714    1.9719    0.0166 C.ar    1  LIG1        0.1612
      3 C           1.8133    3.3000    0.0882 C.ar    1  LIG1        0.0402
      4 C           0.7265    4.1322   -0.0525 C.ar    1  LIG1        0.1799
      5 O          -0.4246    3.4030   -0.2022 O.2     1  LIG1       -0.4557
      6 H          -0.8845    1.3701   -0.2717 H       1  LIG1        0.1068
      7 O           2.0634    0.8741    0.1140 O.3     1  LIG1       -0.4917
      8 C           1.3866   -0.3695    0.0020 C.3     1  LIG1        0.0789
      9 H           2.1447   -1.1484    0.0921 H       1  LIG1        0.0660
     10 H           0.6431   -0.4884    0.8017 H       1  LIG1        0.0660
     11 H           0.8827   -0.4588   -0.9696 H       1  LIG1        0.0660
     12 C           3.2647    3.6208    0.2700 C.3     1  LIG1       -0.0325
     13 H           3.4542    4.6873    0.1533 H       1  LIG1        0.0280
     14 H           3.8732    3.0727   -0.4575 H       1  LIG1        0.0280
     15 H           3.6130    3.3183    1.2650 H       1  LIG1        0.0280
     16 C           0.5661    5.5634   -0.0815 C.ar    1  LIG1        0.2116
     17 C          -0.4983    6.4017   -0.3401 C.ar    1  LIG1        0.1716
     18 C          -0.0163    7.7538   -0.2497 C.ar    1  LIG1        0.0297
     19 C           1.3050    7.6407    0.0556 C.ar    1  LIG1        0.0993
     20 O           1.6758    6.3297    0.1686 O.2     1  LIG1       -0.4557
     21 H           2.0890    8.3634    0.2211 H       1  LIG1        0.1033
     22 O          -1.7742    6.0699   -0.6959 O.3     1  LIG1       -0.4909
     23 C          -2.6188    5.6489    0.3802 C.3     1  LIG1        0.0790
     24 H          -3.6072    5.4854   -0.0542 H       1  LIG1        0.0660
     25 H          -2.2564    4.7163    0.8230 H       1  LIG1        0.0660
     26 H          -2.6877    6.4217    1.1563 H       1  LIG1        0.0660
     27 C          -0.8228    8.9948   -0.4735 C.3     1  LIG1       -0.0332
     28 H          -1.6169    9.0987    0.2746 H       1  LIG1        0.0280
     29 H          -1.3090    8.9737   -1.4542 H       1  LIG1        0.0280
     30 H          -0.1954    9.8887   -0.4222 H       1  LIG1        0.0280
@<TRIPOS>BOND
     1    29    27    1
     2    11     8    1
     3    22    17    1
     4    22    23    1
     5    27    30    1
     6    27    18    1
     7    27    28    1
     8    14    12    1
     9    17    18   ar
    10    17    16   ar
    11     6     1    1
    12    18    19   ar
    13     5     1   ar
    14     5     4   ar
    15     1     2   ar
    16    16     4    1
    17    16    20   ar
    18    24    23    1
    19     4     3   ar
    20     8     9    1
    21     8     7    1
    22     8    10    1
    23     2     3   ar
    24     2     7    1
    25    19    20   ar
    26    19    21    1
    27     3    12    1
    28    13    12    1
    29    12    15    1
    30    23    25    1
    31    23    26    1
