@<TRIPOS>MOLECULE
mol_data/opt/b3lyp/geoms/mol2/12li12li-12li12li.out
 58 61 0 0 0
SMALL
GASTEIGER

@<TRIPOS>ATOM
      1 C          -0.1767    1.9912   -0.3989 C.ar    1  LIG1        0.1345
      2 C           1.1818    1.8490   -0.3622 C.ar    1  LIG1        0.1612
      3 C           1.7646    3.1585   -0.2771 C.ar    1  LIG1        0.0402
      4 C           0.6905    4.0211   -0.2597 C.ar    1  LIG1        0.1799
      5 O          -0.4899    3.3261   -0.3343 O.2     1  LIG1       -0.4557
      6 H          -1.0078    1.3100   -0.4609 H       1  LIG1        0.1068
      7 O           1.9485    0.7300   -0.4000 O.3     1  LIG1       -0.4917
      8 C           1.2291   -0.4911   -0.4935 C.3     1  LIG1        0.0789
      9 H           1.9703   -1.2910   -0.5144 H       1  LIG1        0.0660
     10 H           0.5678   -0.6270    0.3727 H       1  LIG1        0.0660
     11 H           0.6267   -0.5258   -1.4112 H       1  LIG1        0.0660
     12 C           3.2357    3.4359   -0.2333 C.3     1  LIG1       -0.0325
     13 H           3.4496    4.5029   -0.2888 H       1  LIG1        0.0280
     14 H           3.7446    2.9319   -1.0624 H       1  LIG1        0.0280
     15 H           3.6802    3.0437    0.6899 H       1  LIG1        0.0280
     16 C           0.5727    5.4509   -0.1803 C.ar    1  LIG1        0.2126
     17 C          -0.4766    6.3452   -0.2754 C.ar    1  LIG1        0.1723
     18 C           0.0453    7.6627   -0.0774 C.ar    1  LIG1        0.0410
     19 C           1.3985    7.4921    0.1216 C.ar    1  LIG1        0.1809
     20 O           1.7234    6.1580    0.0593 O.2     1  LIG1       -0.4444
     21 O          -1.8044    6.0901   -0.4543 O.3     1  LIG1       -0.4909
     22 C          -2.1764    5.6238   -1.7554 C.3     1  LIG1        0.0790
     23 H          -3.2664    5.5601   -1.7544 H       1  LIG1        0.0660
     24 H          -1.8544    6.3275   -2.5331 H       1  LIG1        0.0660
     25 H          -1.7550    4.6347   -1.9569 H       1  LIG1        0.0660
     26 C          -0.7715    8.9182   -0.0821 C.3     1  LIG1       -0.0325
     27 H          -1.7181    8.7521    0.4404 H       1  LIG1        0.0280
     28 H          -1.0232    9.2245   -1.1056 H       1  LIG1        0.0280
     29 H          -0.2430    9.7469    0.3900 H       1  LIG1        0.0280
     30 C           2.4885    8.3856    0.3756 C.ar    1  LIG1        0.2127
     31 C           3.8151    8.2085    0.7206 C.ar    1  LIG1        0.1723
     32 C           4.4216    9.4990    0.8254 C.ar    1  LIG1        0.0410
     33 C           3.4157   10.3960    0.5383 C.ar    1  LIG1        0.1809
     34 O           2.2453    9.7309    0.2636 O.2     1  LIG1       -0.4444
     35 O           4.4815    7.0300    0.9021 O.3     1  LIG1       -0.4909
     36 C           4.2377    6.3953    2.1638 C.3     1  LIG1        0.0790
     37 H           4.8816    5.5143    2.1922 H       1  LIG1        0.0660
     38 H           4.4936    7.0629    2.9955 H       1  LIG1        0.0660
     39 H           3.1920    6.0837    2.2520 H       1  LIG1        0.0660
     40 C           5.8554    9.7589    1.1724 C.3     1  LIG1       -0.0325
     41 H           6.3212   10.4524    0.4669 H       1  LIG1        0.0280
     42 H           6.4099    8.8175    1.1557 H       1  LIG1        0.0280
     43 H           5.9584   10.2003    2.1700 H       1  LIG1        0.0280
     44 C           3.3613   11.8274    0.4862 C.ar    1  LIG1        0.2116
     45 C           2.3825   12.7440    0.1582 C.ar    1  LIG1        0.1716
     46 C           2.9376   14.0552    0.3495 C.ar    1  LIG1        0.0297
     47 C           4.2133   13.8427    0.7769 C.ar    1  LIG1        0.0993
     48 O           4.4922   12.5072    0.8629 O.2     1  LIG1       -0.4557
     49 H           5.0188   14.5065    1.0505 H       1  LIG1        0.1033
     50 O           1.0954   12.5056   -0.2338 O.3     1  LIG1       -0.4909
     51 C           0.9505   12.0740   -1.5921 C.3     1  LIG1        0.0790
     52 H          -0.1232   12.0044   -1.7777 H       1  LIG1        0.0660
     53 H           1.3941   12.7986   -2.2860 H       1  LIG1        0.0660
     54 H           1.4097   11.0923   -1.7452 H       1  LIG1        0.0660
     55 C           2.2291   15.3557    0.1311 C.3     1  LIG1       -0.0332
     56 H           2.8661   16.2024    0.4004 H       1  LIG1        0.0280
     57 H           1.3158   15.4106    0.7324 H       1  LIG1        0.0280
     58 H           1.9303   15.4791   -0.9157 H       1  LIG1        0.0280
@<TRIPOS>BOND
     1    24    22    1
     2    53    51    1
     3    25    22    1
     4    52    51    1
     5    22    23    1
     6    22    21    1
     7    54    51    1
     8    51    50    1
     9    11     8    1
    10    28    26    1
    11    14    12    1
    12    58    55    1
    13     9     8    1
    14     8     7    1
    15     8    10    1
    16     6     1    1
    17    21    17    1
    18     7     2    1
    19     1     2   ar
    20     1     5   ar
    21     2     3   ar
    22     5     4   ar
    23    13    12    1
    24     3     4   ar
    25     3    12    1
    26    17    16   ar
    27    17    18   ar
    28     4    16    1
    29    50    45    1
    30    12    15    1
    31    16    20   ar
    32    26    18    1
    33    26    29    1
    34    26    27    1
    35    18    19   ar
    36    20    19   ar
    37    19    30    1
    38    55    46    1
    39    55    56    1
    40    55    57    1
    41    45    46   ar
    42    45    44   ar
    43    34    30   ar
    44    34    33   ar
    45    46    47   ar
    46    30    31   ar
    47    41    40    1
    48    44    33    1
    49    44    48   ar
    50    33    32   ar
    51    31    32   ar
    52    31    35    1
    53    47    48   ar
    54    47    49    1
    55    32    40    1
    56    35    36    1
    57    42    40    1
    58    40    43    1
    59    36    37    1
    60    36    39    1
    61    36    38    1
