@<TRIPOS>MOLECULE
mol_data/opt/b3lyp/geoms/mol2/12li12li12li12li.out
 58 61 0 0 0
SMALL
GASTEIGER

@<TRIPOS>ATOM
      1 C           3.4485    3.5362   -2.0351 C.ar    1  LIG1        0.1345
      2 C           2.6531    3.5804   -3.1452 C.ar    1  LIG1        0.1612
      3 C           1.3758    4.1093   -2.7572 C.ar    1  LIG1        0.0402
      4 C           1.4946    4.3614   -1.4080 C.ar    1  LIG1        0.1799
      5 O           2.7445    4.0171   -0.9594 O.2     1  LIG1       -0.4557
      6 H           4.4596    3.2225   -1.8403 H       1  LIG1        0.1068
      7 O           2.9120    3.2133   -4.4257 O.3     1  LIG1       -0.4917
      8 C           4.2164    2.6996   -4.6538 C.3     1  LIG1        0.0789
      9 H           4.2744    2.4508   -5.7141 H       1  LIG1        0.0660
     10 H           4.9832    3.4470   -4.4103 H       1  LIG1        0.0660
     11 H           4.3957    1.7964   -4.0553 H       1  LIG1        0.0660
     12 C           0.2151    4.3008   -3.6840 C.3     1  LIG1       -0.0325
     13 H           0.4413    5.0612   -4.4418 H       1  LIG1        0.0280
     14 H          -0.6843    4.6072   -3.1505 H       1  LIG1        0.0280
     15 H           0.0025    3.3734   -4.2273 H       1  LIG1        0.0280
     16 C           0.5986    4.8955   -0.4198 C.ar    1  LIG1        0.2126
     17 C           0.6482    5.0518    0.9524 C.ar    1  LIG1        0.1723
     18 C          -0.5632    5.6890    1.3694 C.ar    1  LIG1        0.0410
     19 C          -1.2911    5.8786    0.2144 C.ar    1  LIG1        0.1809
     20 O          -0.5948    5.4000   -0.8699 O.2     1  LIG1       -0.4444
     21 O           1.6607    4.7438    1.8127 O.3     1  LIG1       -0.4909
     22 C           1.8847    3.3475    2.0327 C.3     1  LIG1        0.0790
     23 H           2.6542    3.2818    2.8047 H       1  LIG1        0.0660
     24 H           0.9718    2.8529    2.3870 H       1  LIG1        0.0660
     25 H           2.2404    2.8553    1.1229 H       1  LIG1        0.0660
     26 C          -0.8957    6.0579    2.7824 C.3     1  LIG1       -0.0325
     27 H          -1.7006    6.7920    2.8306 H       1  LIG1        0.0280
     28 H          -0.0110    6.4624    3.2830 H       1  LIG1        0.0280
     29 H          -1.2123    5.1790    3.3584 H       1  LIG1        0.0280
     30 C          -2.5700    6.4548   -0.0741 C.ar    1  LIG1        0.2127
     31 C          -3.2358    6.7800   -1.2408 C.ar    1  LIG1        0.1723
     32 C          -4.5100    7.3236   -0.8869 C.ar    1  LIG1        0.0410
     33 C          -4.5435    7.3003    0.4905 C.ar    1  LIG1        0.1809
     34 O          -3.3758    6.7750    0.9888 O.2     1  LIG1       -0.4444
     35 O          -2.8090    6.5976   -2.5255 O.3     1  LIG1       -0.4909
     36 C          -1.8648    7.5732   -2.9845 C.3     1  LIG1        0.0790
     37 H          -1.6729    7.3427   -4.0341 H       1  LIG1        0.0660
     38 H          -2.2750    8.5869   -2.9012 H       1  LIG1        0.0660
     39 H          -0.9280    7.5094   -2.4217 H       1  LIG1        0.0660
     40 C          -5.5511    7.7967   -1.8545 C.3     1  LIG1       -0.0325
     41 H          -5.6576    8.8870   -1.8357 H       1  LIG1        0.0280
     42 H          -6.5341    7.3760   -1.6259 H       1  LIG1        0.0280
     43 H          -5.2691    7.4977   -2.8669 H       1  LIG1        0.0280
     44 C          -5.5186    7.7130    1.4566 C.ar    1  LIG1        0.2116
     45 C          -5.5947    7.6584    2.8339 C.ar    1  LIG1        0.1716
     46 C          -6.8258    8.2883    3.2234 C.ar    1  LIG1        0.0297
     47 C          -7.4109    8.6780    2.0568 C.ar    1  LIG1        0.0993
     48 O          -6.6428    8.3380    0.9783 O.2     1  LIG1       -0.4557
     49 H          -8.3352    9.1864    1.8300 H       1  LIG1        0.1033
     50 O          -4.6784    7.1555    3.7139 O.3     1  LIG1       -0.4909
     51 C          -4.6471    5.7258    3.7983 C.3     1  LIG1        0.0790
     52 H          -3.9343    5.4818    4.5884 H       1  LIG1        0.0660
     53 H          -5.6337    5.3241    4.0607 H       1  LIG1        0.0660
     54 H          -4.3104    5.2822    2.8559 H       1  LIG1        0.0660
     55 C          -7.3195    8.4735    4.6244 C.3     1  LIG1       -0.0332
     56 H          -8.2597    9.0310    4.6413 H       1  LIG1        0.0280
     57 H          -6.5880    9.0191    5.2292 H       1  LIG1        0.0280
     58 H          -7.4901    7.5115    5.1204 H       1  LIG1        0.0280
@<TRIPOS>BOND
     1     9     8    1
     2     8     7    1
     3     8    10    1
     4     8    11    1
     5    13    12    1
     6     7     2    1
     7    15    12    1
     8    37    36    1
     9    12    14    1
    10    12     3    1
    11     2     3   ar
    12     2     1   ar
    13    36    38    1
    14    36    35    1
    15    36    39    1
    16    43    40    1
    17     3     4   ar
    18    35    31    1
    19     1     6    1
    20     1     5   ar
    21    40    41    1
    22    40    42    1
    23    40    32    1
    24     4     5   ar
    25     4    16    1
    26    31    32   ar
    27    31    30   ar
    28    32    33   ar
    29    20    16   ar
    30    20    19   ar
    31    16    17   ar
    32    30    19    1
    33    30    34   ar
    34    19    18   ar
    35    33    34   ar
    36    33    44    1
    37    17    18   ar
    38    17    21    1
    39    48    44   ar
    40    48    47   ar
    41    25    22    1
    42    18    26    1
    43    44    45   ar
    44    21    22    1
    45    49    47    1
    46    22    24    1
    47    22    23    1
    48    47    46   ar
    49    26    27    1
    50    26    28    1
    51    26    29    1
    52    45    46   ar
    53    45    50    1
    54    54    51    1
    55    46    55    1
    56    50    51    1
    57    51    53    1
    58    51    52    1
    59    55    56    1
    60    55    58    1
    61    55    57    1
