@<TRIPOS>MOLECULE
mol_data/opt/b3lyp/geoms/mol2/12li12li-12li-12li-.out
 58 61 0 0 0
SMALL
GASTEIGER

@<TRIPOS>ATOM
      1 C          -0.1510    2.1949   -0.7393 C.ar    1  LIG1        0.1345
      2 C           1.2118    2.0984   -0.7641 C.ar    1  LIG1        0.1612
      3 C           1.7552    3.4060   -0.5265 C.ar    1  LIG1        0.0402
      4 C           0.6555    4.2212   -0.3751 C.ar    1  LIG1        0.1799
      5 O          -0.5040    3.4993   -0.5010 O.2     1  LIG1       -0.4557
      6 H          -0.9615    1.4978   -0.8652 H       1  LIG1        0.1068
      7 O           2.0117    1.0204   -0.9638 O.3     1  LIG1       -0.4917
      8 C           1.3285   -0.2052   -1.1822 C.3     1  LIG1        0.0789
      9 H           2.0933   -0.9699   -1.3235 H       1  LIG1        0.0660
     10 H           0.7027   -0.4685   -0.3188 H       1  LIG1        0.0660
     11 H           0.6953   -0.1507   -2.0780 H       1  LIG1        0.0660
     12 C           3.2172    3.7264   -0.4704 C.3     1  LIG1       -0.0325
     13 H           3.3905    4.7663   -0.1961 H       1  LIG1        0.0280
     14 H           3.6946    3.5401   -1.4399 H       1  LIG1        0.0280
     15 H           3.7234    3.0829    0.2578 H       1  LIG1        0.0280
     16 C           0.4938    5.6279   -0.1267 C.ar    1  LIG1        0.2126
     17 C          -0.5954    6.4583    0.0533 C.ar    1  LIG1        0.1723
     18 C          -0.1072    7.7904    0.2431 C.ar    1  LIG1        0.0410
     19 C           1.2640    7.6936    0.1531 C.ar    1  LIG1        0.1809
     20 O           1.6308    6.3848   -0.0643 O.2     1  LIG1       -0.4444
     21 O          -1.9230    6.1444    0.0221 O.3     1  LIG1       -0.4909
     22 C          -2.4155    5.4356    1.1641 C.3     1  LIG1        0.0790
     23 H          -3.4944    5.3436    1.0226 H       1  LIG1        0.0660
     24 H          -1.9714    4.4381    1.2315 H       1  LIG1        0.0660
     25 H          -2.2169    5.9907    2.0892 H       1  LIG1        0.0660
     26 C          -0.9745    8.9768    0.5310 C.3     1  LIG1       -0.0325
     27 H          -1.3874    8.9208    1.5457 H       1  LIG1        0.0280
     28 H          -1.8268    8.9986   -0.1555 H       1  LIG1        0.0280
     29 H          -0.4207    9.9113    0.4389 H       1  LIG1        0.0280
     30 C           2.3566    8.6275    0.2404 C.ar    1  LIG1        0.2127
     31 C           2.4980    9.9808    0.0150 C.ar    1  LIG1        0.1723
     32 C           3.8527   10.3420    0.2994 C.ar    1  LIG1        0.0410
     33 C           4.4691    9.1638    0.6574 C.ar    1  LIG1        0.1809
     34 O           3.5716    8.1250    0.6265 O.2     1  LIG1       -0.4444
     35 O           1.5166   10.8589   -0.3639 O.3     1  LIG1       -0.4909
     36 C           1.4139   11.0477   -1.7801 C.3     1  LIG1        0.0790
     37 H           0.6084   11.7673   -1.9387 H       1  LIG1        0.0660
     38 H           2.3466   11.4483   -2.1952 H       1  LIG1        0.0660
     39 H           1.1700   10.1064   -2.2859 H       1  LIG1        0.0660
     40 C           4.4119   11.7304    0.2645 C.3     1  LIG1       -0.0325
     41 H           3.6157   12.4530    0.4651 H       1  LIG1        0.0280
     42 H           4.8471   11.9798   -0.7104 H       1  LIG1        0.0280
     43 H           5.2025   11.8568    1.0071 H       1  LIG1        0.0280
     44 C           5.8161    8.8469    1.0549 C.ar    1  LIG1        0.2116
     45 C           7.0467    9.3835    0.7445 C.ar    1  LIG1        0.1716
     46 C           8.0396    8.6642    1.4924 C.ar    1  LIG1        0.0297
     47 C           7.3370    7.7309    2.1947 C.ar    1  LIG1        0.0993
     48 O           5.9996    7.8198    1.9464 O.2     1  LIG1       -0.4557
     49 H           7.6340    6.9565    2.8856 H       1  LIG1        0.1033
     50 O           7.3183   10.4183   -0.1110 O.3     1  LIG1       -0.4909
     51 C           7.2307   10.0756   -1.4983 C.3     1  LIG1        0.0790
     52 H           7.5063   10.9733   -2.0555 H       1  LIG1        0.0660
     53 H           7.9232    9.2632   -1.7508 H       1  LIG1        0.0660
     54 H           6.2128    9.7738   -1.7703 H       1  LIG1        0.0660
     55 C           9.5164    8.9102    1.4791 C.3     1  LIG1       -0.0332
     56 H           9.7489    9.9351    1.7868 H       1  LIG1        0.0280
     57 H           9.9375    8.7743    0.4768 H       1  LIG1        0.0280
     58 H          10.0355    8.2264    2.1560 H       1  LIG1        0.0280
@<TRIPOS>BOND
     1    39    36    1
     2    38    36    1
     3    11     8    1
     4    52    51    1
     5    37    36    1
     6    36    35    1
     7    54    51    1
     8    53    51    1
     9    51    50    1
    10    14    12    1
    11     9     8    1
    12     8     7    1
    13     8    10    1
    14     7     2    1
    15     6     1    1
    16     2     1   ar
    17     2     3   ar
    18     1     5   ar
    19    42    40    1
    20     3    12    1
    21     3     4   ar
    22     5     4   ar
    23    12    13    1
    24    12    15    1
    25     4    16    1
    26    35    31    1
    27    28    26    1
    28    16    20   ar
    29    16    17   ar
    30    50    45    1
    31    20    19   ar
    32    31    30   ar
    33    31    32   ar
    34    21    17    1
    35    21    22    1
    36    17    18   ar
    37    19    30    1
    38    19    18   ar
    39    30    34   ar
    40    18    26    1
    41    40    32    1
    42    40    41    1
    43    40    43    1
    44    32    33   ar
    45    29    26    1
    46    57    55    1
    47    26    27    1
    48    34    33   ar
    49    33    44    1
    50    45    44   ar
    51    45    46   ar
    52    23    22    1
    53    44    48   ar
    54    22    24    1
    55    22    25    1
    56    55    46    1
    57    55    56    1
    58    55    58    1
    59    46    47   ar
    60    48    47   ar
    61    47    49    1
