@<TRIPOS>MOLECULE
mol_data/opt/b3lyp/geoms/mol2/12ll12ll12ll12ll.out
 62 65 0 0 0
SMALL
GASTEIGER

@<TRIPOS>ATOM
      1 C          -0.5478    2.1045    0.0040 C.ar    1  LIG1        0.1381
      2 C           0.7352    1.6418    0.0024 C.ar    1  LIG1        0.2004
      3 C           1.5889    2.8025    0.0006 C.ar    1  LIG1        0.2111
      4 C           0.7542    3.9111    0.0014 C.ar    1  LIG1        0.2186
      5 O          -0.5471    3.4607    0.0035 O.2     1  LIG1       -0.4521
      6 H          -1.5122    1.6262    0.0056 H       1  LIG1        0.1069
      7 O           1.1908    0.3564    0.0023 O.3     1  LIG1       -0.4888
      8 C           0.1719   -0.6345    0.0041 C.3     1  LIG1        0.0791
      9 H           0.6775   -1.6009    0.0038 H       1  LIG1        0.0660
     10 H          -0.4587   -0.5501    0.8989 H       1  LIG1        0.0660
     11 H          -0.4612   -0.5509   -0.8889 H       1  LIG1        0.0660
     12 O           2.9482    2.8535   -0.0015 O.3     1  LIG1       -0.4883
     13 C           3.6943    1.6367   -0.0032 C.3     1  LIG1        0.0791
     14 H           4.7425    1.9421   -0.0050 H       1  LIG1        0.0660
     15 H           3.4872    1.0361    0.8870 H       1  LIG1        0.0660
     16 H           3.4840    1.0366   -0.8929 H       1  LIG1        0.0660
     17 C           0.8228    5.3675    0.0007 C.ar    1  LIG1        0.2196
     18 C           1.7128    6.4375   -0.0002 C.ar    1  LIG1        0.2119
     19 C           0.9215    7.6406   -0.0005 C.ar    1  LIG1        0.2119
     20 C          -0.4079    7.2656    0.0003 C.ar    1  LIG1        0.2197
     21 O          -0.4454    5.8984    0.0010 O.2     1  LIG1       -0.4407
     22 O           3.0637    6.5864   -0.0004 O.3     1  LIG1       -0.4883
     23 C           3.9413    5.4743   -0.0004 C.3     1  LIG1        0.0791
     24 H           4.9478    5.8989   -0.0003 H       1  LIG1        0.0660
     25 H           3.8013    4.8516    0.8868 H       1  LIG1        0.0660
     26 H           3.8013    4.8516   -0.8875 H       1  LIG1        0.0660
     27 O           1.3380    8.9351   -0.0014 O.3     1  LIG1       -0.4883
     28 C           2.7201    9.2896   -0.0054 C.3     1  LIG1        0.0791
     29 H           2.7272   10.3822   -0.0065 H       1  LIG1        0.0660
     30 H           3.2375    8.9204    0.8835 H       1  LIG1        0.0660
     31 H           3.2328    8.9188   -0.8962 H       1  LIG1        0.0660
     32 C          -1.7395    7.8526    0.0007 C.ar    1  LIG1        0.2197
     33 C          -2.4172    9.0698    0.0016 C.ar    1  LIG1        0.2119
     34 C          -3.8247    8.7648    0.0010 C.ar    1  LIG1        0.2119
     35 C          -3.9544    7.3907   -0.0002 C.ar    1  LIG1        0.2196
     36 O          -2.6935    6.8616   -0.0003 O.2     1  LIG1       -0.4407
     37 O          -2.0749   10.3850    0.0034 O.3     1  LIG1       -0.4883
     38 C          -0.7276   10.8223    0.0041 C.3     1  LIG1        0.0791
     39 H          -0.7787   11.9136    0.0062 H       1  LIG1        0.0660
     40 H          -0.1917   10.4734    0.8904 H       1  LIG1        0.0660
     41 H          -0.1920   10.4767   -0.8836 H       1  LIG1        0.0660
     42 O          -4.8833    9.6190    0.0014 O.3     1  LIG1       -0.4883
     43 C          -4.7187   11.0360    0.0004 C.3     1  LIG1        0.0791
     44 H          -5.7362   11.4342    0.0001 H       1  LIG1        0.0660
     45 H          -4.1887   11.3851    0.8900 H       1  LIG1        0.0660
     46 H          -4.1886   11.3839   -0.8896 H       1  LIG1        0.0660
     47 C          -4.9846    6.3595   -0.0014 C.ar    1  LIG1        0.2186
     48 C          -6.3696    6.1711   -0.0013 C.ar    1  LIG1        0.2111
     49 C          -6.5931    4.7422   -0.0034 C.ar    1  LIG1        0.2004
     50 C          -5.3643    4.1613   -0.0044 C.ar    1  LIG1        0.1381
     51 O          -4.3980    5.1085   -0.0032 O.2     1  LIG1       -0.4521
     52 H          -5.0457    3.1323   -0.0059 H       1  LIG1        0.1069
     53 O          -7.4726    6.9654    0.0003 O.3     1  LIG1       -0.4883
     54 C          -7.3943    8.3795    0.0022 C.3     1  LIG1        0.0791
     55 H          -8.4304    8.7260    0.0034 H       1  LIG1        0.0660
     56 H          -6.8761    8.7528    0.8892 H       1  LIG1        0.0660
     57 H          -6.8773    8.7553   -0.8845 H       1  LIG1        0.0660
     58 O          -7.7396    4.0077   -0.0041 O.3     1  LIG1       -0.4888
     59 C          -9.0141    4.6446   -0.0044 C.3     1  LIG1        0.0791
     60 H          -9.7390    3.8276   -0.0056 H       1  LIG1        0.0660
     61 H          -9.1622    5.2634    0.8855 H       1  LIG1        0.0660
     62 H          -9.1610    5.2648   -0.8936 H       1  LIG1        0.0660
@<TRIPOS>BOND
     1    31    28    1
     2    62    59    1
     3    16    13    1
     4    46    43    1
     5    11     8    1
     6    26    23    1
     7    57    54    1
     8    41    38    1
     9    29    28    1
    10    52    50    1
    11    60    59    1
    12    28    27    1
    13    28    30    1
    14    14    13    1
    15    59    58    1
    16    59    61    1
    17    50    49   ar
    18    50    51   ar
    19    58    49    1
    20    49    48   ar
    21    51    47   ar
    22    13    12    1
    23    13    15    1
    24    12     3    1
    25    27    19    1
    26    47    48   ar
    27    47    35    1
    28    48    53    1
    29    19    18   ar
    30    19    20   ar
    31    22    23    1
    32    22    18    1
    33    23    24    1
    34    23    25    1
    35    36    35   ar
    36    36    32   ar
    37    35    34   ar
    38    18    17   ar
    39    44    43    1
    40    53    54    1
    41    20    32    1
    42    20    21   ar
    43    43    42    1
    44    43    45    1
    45     3     4   ar
    46     3     2   ar
    47    17    21   ar
    48    17     4    1
    49    32    33   ar
    50    34    42    1
    51    34    33   ar
    52     4     5   ar
    53    33    37    1
    54    54    55    1
    55    54    56    1
    56     7     2    1
    57     7     8    1
    58     2     1   ar
    59    37    38    1
    60     5     1   ar
    61     9     8    1
    62     1     6    1
    63     8    10    1
    64    38    39    1
    65    38    40    1
