@<TRIPOS>MOLECULE
mol_data/opt/b3lyp/geoms/mol2/12ll12ll12ll.out
 47 49 0 0 0
SMALL
GASTEIGER

@<TRIPOS>ATOM
      1 C          -0.1274    1.8659    0.0002 C.ar    1  LIG1        0.1381
      2 C           1.1948    1.5319    0.0001 C.ar    1  LIG1        0.2004
      3 C           1.9304    2.7711    0.0000 C.ar    1  LIG1        0.2111
      4 C           0.9917    3.7924    0.0001 C.ar    1  LIG1        0.2186
      5 O          -0.2599    3.2165    0.0002 O.2     1  LIG1       -0.4521
      6 H          -1.0403    1.2952    0.0002 H       1  LIG1        0.1069
      7 O           1.7748    0.2981    0.0001 O.3     1  LIG1       -0.4888
      8 C           0.8589   -0.7886    0.0001 C.3     1  LIG1        0.0791
      9 H           1.4575   -1.7003    0.0001 H       1  LIG1        0.0660
     10 H           0.2219   -0.7675    0.8941 H       1  LIG1        0.0660
     11 H           0.2218   -0.7675   -0.8938 H       1  LIG1        0.0660
     12 O           3.2778    2.9562   -0.0000 O.3     1  LIG1       -0.4883
     13 C           4.1422    1.8202   -0.0006 C.3     1  LIG1        0.0791
     14 H           5.1545    2.2292   -0.0007 H       1  LIG1        0.0660
     15 H           3.9952    1.2017    0.8892 H       1  LIG1        0.0660
     16 H           3.9948    1.2023   -0.8908 H       1  LIG1        0.0660
     17 C           0.9184    5.2488    0.0001 C.ar    1  LIG1        0.2196
     18 C           1.6985    6.4008    0.0002 C.ar    1  LIG1        0.2119
     19 C           0.7919    7.5211    0.0001 C.ar    1  LIG1        0.2119
     20 C          -0.4928    7.0177    0.0001 C.ar    1  LIG1        0.2196
     21 O          -0.3963    5.6532    0.0001 O.2     1  LIG1       -0.4407
     22 O           3.0279    6.6818    0.0004 O.3     1  LIG1       -0.4883
     23 C           4.0122    5.6631    0.0004 C.3     1  LIG1        0.0791
     24 H           4.9710    6.1864    0.0005 H       1  LIG1        0.0660
     25 H           3.9354    5.0295    0.8876 H       1  LIG1        0.0660
     26 H           3.9355    5.0297   -0.8870 H       1  LIG1        0.0660
     27 O           1.0792    8.8502    0.0002 O.3     1  LIG1       -0.4883
     28 C           2.4198    9.3386   -0.0005 C.3     1  LIG1        0.0791
     29 H           2.3196   10.4266   -0.0007 H       1  LIG1        0.0660
     30 H           2.9691    9.0211    0.8891 H       1  LIG1        0.0660
     31 H           2.9682    9.0208   -0.8907 H       1  LIG1        0.0660
     32 C          -1.8789    7.4696   -0.0000 C.ar    1  LIG1        0.2186
     33 C          -2.6735    8.6189    0.0000 C.ar    1  LIG1        0.2111
     34 C          -4.0492    8.1717   -0.0002 C.ar    1  LIG1        0.2004
     35 C          -4.0117    6.8130   -0.0003 C.ar    1  LIG1        0.1381
     36 O          -2.7290    6.3799   -0.0002 O.2     1  LIG1       -0.4521
     37 H          -4.7848    6.0628   -0.0004 H       1  LIG1        0.1069
     38 O          -2.4631    9.9614    0.0002 O.3     1  LIG1       -0.4883
     39 C          -1.1656   10.5292    0.0002 C.3     1  LIG1        0.0791
     40 H          -1.3234   11.6102    0.0003 H       1  LIG1        0.0660
     41 H          -0.5982   10.2362    0.8872 H       1  LIG1        0.0660
     42 H          -0.5982   10.2362   -0.8869 H       1  LIG1        0.0660
     43 O          -5.2221    8.8621   -0.0002 O.3     1  LIG1       -0.4888
     44 C          -5.2309   10.2870   -0.0007 C.3     1  LIG1        0.0791
     45 H          -6.2875   10.5633   -0.0008 H       1  LIG1        0.0660
     46 H          -4.7455   10.6991    0.8888 H       1  LIG1        0.0660
     47 H          -4.7455   10.6984   -0.8906 H       1  LIG1        0.0660
@<TRIPOS>BOND
     1    11     8    1
     2    16    13    1
     3    31    28    1
     4    47    44    1
     5    26    23    1
     6    42    39    1
     7    45    44    1
     8    14    13    1
     9    44    43    1
    10    44    46    1
    11    29    28    1
    12    13    12    1
    13    13    15    1
    14    28    27    1
    15    28    30    1
    16    37    35    1
    17    35    36   ar
    18    35    34   ar
    19    36    32   ar
    20    43    34    1
    21    34    33   ar
    22    12     3    1
    23    32    33   ar
    24    32    20    1
    25    33    38    1
    26     3     2   ar
    27     3     4   ar
    28    20    21   ar
    29    20    19   ar
    30    21    17   ar
    31     9     8    1
    32     7     2    1
    33     7     8    1
    34     2     1   ar
    35     8    10    1
    36     4    17    1
    37     4     5   ar
    38    17    18   ar
    39    19    27    1
    40    19    18   ar
    41     1     5   ar
    42     1     6    1
    43    38    39    1
    44    39    40    1
    45    39    41    1
    46    18    22    1
    47    23    22    1
    48    23    24    1
    49    23    25    1
