@<TRIPOS>MOLECULE
mol_data/opt/b3lyp/geoms/mol2/12ll12ll-12ll12ll-.out
 62 65 0 0 0
SMALL
GASTEIGER

@<TRIPOS>ATOM
      1 C          -0.2113    1.9953   -0.8031 C.ar    1  LIG1        0.1381
      2 C           1.1518    1.8994   -0.7700 C.ar    1  LIG1        0.2004
      3 C           1.6416    3.1721   -0.3143 C.ar    1  LIG1        0.2111
      4 C           0.5326    3.9613   -0.1096 C.ar    1  LIG1        0.2186
      5 O          -0.5976    3.2471   -0.3970 O.2     1  LIG1       -0.4521
      6 H          -1.0050    1.3151   -1.0603 H       1  LIG1        0.1069
      7 O           1.9765    0.8660   -1.0750 O.3     1  LIG1       -0.4888
      8 C           1.3181   -0.3268   -1.4822 C.3     1  LIG1        0.0791
      9 H           2.0987   -1.0610   -1.6839 H       1  LIG1        0.0660
     10 H           0.6580   -0.7011   -0.6889 H       1  LIG1        0.0660
     11 H           0.7265   -0.1601   -2.3921 H       1  LIG1        0.0660
     12 O           2.9354    3.5027   -0.0447 O.3     1  LIG1       -0.4883
     13 C           3.7927    3.5431   -1.1931 C.3     1  LIG1        0.0791
     14 H           4.7878    3.7942   -0.8217 H       1  LIG1        0.0660
     15 H           3.8225    2.5712   -1.6958 H       1  LIG1        0.0660
     16 H           3.4606    4.3145   -1.8979 H       1  LIG1        0.0660
     17 C           0.3745    5.3182    0.3328 C.ar    1  LIG1        0.2196
     18 C          -0.6860    6.0268    0.8465 C.ar    1  LIG1        0.2119
     19 C          -0.1947    7.3395    1.1598 C.ar    1  LIG1        0.2119
     20 C           1.1425    7.3623    0.8101 C.ar    1  LIG1        0.2197
     21 O           1.4818    6.1179    0.2995 O.2     1  LIG1       -0.4407
     22 O          -1.9232    5.5353    1.1179 O.3     1  LIG1       -0.4883
     23 C          -2.9957    6.1820    0.4230 C.3     1  LIG1        0.0791
     24 H          -3.9119    5.6916    0.7571 H       1  LIG1        0.0660
     25 H          -3.0390    7.2482    0.6653 H       1  LIG1        0.0660
     26 H          -2.8890    6.0541   -0.6612 H       1  LIG1        0.0660
     27 O          -1.0172    8.2526    1.7242 O.3     1  LIG1       -0.4883
     28 C          -0.4408    9.3886    2.3791 C.3     1  LIG1        0.0791
     29 H          -1.2503    9.8326    2.9606 H       1  LIG1        0.0660
     30 H           0.3645    9.0790    3.0544 H       1  LIG1        0.0660
     31 H          -0.0591   10.1136    1.6566 H       1  LIG1        0.0660
     32 C           2.1799    8.3620    0.7862 C.ar    1  LIG1        0.2197
     33 C           3.5301    8.3867    1.0815 C.ar    1  LIG1        0.2119
     34 C           4.0083    9.6973    0.7406 C.ar    1  LIG1        0.2119
     35 C           2.9280   10.4030    0.2659 C.ar    1  LIG1        0.2196
     36 O           1.8202    9.6035    0.2822 O.2     1  LIG1       -0.4407
     37 O           4.3747    7.4768    1.6177 O.3     1  LIG1       -0.4883
     38 C           3.8251    6.3454    2.3029 C.3     1  LIG1        0.0791
     39 H           4.6575    5.9049    2.8541 H       1  LIG1        0.0660
     40 H           3.0478    6.6597    3.0082 H       1  LIG1        0.0660
     41 H           3.4144    5.6157    1.6013 H       1  LIG1        0.0660
     42 O           5.2555   10.1902    0.9587 O.3     1  LIG1       -0.4883
     43 C           6.2991    9.5388    0.2252 C.3     1  LIG1        0.0791
     44 H           7.2280   10.0312    0.5188 H       1  LIG1        0.0660
     45 H           6.3522    8.4742    0.4723 H       1  LIG1        0.0660
     46 H           6.1486    9.6599   -0.8546 H       1  LIG1        0.0660
     47 C           2.7521   11.7573   -0.1780 C.ar    1  LIG1        0.2186
     48 C           1.6356   12.5452   -0.3433 C.ar    1  LIG1        0.2111
     49 C           2.1066   13.8151   -0.8257 C.ar    1  LIG1        0.2004
     50 C           3.4673   13.7190   -0.9122 C.ar    1  LIG1        0.1381
     51 O           3.8698   12.4698   -0.5144 O.2     1  LIG1       -0.4521
     52 H           4.2501   14.3977   -1.2049 H       1  LIG1        0.1069
     53 O           0.3536   12.2163   -0.0205 O.3     1  LIG1       -0.4883
     54 C          -0.5485   12.1688   -1.1337 C.3     1  LIG1        0.0791
     55 H          -1.5280   11.9200   -0.7217 H       1  LIG1        0.0660
     56 H          -0.5985   13.1377   -1.6409 H       1  LIG1        0.0660
     57 H          -0.2445   11.3932   -1.8464 H       1  LIG1        0.0660
     58 O           1.2702   14.8467   -1.1039 O.3     1  LIG1       -0.4888
     59 C           1.9116   16.0371   -1.5441 C.3     1  LIG1        0.0791
     60 H           1.1234   16.7700   -1.7190 H       1  LIG1        0.0660
     61 H           2.6026   16.4161   -0.7800 H       1  LIG1        0.0660
     62 H           2.4667   15.8649   -2.4757 H       1  LIG1        0.0660
@<TRIPOS>BOND
     1    62    59    1
     2    11     8    1
     3    16    13    1
     4    57    54    1
     5    60    59    1
     6    15    13    1
     7     9     8    1
     8    56    54    1
     9    59    58    1
    10    59    61    1
    11     8     7    1
    12     8    10    1
    13    52    50    1
    14    13    14    1
    15    13    12    1
    16    54    55    1
    17    54    53    1
    18    58    49    1
    19     7     2    1
    20     6     1    1
    21    50    49   ar
    22    50    51   ar
    23    46    43    1
    24    49    48   ar
    25     1     2   ar
    26     1     5   ar
    27     2     3   ar
    28    26    23    1
    29    51    47   ar
    30     5     4   ar
    31    48    47   ar
    32    48    53    1
    33     3     4   ar
    34     3    12    1
    35    47    35    1
    36     4    17    1
    37    43    45    1
    38    43    44    1
    39    43    42    1
    40    35    36   ar
    41    35    34   ar
    42    36    32   ar
    43    21    17   ar
    44    21    20   ar
    45    17    18   ar
    46    23    25    1
    47    23    24    1
    48    23    22    1
    49    34    42    1
    50    34    33   ar
    51    32    20    1
    52    32    33   ar
    53    20    19   ar
    54    18    22    1
    55    18    19   ar
    56    33    37    1
    57    19    27    1
    58    41    38    1
    59    37    38    1
    60    31    28    1
    61    27    28    1
    62    38    39    1
    63    38    40    1
    64    28    29    1
    65    28    30    1
