@<TRIPOS>MOLECULE
mol_data/opt/b3lyp/geoms/mol2/12ll12ll12ll12ll-.out
 62 65 0 0 0
SMALL
GASTEIGER

@<TRIPOS>ATOM
      1 C           1.1458    2.0713    2.4357 C.ar    1  LIG1        0.1381
      2 C           1.8795    1.7035    1.3422 C.ar    1  LIG1        0.2004
      3 C           1.8892    2.8410    0.4620 C.ar    1  LIG1        0.2111
      4 C           1.1781    3.8333    1.0907 C.ar    1  LIG1        0.2186
      5 O           0.7273    3.3655    2.3020 O.2     1  LIG1       -0.4521
      6 H           0.8493    1.5657    3.3392 H       1  LIG1        0.1069
      7 O           2.4998    0.5326    1.0428 O.3     1  LIG1       -0.4888
      8 C           2.3609   -0.4879    2.0240 C.3     1  LIG1        0.0791
      9 H           2.9071   -1.3550    1.6515 H       1  LIG1        0.0660
     10 H           2.7881   -0.1699    2.9839 H       1  LIG1        0.0660
     11 H           1.3058   -0.7531    2.1712 H       1  LIG1        0.0660
     12 O           2.5231    2.9576   -0.7393 O.3     1  LIG1       -0.4883
     13 C           2.1229    2.0026   -1.7318 C.3     1  LIG1        0.0791
     14 H           2.7082    2.2304   -2.6242 H       1  LIG1        0.0660
     15 H           2.3319    0.9805   -1.4029 H       1  LIG1        0.0660
     16 H           1.0551    2.1052   -1.9584 H       1  LIG1        0.0660
     17 C           0.8137    5.1771    0.7102 C.ar    1  LIG1        0.2196
     18 C           1.4754    6.2666    0.1813 C.ar    1  LIG1        0.2119
     19 C           0.4787    7.2716   -0.0597 C.ar    1  LIG1        0.2119
     20 C          -0.7214    6.7624    0.3735 C.ar    1  LIG1        0.2197
     21 O          -0.5258    5.4937    0.8469 O.2     1  LIG1       -0.4407
     22 O           2.7769    6.5114   -0.0998 O.3     1  LIG1       -0.4883
     23 C           3.7707    5.6939    0.5236 C.3     1  LIG1        0.0791
     24 H           4.7184    6.2121    0.3664 H       1  LIG1        0.0660
     25 H           3.5788    5.6014    1.5985 H       1  LIG1        0.0660
     26 H           3.8113    4.7031    0.0653 H       1  LIG1        0.0660
     27 O           0.6795    8.5260   -0.5544 O.3     1  LIG1       -0.4883
     28 C           1.2403    8.5750   -1.8733 C.3     1  LIG1        0.0791
     29 H           1.3270    9.6332   -2.1258 H       1  LIG1        0.0660
     30 H           2.2276    8.1052   -1.8991 H       1  LIG1        0.0660
     31 H           0.5779    8.0803   -2.5938 H       1  LIG1        0.0660
     32 C          -2.0602    7.2918    0.3931 C.ar    1  LIG1        0.2197
     33 C          -2.6239    8.5298    0.6307 C.ar    1  LIG1        0.2119
     34 C          -4.0312    8.3965    0.3837 C.ar    1  LIG1        0.2119
     35 C          -4.2468    7.0861    0.0230 C.ar    1  LIG1        0.2196
     36 O          -3.0621    6.4083    0.0366 O.2     1  LIG1       -0.4407
     37 O          -2.1033    9.7077    1.0492 O.3     1  LIG1       -0.4883
     38 C          -0.9857    9.6673    1.9434 C.3     1  LIG1        0.0791
     39 H          -0.9406   10.6558    2.4048 H       1  LIG1        0.0660
     40 H          -1.1390    8.9088    2.7190 H       1  LIG1        0.0660
     41 H          -0.0561    9.4723    1.4050 H       1  LIG1        0.0660
     42 O          -4.9838    9.3457    0.5803 O.3     1  LIG1       -0.4883
     43 C          -4.8703   10.4962   -0.2639 C.3     1  LIG1        0.0791
     44 H          -5.6789   11.1684    0.0293 H       1  LIG1        0.0660
     45 H          -3.9071   10.9968   -0.1250 H       1  LIG1        0.0660
     46 H          -4.9929   10.2186   -1.3182 H       1  LIG1        0.0660
     47 C          -5.4281    6.3511   -0.3334 C.ar    1  LIG1        0.2186
     48 C          -5.6951    5.0058   -0.4520 C.ar    1  LIG1        0.2111
     49 C          -7.0666    4.9040   -0.8725 C.ar    1  LIG1        0.2004
     50 C          -7.5416    6.1817   -0.9710 C.ar    1  LIG1        0.1381
     51 O          -6.5515    7.0705   -0.6398 O.2     1  LIG1       -0.4521
     52 H          -8.4945    6.6100   -1.2313 H       1  LIG1        0.1069
     53 O          -4.8578    3.9809   -0.1425 O.3     1  LIG1       -0.4883
     54 C          -4.4711    3.1661   -1.2535 C.3     1  LIG1        0.0791
     55 H          -3.8198    2.3896   -0.8484 H       1  LIG1        0.0660
     56 H          -5.3426    2.7034   -1.7294 H       1  LIG1        0.0660
     57 H          -3.9168    3.7555   -1.9938 H       1  LIG1        0.0660
     58 O          -7.6751    3.7113   -1.0945 O.3     1  LIG1       -0.4888
     59 C          -9.0423    3.7974   -1.4732 C.3     1  LIG1        0.0791
     60 H          -9.3940    2.7741   -1.6094 H       1  LIG1        0.0660
     61 H          -9.6367    4.2886   -0.6916 H       1  LIG1        0.0660
     62 H          -9.1581    4.3533   -2.4133 H       1  LIG1        0.0660
@<TRIPOS>BOND
     1    14    13    1
     2    31    28    1
     3    62    59    1
     4    29    28    1
     5    57    54    1
     6    16    13    1
     7    30    28    1
     8    28    27    1
     9    13    15    1
    10    13    12    1
    11    56    54    1
    12    60    59    1
    13    59    58    1
    14    59    61    1
    15    46    43    1
    16    54    55    1
    17    54    53    1
    18    52    50    1
    19    58    49    1
    20    50    49   ar
    21    50    51   ar
    22    49    48   ar
    23    12     3    1
    24    51    47   ar
    25    27    19    1
    26    48    47   ar
    27    48    53    1
    28    47    35    1
    29    43    45    1
    30    43    44    1
    31    43    42    1
    32    22    18    1
    33    22    23    1
    34    19    18   ar
    35    19    20   ar
    36    35    36   ar
    37    35    34   ar
    38    36    32   ar
    39    26    23    1
    40    18    17   ar
    41    24    23    1
    42    20    32    1
    43    20    21   ar
    44    34    42    1
    45    34    33   ar
    46    32    33   ar
    47     3     4   ar
    48     3     2   ar
    49    23    25    1
    50    33    37    1
    51    17    21   ar
    52    17     4    1
    53     7     2    1
    54     7     8    1
    55    37    38    1
    56     4     5   ar
    57     2     1   ar
    58    41    38    1
    59     9     8    1
    60    38    39    1
    61    38    40    1
    62     8    11    1
    63     8    10    1
    64     5     1   ar
    65     1     6    1
