@<TRIPOS>MOLECULE
mol_data/opt/b3lyp/geoms/mol2/12ll12ll-.out
 32 33 0 0 0
SMALL
GASTEIGER

@<TRIPOS>ATOM
      1 C           0.0212    1.8323   -0.0001 C.ar    1  LIG1        0.1381
      2 C           1.3867    1.7483    0.0000 C.ar    1  LIG1        0.2004
      3 C           1.8820    3.1016    0.0000 C.ar    1  LIG1        0.2111
      4 C           0.7645    3.9124   -0.0001 C.ar    1  LIG1        0.2186
      5 O          -0.3669    3.1404   -0.0001 O.2     1  LIG1       -0.4521
      6 H          -0.7675    1.0996   -0.0001 H       1  LIG1        0.1069
      7 O           2.1834    0.6425    0.0001 O.3     1  LIG1       -0.4888
      8 C           1.4866   -0.5952    0.0000 C.3     1  LIG1        0.0791
      9 H           2.2445   -1.3795    0.0001 H       1  LIG1        0.0660
     10 H           0.8565   -0.6940    0.8939 H       1  LIG1        0.0660
     11 H           0.8566   -0.6940   -0.8940 H       1  LIG1        0.0660
     12 O           3.1503    3.5863    0.0001 O.3     1  LIG1       -0.4883
     13 C           4.2327    2.6600    0.0000 C.3     1  LIG1        0.0791
     14 H           5.1370    3.2711    0.0000 H       1  LIG1        0.0660
     15 H           4.2208    2.0225    0.8901 H       1  LIG1        0.0660
     16 H           4.2208    2.0226   -0.8902 H       1  LIG1        0.0660
     17 C           0.5937    5.3376   -0.0001 C.ar    1  LIG1        0.2186
     18 C          -0.5237    6.1484   -0.0000 C.ar    1  LIG1        0.2111
     19 C          -0.0285    7.5017   -0.0001 C.ar    1  LIG1        0.2004
     20 C           1.3370    7.4178   -0.0002 C.ar    1  LIG1        0.1381
     21 O           1.7252    6.1096   -0.0002 O.2     1  LIG1       -0.4521
     22 H           2.1257    8.1504   -0.0003 H       1  LIG1        0.1069
     23 O          -1.7921    5.6638    0.0001 O.3     1  LIG1       -0.4883
     24 C          -2.8745    6.5900   -0.0000 C.3     1  LIG1        0.0791
     25 H          -3.7788    5.9790    0.0000 H       1  LIG1        0.0660
     26 H          -2.8625    7.2276    0.8900 H       1  LIG1        0.0660
     27 H          -2.8625    7.2274   -0.8902 H       1  LIG1        0.0660
     28 O          -0.8251    8.6075   -0.0001 O.3     1  LIG1       -0.4888
     29 C          -0.1284    9.8453   -0.0003 C.3     1  LIG1        0.0791
     30 H          -0.8863   10.6296   -0.0003 H       1  LIG1        0.0660
     31 H           0.5017    9.9441    0.8936 H       1  LIG1        0.0660
     32 H           0.5016    9.9440   -0.8942 H       1  LIG1        0.0660
@<TRIPOS>BOND
     1    32    29    1
     2    11     8    1
     3    27    24    1
     4    16    13    1
     5    22    20    1
     6    30    29    1
     7    29    28    1
     8    29    31    1
     9    20    21   ar
    10    20    19   ar
    11    21    17   ar
    12    19    28    1
    13    19    18   ar
    14     5     4   ar
    15     5     1   ar
    16    17     4    1
    17    17    18   ar
    18     6     1    1
    19     4     3   ar
    20     1     2   ar
    21    18    23    1
    22    24    25    1
    23    24    23    1
    24    24    26    1
    25    13    14    1
    26    13    12    1
    27    13    15    1
    28     8     9    1
    29     8     7    1
    30     8    10    1
    31     2     3   ar
    32     2     7    1
    33     3    12    1
