@<TRIPOS>MOLECULE
mol_data/opt/b3lyp/geoms/mol2/12ll12ll-12ll.out
 47 49 0 0 0
SMALL
GASTEIGER

@<TRIPOS>ATOM
      1 C          -0.1796    1.7288   -0.2207 C.ar    1  LIG1        0.1381
      2 C           1.1782    1.6275   -0.0988 C.ar    1  LIG1        0.2004
      3 C           1.6793    2.9693    0.0286 C.ar    1  LIG1        0.2111
      4 C           0.5826    3.7977   -0.0365 C.ar    1  LIG1        0.2186
      5 O          -0.5518    3.0480   -0.1787 O.2     1  LIG1       -0.4521
      6 H          -0.9782    1.0147   -0.3274 H       1  LIG1        0.1069
      7 O           1.9892    0.5401   -0.0812 O.3     1  LIG1       -0.4888
      8 C           1.3196   -0.7097   -0.1908 C.3     1  LIG1        0.0791
      9 H           2.0901   -1.4806   -0.1579 H       1  LIG1        0.0660
     10 H           0.6196   -0.8544    0.6423 H       1  LIG1        0.0660
     11 H           0.7692   -0.7806   -1.1383 H       1  LIG1        0.0660
     12 O           2.9672    3.3438    0.2649 O.3     1  LIG1       -0.4883
     13 C           3.8726    3.0789   -0.8145 C.3     1  LIG1        0.0791
     14 H           4.8576    3.4009   -0.4720 H       1  LIG1        0.0660
     15 H           3.8983    2.0109   -1.0537 H       1  LIG1        0.0660
     16 H           3.5904    3.6514   -1.7059 H       1  LIG1        0.0660
     17 C           0.4437    5.2265    0.0240 C.ar    1  LIG1        0.2196
     18 C          -0.6118    6.0612    0.3070 C.ar    1  LIG1        0.2119
     19 C          -0.0948    7.4008    0.2739 C.ar    1  LIG1        0.2119
     20 C           1.2474    7.3118   -0.0341 C.ar    1  LIG1        0.2196
     21 O           1.5678    5.9691   -0.1933 O.2     1  LIG1       -0.4407
     22 O          -1.8637    5.6788    0.6709 O.3     1  LIG1       -0.4883
     23 C          -2.9095    6.1251   -0.2006 C.3     1  LIG1        0.0791
     24 H          -3.8411    5.7540    0.2302 H       1  LIG1        0.0660
     25 H          -2.9395    7.2176   -0.2570 H       1  LIG1        0.0660
     26 H          -2.7818    5.7077   -1.2068 H       1  LIG1        0.0660
     27 O          -0.9029    8.4504    0.5513 O.3     1  LIG1       -0.4883
     28 C          -0.2960    9.7196    0.7974 C.3     1  LIG1        0.0791
     29 H          -1.1077   10.3813    1.1030 H       1  LIG1        0.0660
     30 H           0.4435    9.6502    1.6030 H       1  LIG1        0.0660
     31 H           0.1865   10.1094   -0.1030 H       1  LIG1        0.0660
     32 C           2.3139    8.2562   -0.2752 C.ar    1  LIG1        0.2186
     33 C           3.5944    8.4238    0.2106 C.ar    1  LIG1        0.2111
     34 C           4.1827    9.5132   -0.5298 C.ar    1  LIG1        0.2004
     35 C           3.2313    9.9406   -1.4051 C.ar    1  LIG1        0.1381
     36 O           2.0977    9.2016   -1.2741 O.2     1  LIG1       -0.4521
     37 H           3.2135   10.7453   -2.1225 H       1  LIG1        0.1069
     38 O           4.2951    7.8070    1.1891 O.3     1  LIG1       -0.4883
     39 C           3.6315    6.8327    2.0012 C.3     1  LIG1        0.0791
     40 H           4.3420    6.5765    2.7882 H       1  LIG1        0.0660
     41 H           2.7252    7.2521    2.4514 H       1  LIG1        0.0660
     42 H           3.3743    5.9407    1.4240 H       1  LIG1        0.0660
     43 O           5.4050   10.0819   -0.3392 O.3     1  LIG1       -0.4888
     44 C           6.5176    9.1952   -0.5054 C.3     1  LIG1        0.0791
     45 H           7.4117    9.7942   -0.3232 H       1  LIG1        0.0660
     46 H           6.4763    8.3673    0.2081 H       1  LIG1        0.0660
     47 H           6.5489    8.7963   -1.5273 H       1  LIG1        0.0660
@<TRIPOS>BOND
     1    37    35    1
     2    16    13    1
     3    47    44    1
     4    35    36   ar
     5    35    34   ar
     6    36    32   ar
     7    26    23    1
     8    11     8    1
     9    15    13    1
    10    13    14    1
    11    13    12    1
    12    34    43    1
    13    34    33   ar
    14    44    43    1
    15    44    45    1
    16    44    46    1
    17     6     1    1
    18    32    20    1
    19    32    33   ar
    20    25    23    1
    21     1     5   ar
    22     1     2   ar
    23    23    24    1
    24    23    22    1
    25    21    20   ar
    26    21    17   ar
    27     8     9    1
    28     8     7    1
    29     8    10    1
    30     5     4   ar
    31    31    28    1
    32     2     7    1
    33     2     3   ar
    34     4    17    1
    35     4     3   ar
    36    20    19   ar
    37    17    18   ar
    38     3    12    1
    39    33    38    1
    40    19    18   ar
    41    19    27    1
    42    18    22    1
    43    27    28    1
    44    28    29    1
    45    28    30    1
    46    38    39    1
    47    42    39    1
    48    39    41    1
    49    39    40    1
