@<TRIPOS>MOLECULE
mol_data/opt/b3lyp/geoms/mol2/12ll4df-13dl6el.out
 57 60 0 0 0
SMALL
GASTEIGER

@<TRIPOS>ATOM
      1 C           0.1952    1.4365    0.1318 C.ar    1  LIG1        0.1379
      2 C           1.4953    1.4102   -0.2894 C.ar    1  LIG1        0.2003
      3 C           1.9264    2.7834   -0.3733 C.ar    1  LIG1        0.2079
      4 C           0.8521    3.5514    0.0225 C.ar    1  LIG1        0.1814
      5 O          -0.2141    2.7277    0.3075 O.2     1  LIG1       -0.4553
      6 H          -0.5316    0.6719    0.3490 H       1  LIG1        0.1069
      7 O           2.2910    0.3614   -0.6121 O.3     1  LIG1       -0.4888
      8 C           1.6847   -0.9203   -0.4878 C.3     1  LIG1        0.0791
      9 H           2.4393   -1.6500   -0.7817 H       1  LIG1        0.0660
     10 H           1.3740   -1.1100    0.5477 H       1  LIG1        0.0660
     11 H           0.8126   -1.0073   -1.1487 H       1  LIG1        0.0660
     12 O           3.0776    3.2688   -0.8842 O.3     1  LIG1       -0.4884
     13 C           4.3039    2.6876   -0.4015 C.3     1  LIG1        0.0791
     14 H           5.0997    3.1966   -0.9451 H       1  LIG1        0.0660
     15 H           4.4202    2.8824    0.6679 H       1  LIG1        0.0660
     16 H           4.3336    1.6151   -0.6059 H       1  LIG1        0.0660
     17 C           1.5606    5.9560    0.4055 C.ar    1  LIG1        0.0634
     18 C           1.2275    7.3160    0.3890 C.ar    1  LIG1       -0.0310
     19 C           0.5892    4.9797    0.0640 C.ar    1  LIG1        0.0418
     20 C          -0.0548    7.7811    0.0639 C.ar    1  LIG1        0.0423
     21 H           1.9973    8.0258    0.6631 H       1  LIG1        0.0638
     22 C          -0.7038    5.4377   -0.2259 C.ar    1  LIG1       -0.0075
     23 C          -1.0270    6.7888   -0.2201 C.ar    1  LIG1        0.1267
     24 H          -1.4692    4.7091   -0.4764 H       1  LIG1        0.0662
     25 N           3.9074    5.3693    1.3422 N.1     1  LIG1       -0.1908
     26 C           2.8614    5.6033    0.8890 C.1     1  LIG1        0.0999
     27 O          -2.2987    7.2007   -0.5098 O.3     1  LIG1       -0.5061
     28 H          -2.8553    6.4345   -0.7016 H       1  LIG1        0.2922
     29 C          -0.3498    9.2131    0.0430 C.ar    1  LIG1        0.0717
     30 C           0.5178   10.3254   -0.0082 C.ar    1  LIG1        0.1192
     31 C          -0.2969   11.4966    0.0123 C.ar    1  LIG1        0.1632
     32 C          -1.6337   11.0983    0.0722 C.ar    1  LIG1        0.0933
     33 N          -1.6148    9.7172    0.0817 N.ar    1  LIG1       -0.3500
     34 H          -2.4430    9.1378    0.1261 H       1  LIG1        0.1661
     35 N           3.0868   10.3644   -0.2508 N.1     1  LIG1       -0.1907
     36 C           1.9263   10.3266   -0.1435 C.1     1  LIG1        0.1050
     37 O           0.1319   12.7856   -0.0757 O.3     1  LIG1       -0.4917
     38 C           1.0064   13.2328    0.9743 C.3     1  LIG1        0.0789
     39 H           1.1976   14.2882    0.7750 H       1  LIG1        0.0660
     40 H           0.5227   13.1228    1.9513 H       1  LIG1        0.0660
     41 H           1.9532   12.6864    0.9662 H       1  LIG1        0.0660
     42 C          -4.1235   11.4276    0.5166 C.ar    1  LIG1        0.1226
     43 C          -2.8562   11.9001    0.0811 C.ar    1  LIG1        0.0392
     44 C          -2.7940   13.2319   -0.3784 C.ar    1  LIG1       -0.0065
     45 C          -3.9411   14.0159   -0.3853 C.ar    1  LIG1        0.1388
     46 C          -5.1489   13.4443    0.0592 C.ar    1  LIG1        0.0706
     47 N          -5.2338   12.1987    0.4920 N.ar    1  LIG1       -0.2424
     48 H          -1.8448   13.6186   -0.7201 H       1  LIG1        0.0662
     49 H          -6.0568   14.0432    0.0502 H       1  LIG1        0.0867
     50 C          -4.3344   10.1090    1.0411 C.1     1  LIG1       -0.0491
     51 C          -4.5451    9.0027    1.4872 C.1     1  LIG1       -0.1124
     52 H          -4.7397    8.0477    1.9175 H       1  LIG1        0.1232
     53 O          -4.0099   15.3051   -0.8021 O.3     1  LIG1       -0.4936
     54 C          -2.8179   15.9244   -1.2731 C.3     1  LIG1        0.0789
     55 H          -3.0978   16.9424   -1.5454 H       1  LIG1        0.0660
     56 H          -2.0468   15.9546   -0.4940 H       1  LIG1        0.0660
     57 H          -2.4193   15.4081   -2.1546 H       1  LIG1        0.0660
@<TRIPOS>BOND
     1    57    54    1
     2    55    54    1
     3    54    53    1
     4    54    56    1
     5    11     8    1
     6    14    13    1
     7    12    13    1
     8    12     3    1
     9    53    45    1
    10     9     8    1
    11    48    44    1
    12    28    27    1
    13     7     8    1
    14     7     2    1
    15    16    13    1
    16    27    23    1
    17     8    10    1
    18    24    22    1
    19    13    15    1
    20    45    44   ar
    21    45    46   ar
    22    44    43   ar
    23     3     2   ar
    24     3     4   ar
    25     2     1   ar
    26    35    36    3
    27    22    23   ar
    28    22    19   ar
    29    23    20   ar
    30    36    30    1
    31    37    31    1
    32    37    38    1
    33    30    31   ar
    34    30    29   ar
    35    31    32   ar
    36     4    19    1
    37     4     5   ar
    38    29    20    1
    39    29    33   ar
    40    49    46    1
    41    46    47   ar
    42    20    18   ar
    43    19    17   ar
    44    32    43    1
    45    32    33   ar
    46    43    42   ar
    47    33    34    1
    48     1     5   ar
    49     1     6    1
    50    18    17   ar
    51    18    21    1
    52    17    26    1
    53    47    42   ar
    54    42    50    1
    55    39    38    1
    56    26    25    3
    57    41    38    1
    58    38    40    1
    59    50    51    3
    60    51    52    1
