@<TRIPOS>MOLECULE
mol_data/opt/b3lyp/geoms/mol2/12ll12ll12ll-12ll-.out
 62 65 0 0 0
SMALL
GASTEIGER

@<TRIPOS>ATOM
      1 C          -0.0920    1.8270    0.0002 C.ar    1  LIG1        0.1381
      2 C           1.2535    1.6056    0.0001 C.ar    1  LIG1        0.2004
      3 C           1.8826    2.9017   -0.0000 C.ar    1  LIG1        0.2111
      4 C           0.8616    3.8419    0.0001 C.ar    1  LIG1        0.2186
      5 O          -0.3373    3.1621    0.0002 O.2     1  LIG1       -0.4521
      6 H          -0.9538    1.1816    0.0003 H       1  LIG1        0.1069
      7 O           1.9345    0.4237    0.0000 O.3     1  LIG1       -0.4888
      8 C           1.1121   -0.7346    0.0001 C.3     1  LIG1        0.0791
      9 H           1.7839   -1.5938    0.0001 H       1  LIG1        0.0660
     10 H           0.4752   -0.7665    0.8940 H       1  LIG1        0.0660
     11 H           0.4751   -0.7665   -0.8937 H       1  LIG1        0.0660
     12 O           3.2108    3.1979   -0.0001 O.3     1  LIG1       -0.4883
     13 C           4.1648    2.1372   -0.0007 C.3     1  LIG1        0.0791
     14 H           5.1403    2.6275   -0.0009 H       1  LIG1        0.0660
     15 H           4.0694    1.5083    0.8890 H       1  LIG1        0.0660
     16 H           4.0689    1.5088   -0.8908 H       1  LIG1        0.0660
     17 C           0.6662    5.2858    0.0001 C.ar    1  LIG1        0.2196
     18 C           1.3541    6.5024    0.0002 C.ar    1  LIG1        0.2119
     19 C           0.3628    7.5453    0.0002 C.ar    1  LIG1        0.2119
     20 C          -0.8662    6.9246    0.0001 C.ar    1  LIG1        0.2197
     21 O          -0.6847    5.5766    0.0001 O.2     1  LIG1       -0.4407
     22 O           2.6569    6.8890    0.0003 O.3     1  LIG1       -0.4883
     23 C           3.7209    5.9550    0.0002 C.3     1  LIG1        0.0791
     24 H           4.6338    6.5550    0.0003 H       1  LIG1        0.0660
     25 H           3.6969    5.3168    0.8874 H       1  LIG1        0.0660
     26 H           3.6969    5.3170   -0.8871 H       1  LIG1        0.0660
     27 O           0.4877    8.8959    0.0002 O.3     1  LIG1       -0.4883
     28 C           1.7684    9.5178   -0.0003 C.3     1  LIG1        0.0791
     29 H           1.5593   10.5895   -0.0004 H       1  LIG1        0.0660
     30 H           2.3497    9.2581    0.8894 H       1  LIG1        0.0660
     31 H           2.3490    9.2579   -0.8905 H       1  LIG1        0.0660
     32 C          -2.2093    7.4174    0.0001 C.ar    1  LIG1        0.2197
     33 C          -3.4383    6.7967    0.0001 C.ar    1  LIG1        0.2119
     34 C          -4.4295    7.8396    0.0000 C.ar    1  LIG1        0.2119
     35 C          -3.7417    9.0562   -0.0000 C.ar    1  LIG1        0.2196
     36 O          -2.3907    8.7654    0.0000 O.2     1  LIG1       -0.4407
     37 O          -3.5631    5.4461    0.0002 O.3     1  LIG1       -0.4883
     38 C          -4.8437    4.8241   -0.0003 C.3     1  LIG1        0.0791
     39 H          -4.6345    3.7524   -0.0003 H       1  LIG1        0.0660
     40 H          -5.4250    5.0838    0.8895 H       1  LIG1        0.0660
     41 H          -5.4244    5.0839   -0.8904 H       1  LIG1        0.0660
     42 O          -5.7324    7.4532    0.0001 O.3     1  LIG1       -0.4883
     43 C          -6.7963    8.3873   -0.0001 C.3     1  LIG1        0.0791
     44 H          -7.7093    7.7874   -0.0000 H       1  LIG1        0.0660
     45 H          -6.7723    9.0254    0.8871 H       1  LIG1        0.0660
     46 H          -6.7722    9.0252   -0.8874 H       1  LIG1        0.0660
     47 C          -3.9371   10.5002   -0.0001 C.ar    1  LIG1        0.2186
     48 C          -4.9582   11.4402   -0.0002 C.ar    1  LIG1        0.2111
     49 C          -4.3292   12.7364   -0.0002 C.ar    1  LIG1        0.2004
     50 C          -2.9836   12.5151   -0.0000 C.ar    1  LIG1        0.1381
     51 O          -2.7383   11.1801    0.0000 O.2     1  LIG1       -0.4521
     52 H          -2.1219   13.1606    0.0001 H       1  LIG1        0.1069
     53 O          -6.2864   11.1439   -0.0004 O.3     1  LIG1       -0.4883
     54 C          -7.2404   12.2046   -0.0009 C.3     1  LIG1        0.0791
     55 H          -8.2160   11.7142   -0.0011 H       1  LIG1        0.0660
     56 H          -7.1451   12.8335    0.8889 H       1  LIG1        0.0660
     57 H          -7.1446   12.8330   -0.8910 H       1  LIG1        0.0660
     58 O          -5.0103   13.9182   -0.0003 O.3     1  LIG1       -0.4888
     59 C          -4.1879   15.0766   -0.0002 C.3     1  LIG1        0.0791
     60 H          -4.8598   15.9358   -0.0003 H       1  LIG1        0.0660
     61 H          -3.5511   15.1085    0.8937 H       1  LIG1        0.0660
     62 H          -3.5509   15.1085   -0.8940 H       1  LIG1        0.0660
@<TRIPOS>BOND
     1    62    59    1
     2    11     8    1
     3    57    54    1
     4    16    13    1
     5    31    28    1
     6    41    38    1
     7    46    43    1
     8    26    23    1
     9    55    54    1
    10    54    53    1
    11    54    56    1
    12    14    13    1
    13    13    12    1
    14    13    15    1
    15    53    48    1
    16    29    28    1
    17    28    27    1
    18    28    30    1
    19    60    59    1
    20    38    39    1
    21    38    37    1
    22    38    40    1
    23    58    59    1
    24    58    49    1
    25    48    49   ar
    26    48    47   ar
    27    59    61    1
    28    49    50   ar
    29    12     3    1
    30    47    35    1
    31    47    51   ar
    32    43    44    1
    33    43    42    1
    34    43    45    1
    35    35    36   ar
    36    35    34   ar
    37    50    51   ar
    38    50    52    1
    39     3     2   ar
    40     3     4   ar
    41    36    32   ar
    42    34    42    1
    43    34    33   ar
    44     7     2    1
    45     7     8    1
    46     9     8    1
    47    32    33   ar
    48    32    20    1
    49    33    37    1
    50     2     1   ar
    51    21    20   ar
    52    21    17   ar
    53     4    17    1
    54     4     5   ar
    55    20    19   ar
    56     8    10    1
    57    17    18   ar
    58    19    18   ar
    59    19    27    1
    60    18    22    1
    61     1     5   ar
    62     1     6    1
    63    23    24    1
    64    23    22    1
    65    23    25    1
