@<TRIPOS>MOLECULE
mol_data/opt/b3lyp/geoms/mol2/12ll12ll.out
 32 33 0 0 0
SMALL
GASTEIGER

@<TRIPOS>ATOM
      1 C          -0.0394    1.7381    0.0000 C.ar    1  LIG1        0.1381
      2 C           1.3082    1.5325    0.0001 C.ar    1  LIG1        0.2004
      3 C           1.9222    2.8373    0.0001 C.ar    1  LIG1        0.2111
      4 C           0.8913    3.7635    0.0000 C.ar    1  LIG1        0.2186
      5 O          -0.3003    3.0709    0.0000 O.2     1  LIG1       -0.4521
      6 H          -0.8938    1.0831    0.0000 H       1  LIG1        0.1069
      7 O           2.0037    0.3602    0.0002 O.3     1  LIG1       -0.4888
      8 C           1.1966   -0.8097    0.0002 C.3     1  LIG1        0.0791
      9 H           1.8802   -1.6594    0.0002 H       1  LIG1        0.0660
     10 H           0.5605   -0.8499    0.8941 H       1  LIG1        0.0660
     11 H           0.5605   -0.8499   -0.8938 H       1  LIG1        0.0660
     12 O           3.2458    3.1502    0.0001 O.3     1  LIG1       -0.4883
     13 C           4.2139    2.1012   -0.0005 C.3     1  LIG1        0.0791
     14 H           5.1827    2.6044   -0.0006 H       1  LIG1        0.0660
     15 H           4.1259    1.4717    0.8893 H       1  LIG1        0.0660
     16 H           4.1255    1.4723   -0.8908 H       1  LIG1        0.0660
     17 C           0.6796    5.2087    0.0000 C.ar    1  LIG1        0.2186
     18 C           1.3551    6.4301    0.0001 C.ar    1  LIG1        0.2111
     19 C           0.3428    7.4647   -0.0001 C.ar    1  LIG1        0.2004
     20 C          -0.8573    6.8274   -0.0003 C.ar    1  LIG1        0.1381
     21 O          -0.6747    5.4850   -0.0002 O.2     1  LIG1       -0.4521
     22 H          -1.8731    7.1859   -0.0005 H       1  LIG1        0.1069
     23 O           2.6517    6.8348    0.0005 O.3     1  LIG1       -0.4883
     24 C           3.7295    5.9159    0.0006 C.3     1  LIG1        0.0791
     25 H           4.6335    6.5290    0.0008 H       1  LIG1        0.0660
     26 H           3.7139    5.2777    0.8879 H       1  LIG1        0.0660
     27 H           3.7142    5.2778   -0.8868 H       1  LIG1        0.0660
     28 O           0.4413    8.8215   -0.0000 O.3     1  LIG1       -0.4888
     29 C           1.7146    9.4620   -0.0005 C.3     1  LIG1        0.0791
     30 H           1.4932   10.5313   -0.0006 H       1  LIG1        0.0660
     31 H           2.2991    9.2096    0.8890 H       1  LIG1        0.0660
     32 H           2.2986    9.2093   -0.8904 H       1  LIG1        0.0660
@<TRIPOS>BOND
     1    11     8    1
     2    16    13    1
     3    32    29    1
     4    27    24    1
     5    30    29    1
     6    14    13    1
     7    13    12    1
     8    13    15    1
     9    29    28    1
    10    29    31    1
    11    22    20    1
    12    20    21   ar
    13    20    19   ar
    14    21    17   ar
    15    19    28    1
    16    19    18   ar
    17    17     4    1
    18    17    18   ar
    19     5     4   ar
    20     5     1   ar
    21     4     3   ar
    22     6     1    1
    23     1     2   ar
    24     3     2   ar
    25     3    12    1
    26     2     7    1
    27    18    23    1
    28     8     7    1
    29     8     9    1
    30     8    10    1
    31    23    24    1
    32    24    25    1
    33    24    26    1
