@<TRIPOS>MOLECULE
mol_data/opt/b3lyp/geoms/mol2/12ll6ea13ii-13dh-.out
 53 56 0 0 0
SMALL
GASTEIGER

@<TRIPOS>ATOM
      1 C           0.1785    1.5660   -0.8076 C.ar    1  LIG1        0.1379
      2 C           1.4959    1.5608   -0.4419 C.ar    1  LIG1        0.2003
      3 C           1.8403    2.9259   -0.1560 C.ar    1  LIG1        0.2079
      4 C           0.7009    3.6761   -0.3675 C.ar    1  LIG1        0.1827
      5 O          -0.3054    2.8425   -0.7743 O.2     1  LIG1       -0.4553
      6 H          -0.5150    0.8019   -1.1153 H       1  LIG1        0.1069
      7 O           2.3820    0.5373   -0.3422 O.3     1  LIG1       -0.4888
      8 C           1.8609   -0.7440   -0.6761 C.3     1  LIG1        0.0791
      9 H           2.6782   -1.4548   -0.5513 H       1  LIG1        0.0660
     10 H           1.0309   -1.0171   -0.0115 H       1  LIG1        0.0660
     11 H           1.5111   -0.7659   -1.7162 H       1  LIG1        0.0660
     12 O           3.0627    3.4128    0.1965 O.3     1  LIG1       -0.4884
     13 C           3.6447    2.8238    1.3687 C.3     1  LIG1        0.0791
     14 H           4.6051    3.3218    1.5109 H       1  LIG1        0.0660
     15 H           3.0091    2.9965    2.2454 H       1  LIG1        0.0660
     16 H           3.8006    1.7502    1.2343 H       1  LIG1        0.0660
     17 C          -0.8380    5.6877   -0.1093 C.ar    1  LIG1        0.1246
     18 C           0.4490    5.1042   -0.2706 C.ar    1  LIG1        0.0549
     19 C           1.5343    6.0014   -0.3285 C.ar    1  LIG1       -0.0462
     20 C           1.3349    7.3667   -0.2430 C.ar    1  LIG1       -0.0335
     21 C           0.0222    7.8583   -0.1072 C.ar    1  LIG1        0.0888
     22 N          -1.0273    7.0155   -0.0402 N.ar    1  LIG1       -0.2362
     23 H           2.5356    5.6041   -0.4438 H       1  LIG1        0.0626
     24 C          -2.0400    4.9134    0.0251 C.1     1  LIG1       -0.0491
     25 C          -3.0859    4.3238    0.1675 C.1     1  LIG1       -0.1124
     26 H          -3.9970    3.7837    0.2810 H       1  LIG1        0.1232
     27 H           2.1789    8.0416   -0.2933 H       1  LIG1        0.0640
     28 C          -0.3211    9.2712   -0.0283 C.ar    1  LIG1        0.0687
     29 C           0.4045   10.4687   -0.0865 C.ar    1  LIG1       -0.0201
     30 C          -0.5310   11.5374    0.0140 C.ar    1  LIG1       -0.0202
     31 C          -1.8042   10.9651    0.1204 C.ar    1  LIG1        0.0679
     32 N          -1.6469    9.6010    0.1128 N.ar    1  LIG1       -0.3514
     33 H          -2.3623    8.8898    0.0491 H       1  LIG1        0.1660
     34 C           1.8925   10.6281   -0.2191 C.3     1  LIG1       -0.0374
     35 H           2.1710   11.6842   -0.2187 H       1  LIG1        0.0278
     36 H           2.2687   10.1988   -1.1556 H       1  LIG1        0.0278
     37 H           2.4370   10.1479    0.6028 H       1  LIG1        0.0278
     38 C          -0.2135   13.0038    0.0617 C.3     1  LIG1       -0.0374
     39 H          -0.9984   13.5578    0.5834 H       1  LIG1        0.0278
     40 H          -0.1259   13.4441   -0.9379 H       1  LIG1        0.0278
     41 H           0.7269   13.1887    0.5902 H       1  LIG1        0.0278
     42 C          -3.1145   11.5546    0.2911 C.ar    1  LIG1        0.0826
     43 C          -3.7143   12.6923   -0.2727 C.ar    1  LIG1        0.0990
     44 C          -5.0553   12.7908    0.2416 C.ar    1  LIG1        0.0604
     45 C          -5.2378   11.7166    1.0855 C.ar    1  LIG1        0.0243
     46 N          -4.0636   10.9769    1.0881 N.ar    1  LIG1       -0.3568
     47 H          -3.8663   10.2200    1.7237 H       1  LIG1        0.1655
     48 H          -6.0893   11.4233    1.6788 H       1  LIG1        0.0826
     49 N          -2.8085   14.2684   -2.1027 N.1     1  LIG1       -0.1907
     50 C          -3.1846   13.5416   -1.2711 C.1     1  LIG1        0.1032
     51 N          -5.9447   13.8252   -0.0490 N.pl3   1  LIG1       -0.3558
     52 H          -5.7202   14.3143   -0.9072 H       1  LIG1        0.1424
     53 H          -6.9180   13.5503   -0.0364 H       1  LIG1        0.1424
@<TRIPOS>BOND
     1    49    50    3
     2    11     8    1
     3    50    43    1
     4    36    34    1
     5     6     1    1
     6    40    38    1
     7    52    51    1
     8     1     5   ar
     9     1     2   ar
    10     5     4   ar
    11     8     9    1
    12     8     7    1
    13     8    10    1
    14    23    19    1
    15     2     7    1
    16     2     3   ar
    17     4    18    1
    18     4     3   ar
    19    19    18   ar
    20    19    20   ar
    21    27    20    1
    22    43    44   ar
    23    43    42   ar
    24    18    17   ar
    25    20    21   ar
    26    34    35    1
    27    34    29    1
    28    34    37    1
    29     3    12    1
    30    17    22   ar
    31    17    24    1
    32    21    22   ar
    33    21    28    1
    34    29    28   ar
    35    29    30   ar
    36    51    53    1
    37    51    44    1
    38    28    32   ar
    39    30    38    1
    40    30    31   ar
    41    24    25    3
    42    33    32    1
    43    38    39    1
    44    38    41    1
    45    32    31   ar
    46    31    42    1
    47    25    26    1
    48    12    13    1
    49    44    45   ar
    50    42    46   ar
    51    45    46   ar
    52    45    48    1
    53    46    47    1
    54    16    13    1
    55    13    14    1
    56    13    15    1
