@<TRIPOS>MOLECULE
mol_data/opt/b3lyp/geoms/mol2/12ll12ll-12ll12ll.out
 62 65 0 0 0
SMALL
GASTEIGER

@<TRIPOS>ATOM
      1 C          -0.2999    1.8360   -0.5456 C.ar    1  LIG1        0.1381
      2 C           1.0590    1.7335   -0.6535 C.ar    1  LIG1        0.2004
      3 C           1.5965    3.0182   -0.2952 C.ar    1  LIG1        0.2111
      4 C           0.5167    3.8194   -0.0020 C.ar    1  LIG1        0.2186
      5 O          -0.6388    3.1024   -0.1437 O.2     1  LIG1       -0.4521
      6 H          -1.1176    1.1520   -0.6955 H       1  LIG1        0.1069
      7 O           1.8451    0.6865   -1.0086 O.3     1  LIG1       -0.4888
      8 C           1.1461   -0.5157   -1.3067 C.3     1  LIG1        0.0791
      9 H           1.9006   -1.2594   -1.5649 H       1  LIG1        0.0660
     10 H           0.5719   -0.8616   -0.4375 H       1  LIG1        0.0660
     11 H           0.4633   -0.3751   -2.1550 H       1  LIG1        0.0660
     12 O           2.9118    3.3511   -0.1752 O.3     1  LIG1       -0.4883
     13 C           3.6434    3.3450   -1.4084 C.3     1  LIG1        0.0791
     14 H           4.6733    3.5998   -1.1527 H       1  LIG1        0.0660
     15 H           3.6153    2.3563   -1.8773 H       1  LIG1        0.0660
     16 H           3.2424    4.0946   -2.1005 H       1  LIG1        0.0660
     17 C           0.4109    5.1923    0.4070 C.ar    1  LIG1        0.2196
     18 C          -0.5855    5.9246    1.0086 C.ar    1  LIG1        0.2119
     19 C          -0.0569    7.2434    1.2178 C.ar    1  LIG1        0.2119
     20 C           1.2334    7.2465    0.7259 C.ar    1  LIG1        0.2197
     21 O           1.5095    5.9813    0.2236 O.2     1  LIG1       -0.4407
     22 O          -1.7870    5.4531    1.4318 O.3     1  LIG1       -0.4883
     23 C          -2.9271    6.0717    0.8228 C.3     1  LIG1        0.0791
     24 H          -3.8028    5.6026    1.2748 H       1  LIG1        0.0660
     25 H          -2.9446    7.1485    1.0167 H       1  LIG1        0.0660
     26 H          -2.9348    5.8917   -0.2591 H       1  LIG1        0.0660
     27 O          -0.8070    8.1850    1.8350 O.3     1  LIG1       -0.4883
     28 C          -0.1526    9.3534    2.3316 C.3     1  LIG1        0.0791
     29 H          -0.9067    9.8927    2.9065 H       1  LIG1        0.0660
     30 H           0.6832    9.0823    2.9870 H       1  LIG1        0.0660
     31 H           0.2152    9.9795    1.5146 H       1  LIG1        0.0660
     32 C           2.2695    8.2370    0.5588 C.ar    1  LIG1        0.2197
     33 C           3.6288    8.2764    0.8013 C.ar    1  LIG1        0.2119
     34 C           4.1072    9.5234    0.2729 C.ar    1  LIG1        0.2119
     35 C           3.0210   10.1967   -0.2267 C.ar    1  LIG1        0.2196
     36 O           1.9011    9.4226   -0.0634 O.2     1  LIG1       -0.4407
     37 O           4.4863    7.4212    1.4043 O.3     1  LIG1       -0.4883
     38 C           3.9576    6.2849    2.0974 C.3     1  LIG1        0.0791
     39 H           4.8004    5.8598    2.6442 H       1  LIG1        0.0660
     40 H           3.1798    6.5888    2.8066 H       1  LIG1        0.0660
     41 H           3.5521    5.5465    1.4014 H       1  LIG1        0.0660
     42 O           5.3826   10.0016    0.3225 O.3     1  LIG1       -0.4883
     43 C           6.3633    9.1922   -0.3425 C.3     1  LIG1        0.0791
     44 H           7.3155    9.7111   -0.2202 H       1  LIG1        0.0660
     45 H           6.4221    8.1972    0.1070 H       1  LIG1        0.0660
     46 H           6.1302    9.1022   -1.4100 H       1  LIG1        0.0660
     47 C           2.8618   11.4783   -0.8690 C.ar    1  LIG1        0.2186
     48 C           3.3691   12.7480   -0.6809 C.ar    1  LIG1        0.2111
     49 C           2.8663   13.5548   -1.7653 C.ar    1  LIG1        0.2004
     50 C           2.0810   12.7374   -2.5203 C.ar    1  LIG1        0.1381
     51 O           2.0537   11.4856   -1.9931 O.2     1  LIG1       -0.4521
     52 H           1.4760   12.9137   -3.3950 H       1  LIG1        0.1069
     53 O           4.1499   13.2945    0.2811 O.3     1  LIG1       -0.4883
     54 C           4.1392   12.6980    1.5810 C.3     1  LIG1        0.0791
     55 H           4.5801   13.4398    2.2497 H       1  LIG1        0.0660
     56 H           3.1122   12.4850    1.8993 H       1  LIG1        0.0660
     57 H           4.7358   11.7837    1.6017 H       1  LIG1        0.0660
     58 O           3.0447   14.8915   -1.9528 O.3     1  LIG1       -0.4888
     59 C           4.4085   15.3036   -2.0979 C.3     1  LIG1        0.0791
     60 H           4.3852   16.3869   -2.2301 H       1  LIG1        0.0660
     61 H           4.9964   15.0531   -1.2101 H       1  LIG1        0.0660
     62 H           4.8648   14.8391   -2.9813 H       1  LIG1        0.0660
@<TRIPOS>BOND
     1    52    50    1
     2    62    59    1
     3    50    51   ar
     4    50    49   ar
     5    60    59    1
     6    11     8    1
     7    16    13    1
     8    59    58    1
     9    59    61    1
    10    51    47   ar
    11    58    49    1
    12    15    13    1
    13    49    48   ar
    14     9     8    1
    15    46    43    1
    16    13    14    1
    17    13    12    1
    18     8     7    1
    19     8    10    1
    20     7     2    1
    21    47    48   ar
    22    47    35    1
    23     6     1    1
    24    48    53    1
    25     2     1   ar
    26     2     3   ar
    27     1     5   ar
    28    43    44    1
    29    43    45    1
    30    43    42    1
    31     3    12    1
    32     3     4   ar
    33    26    23    1
    34    35    36   ar
    35    35    34   ar
    36     5     4   ar
    37    36    32   ar
    38     4    17    1
    39    21    17   ar
    40    21    20   ar
    41    34    42    1
    42    34    33   ar
    43    53    54    1
    44    17    18   ar
    45    32    20    1
    46    32    33   ar
    47    20    19   ar
    48    33    37    1
    49    23    25    1
    50    23    24    1
    51    23    22    1
    52    18    19   ar
    53    18    22    1
    54    19    27    1
    55    41    38    1
    56    37    38    1
    57    31    28    1
    58    54    57    1
    59    54    56    1
    60    54    55    1
    61    27    28    1
    62    38    39    1
    63    38    40    1
    64    28    29    1
    65    28    30    1
