@<TRIPOS>MOLECULE
mol_data/opt/b3lyp/geoms/mol2/12ll.out
 17 17 0 0 0
SMALL
GASTEIGER

@<TRIPOS>ATOM
      1 C           0.0300    1.9149   -0.0000 C.ar    1  LIG1        0.1370
      2 C           1.3939    1.8067    0.0000 C.ar    1  LIG1        0.1996
      3 C           1.9087    3.1581   -0.0000 C.ar    1  LIG1        0.1996
      4 C           0.8113    3.9701   -0.0001 C.ar    1  LIG1        0.1370
      5 O          -0.3357    3.2298   -0.0001 O.2     1  LIG1       -0.4635
      6 H          -0.7692    1.1934   -0.0000 H       1  LIG1        0.1069
      7 H           0.7051    5.0420   -0.0001 H       1  LIG1        0.1069
      8 O           2.1740    0.6896    0.0001 O.3     1  LIG1       -0.4888
      9 C           1.4590   -0.5380    0.0001 C.3     1  LIG1        0.0791
     10 H           2.2050   -1.3335    0.0002 H       1  LIG1        0.0660
     11 H           0.8274   -0.6272    0.8940 H       1  LIG1        0.0660
     12 H           0.8275   -0.6272   -0.8938 H       1  LIG1        0.0660
     13 O           3.1828    3.6329    0.0000 O.3     1  LIG1       -0.4888
     14 C           4.2559    2.6945   -0.0001 C.3     1  LIG1        0.0791
     15 H           5.1678    3.2943   -0.0001 H       1  LIG1        0.0660
     16 H           4.2363    2.0573    0.8899 H       1  LIG1        0.0660
     17 H           4.2362    2.0574   -0.8903 H       1  LIG1        0.0660
@<TRIPOS>BOND
     1    12     9    1
     2    17    14    1
     3     7     4    1
     4    14    15    1
     5    14    13    1
     6    14    16    1
     7     4     5   ar
     8     4     3   ar
     9     5     1   ar
    10     1     6    1
    11     1     2   ar
    12     3    13    1
    13     3     2   ar
    14     2     8    1
    15     9     8    1
    16     9    10    1
    17     9    11    1
