@<TRIPOS>MOLECULE
mol_data/opt/b3lyp/geoms/mol2/12ll12ll12ll-12ll.out
 62 65 0 0 0
SMALL
GASTEIGER

@<TRIPOS>ATOM
      1 C          -0.2381    1.7883    0.0000 C.ar    1  LIG1        0.1381
      2 C           1.0888    1.4737    0.0001 C.ar    1  LIG1        0.2004
      3 C           1.8066    2.7230    0.0000 C.ar    1  LIG1        0.2111
      4 C           0.8530    3.7315   -0.0000 C.ar    1  LIG1        0.2186
      5 O          -0.3904    3.1371   -0.0001 O.2     1  LIG1       -0.4521
      6 H          -1.1424    1.2043    0.0000 H       1  LIG1        0.1069
      7 O           1.6864    0.2481    0.0001 O.3     1  LIG1       -0.4888
      8 C           0.7866   -0.8517    0.0001 C.3     1  LIG1        0.0791
      9 H           1.3984   -1.7546    0.0002 H       1  LIG1        0.0660
     10 H           0.1492   -0.8400    0.8940 H       1  LIG1        0.0660
     11 H           0.1493   -0.8400   -0.8938 H       1  LIG1        0.0660
     12 O           3.1518    2.9259    0.0001 O.3     1  LIG1       -0.4883
     13 C           4.0303    1.8012   -0.0001 C.3     1  LIG1        0.0791
     14 H           5.0373    2.2232   -0.0000 H       1  LIG1        0.0660
     15 H           3.8911    1.1810    0.8899 H       1  LIG1        0.0660
     16 H           3.8910    1.1812   -0.8901 H       1  LIG1        0.0660
     17 C           0.7582    5.1857   -0.0001 C.ar    1  LIG1        0.2196
     18 C           1.5261    6.3516   -0.0001 C.ar    1  LIG1        0.2119
     19 C           0.6073    7.4594   -0.0001 C.ar    1  LIG1        0.2119
     20 C          -0.6635    6.9278   -0.0001 C.ar    1  LIG1        0.2197
     21 O          -0.5680    5.5699   -0.0000 O.2     1  LIG1       -0.4407
     22 O           2.8523    6.6462   -0.0001 O.3     1  LIG1       -0.4883
     23 C           3.8481    5.6388   -0.0003 C.3     1  LIG1        0.0791
     24 H           4.8010    6.1728   -0.0004 H       1  LIG1        0.0660
     25 H           3.7784    5.0045    0.8870 H       1  LIG1        0.0660
     26 H           3.7781    5.0045   -0.8875 H       1  LIG1        0.0660
     27 O           0.8414    8.8008   -0.0001 O.3     1  LIG1       -0.4883
     28 C           2.1744    9.3105   -0.0005 C.3     1  LIG1        0.0791
     29 H           2.0624   10.3964   -0.0006 H       1  LIG1        0.0660
     30 H           2.7284    8.9999    0.8893 H       1  LIG1        0.0660
     31 H           2.7279    8.9997   -0.8906 H       1  LIG1        0.0660
     32 C          -1.9894    7.4698   -0.0001 C.ar    1  LIG1        0.2197
     33 C          -3.2266    6.8637    0.0000 C.ar    1  LIG1        0.2119
     34 C          -4.2112    7.9131   -0.0001 C.ar    1  LIG1        0.2119
     35 C          -3.5081    9.1183   -0.0002 C.ar    1  LIG1        0.2196
     36 O          -2.1628    8.8296   -0.0002 O.2     1  LIG1       -0.4407
     37 O          -3.3644    5.5171    0.0002 O.3     1  LIG1       -0.4883
     38 C          -4.6492    4.9010   -0.0000 C.3     1  LIG1        0.0791
     39 H          -4.4429    3.8289    0.0001 H       1  LIG1        0.0660
     40 H          -5.2281    5.1638    0.8899 H       1  LIG1        0.0660
     41 H          -5.2278    5.1637   -0.8902 H       1  LIG1        0.0660
     42 O          -5.5166    7.5273   -0.0000 O.3     1  LIG1       -0.4883
     43 C          -6.6377    8.4021   -0.0006 C.3     1  LIG1        0.0791
     44 H          -7.5051    7.7380   -0.0007 H       1  LIG1        0.0660
     45 H          -6.6592    9.0356    0.8890 H       1  LIG1        0.0660
     46 H          -6.6586    9.0351   -0.8907 H       1  LIG1        0.0660
     47 C          -3.8587   10.5246   -0.0003 C.ar    1  LIG1        0.2186
     48 C          -3.2169   11.7630   -0.0001 C.ar    1  LIG1        0.2111
     49 C          -4.2615   12.7664   -0.0004 C.ar    1  LIG1        0.2004
     50 C          -5.4439   12.0969   -0.0007 C.ar    1  LIG1        0.1381
     51 O          -5.2149   10.7536   -0.0006 O.2     1  LIG1       -0.4521
     52 H          -6.4704   12.4223   -0.0010 H       1  LIG1        0.1069
     53 O          -1.9307   12.1938    0.0004 O.3     1  LIG1       -0.4883
     54 C          -0.8233   11.2984    0.0005 C.3     1  LIG1        0.0791
     55 H           0.0576   11.9441    0.0007 H       1  LIG1        0.0660
     56 H          -0.8163   10.6612    0.8857 H       1  LIG1        0.0660
     57 H          -0.8160   10.6614   -0.8849 H       1  LIG1        0.0660
     58 O          -4.2021   14.1240   -0.0003 O.3     1  LIG1       -0.4888
     59 C          -2.9441   14.7967   -0.0002 C.3     1  LIG1        0.0791
     60 H          -3.1927   15.8600   -0.0003 H       1  LIG1        0.0660
     61 H          -2.3548   14.5573    0.8894 H       1  LIG1        0.0660
     62 H          -2.3546   14.5572   -0.8897 H       1  LIG1        0.0660
@<TRIPOS>BOND
     1    11     8    1
     2    46    43    1
     3    31    28    1
     4    41    38    1
     5    16    13    1
     6    62    59    1
     7    26    23    1
     8    57    54    1
     9    52    50    1
    10    44    43    1
    11    50    51   ar
    12    50    49   ar
    13    43    42    1
    14    43    45    1
    15    51    47   ar
    16    29    28    1
    17    28    27    1
    18    28    30    1
    19    24    23    1
    20    49    58    1
    21    49    48   ar
    22    58    59    1
    23    23    22    1
    24    23    25    1
    25    47    35    1
    26    47    48   ar
    27    60    59    1
    28    59    61    1
    29    35    36   ar
    30    35    34   ar
    31    36    32   ar
    32    27    19    1
    33    22    18    1
    34    19    18   ar
    35    19    20   ar
    36    18    17   ar
    37    34    42    1
    38    34    33   ar
    39    48    53    1
    40    20    32    1
    41    20    21   ar
    42     5     4   ar
    43     5     1   ar
    44    13    14    1
    45    13    12    1
    46    13    15    1
    47    32    33   ar
    48    17    21   ar
    49    17     4    1
    50     4     3   ar
    51    38    39    1
    52    38    37    1
    53    38    40    1
    54     6     1    1
    55    33    37    1
    56     1     2   ar
    57     3     2   ar
    58     3    12    1
    59     2     7    1
    60     8     7    1
    61     8     9    1
    62     8    10    1
    63    53    54    1
    64    54    55    1
    65    54    56    1
