@<TRIPOS>MOLECULE
mol_data/opt/b3lyp/geoms/mol2/12ll12ll-12ll-12ll-.out
 62 65 0 0 0
SMALL
GASTEIGER

@<TRIPOS>ATOM
      1 C           0.0242    1.9915    1.0240 C.ar    1  LIG1        0.1381
      2 C           1.3617    2.0017    1.3050 C.ar    1  LIG1        0.2004
      3 C           1.8302    3.3334    1.0312 C.ar    1  LIG1        0.2111
      4 C           0.7351    4.0423    0.5885 C.ar    1  LIG1        0.2186
      5 O          -0.3675    3.2327    0.5934 O.2     1  LIG1       -0.4521
      6 H          -0.7479    1.2429    1.0743 H       1  LIG1        0.1069
      7 O           2.1812    1.0186    1.7569 O.3     1  LIG1       -0.4888
      8 C           1.5457   -0.2307    1.9920 C.3     1  LIG1        0.0791
      9 H           2.3179   -0.9115    2.3521 H       1  LIG1        0.0660
     10 H           0.7585   -0.1348    2.7514 H       1  LIG1        0.0660
     11 H           1.1053   -0.6306    1.0689 H       1  LIG1        0.0660
     12 O           3.0834    3.8162    1.2420 O.3     1  LIG1       -0.4883
     13 C           4.0890    3.2620    0.3867 C.3     1  LIG1        0.0791
     14 H           5.0299    3.7305    0.6808 H       1  LIG1        0.0660
     15 H           4.1631    2.1765    0.5132 H       1  LIG1        0.0660
     16 H           3.8793    3.4975   -0.6635 H       1  LIG1        0.0660
     17 C           0.5593    5.4036    0.1663 C.ar    1  LIG1        0.2196
     18 C          -0.5357    6.1241   -0.2557 C.ar    1  LIG1        0.2119
     19 C          -0.0595    7.4353   -0.5941 C.ar    1  LIG1        0.2119
     20 C           1.2979    7.4429   -0.3408 C.ar    1  LIG1        0.2197
     21 O           1.6731    6.1894    0.1050 O.2     1  LIG1       -0.4407
     22 O          -1.7991    5.6497   -0.4163 O.3     1  LIG1       -0.4883
     23 C          -2.8029    6.3339    0.3418 C.3     1  LIG1        0.0791
     24 H          -3.7499    5.8500    0.0954 H       1  LIG1        0.0660
     25 H          -2.6135    6.2351    1.4179 H       1  LIG1        0.0660
     26 H          -2.8497    7.3937    0.0739 H       1  LIG1        0.0660
     27 O          -0.9036    8.3715   -1.0894 O.3     1  LIG1       -0.4883
     28 C          -0.3783    9.3254   -2.0186 C.3     1  LIG1        0.0791
     29 H          -1.2460    9.7544   -2.5236 H       1  LIG1        0.0660
     30 H           0.1735   10.1148   -1.5045 H       1  LIG1        0.0660
     31 H           0.2663    8.8326   -2.7551 H       1  LIG1        0.0660
     32 C           2.3439    8.4319   -0.3739 C.ar    1  LIG1        0.2197
     33 C           2.3916    9.7570   -0.0162 C.ar    1  LIG1        0.2119
     34 C           3.7277   10.2160   -0.2724 C.ar    1  LIG1        0.2119
     35 C           4.4355    9.1251   -0.7341 C.ar    1  LIG1        0.2196
     36 O           3.5788    8.0419   -0.8167 O.2     1  LIG1       -0.4407
     37 O           1.3398   10.5005    0.4302 O.3     1  LIG1       -0.4883
     38 C           1.5222   11.0906    1.7249 C.3     1  LIG1        0.0791
     39 H           0.6014   11.6349    1.9414 H       1  LIG1        0.0660
     40 H           1.6763   10.3152    2.4846 H       1  LIG1        0.0660
     41 H           2.3704   11.7810    1.7264 H       1  LIG1        0.0660
     42 O           4.0578   11.5116   -0.0610 O.3     1  LIG1       -0.4883
     43 C           5.2406   12.0208   -0.6819 C.3     1  LIG1        0.0791
     44 H           5.1793   13.1062   -0.5850 H       1  LIG1        0.0660
     45 H           6.1390   11.6553   -0.1791 H       1  LIG1        0.0660
     46 H           5.2695   11.7498   -1.7434 H       1  LIG1        0.0660
     47 C           5.8112    8.8596   -1.0815 C.ar    1  LIG1        0.2186
     48 C           7.0016    9.1038   -0.4424 C.ar    1  LIG1        0.2111
     49 C           8.0396    8.5657   -1.2802 C.ar    1  LIG1        0.2004
     50 C           7.4114    8.0114   -2.3607 C.ar    1  LIG1        0.1381
     51 O           6.0604    8.1956   -2.2594 O.2     1  LIG1       -0.4521
     52 H           7.7565    7.4871   -3.2358 H       1  LIG1        0.1069
     53 O           7.1494    9.7810    0.7311 O.3     1  LIG1       -0.4883
     54 C           7.8034    9.0470    1.7762 C.3     1  LIG1        0.0791
     55 H           7.8398    9.7153    2.6380 H       1  LIG1        0.0660
     56 H           7.2307    8.1484    2.0336 H       1  LIG1        0.0660
     57 H           8.8191    8.7650    1.4835 H       1  LIG1        0.0660
     58 O           9.3574    8.6365   -0.9593 O.3     1  LIG1       -0.4888
     59 C          10.2373    8.0298   -1.8977 C.3     1  LIG1        0.0791
     60 H          11.2479    8.1682   -1.5124 H       1  LIG1        0.0660
     61 H          10.0266    6.9572   -2.0004 H       1  LIG1        0.0660
     62 H          10.1515    8.5079   -2.8822 H       1  LIG1        0.0660
@<TRIPOS>BOND
     1    52    50    1
     2    62    59    1
     3    31    28    1
     4    29    28    1
     5    50    51   ar
     6    50    49   ar
     7    51    47   ar
     8    28    30    1
     9    28    27    1
    10    61    59    1
    11    59    60    1
    12    59    58    1
    13    46    43    1
    14    49    58    1
    15    49    48   ar
    16    27    19    1
    17    47    35    1
    18    47    48   ar
    19    36    35   ar
    20    36    32   ar
    21    35    34   ar
    22    43    44    1
    23    43    45    1
    24    43    42    1
    25    16    13    1
    26    19    20   ar
    27    19    18   ar
    28    48    53    1
    29    22    18    1
    30    22    23    1
    31    32    20    1
    32    32    33   ar
    33    20    21   ar
    34    34    42    1
    35    34    33   ar
    36    18    17   ar
    37    33    37    1
    38    26    23    1
    39    24    23    1
    40    21    17   ar
    41    17     4    1
    42    23    25    1
    43    13    15    1
    44    13    14    1
    45    13    12    1
    46    37    38    1
    47     4     5   ar
    48     4     3   ar
    49     5     1   ar
    50    53    54    1
    51     1     6    1
    52     1     2   ar
    53     3    12    1
    54     3     2   ar
    55    11     8    1
    56     2     7    1
    57    57    54    1
    58    38    41    1
    59    38    39    1
    60    38    40    1
    61     7     8    1
    62    54    56    1
    63    54    55    1
    64     8     9    1
    65     8    10    1
