@<TRIPOS>MOLECULE
mol_data/opt/b3lyp/geoms/mol2/12ll12ll-12ll-12ll.out
 62 65 0 0 0
SMALL
GASTEIGER

@<TRIPOS>ATOM
      1 C          -0.1590    1.9617    0.0628 C.ar    1  LIG1        0.1381
      2 C           1.1754    1.8894   -0.2261 C.ar    1  LIG1        0.2004
      3 C           1.6579    3.2425   -0.2866 C.ar    1  LIG1        0.2111
      4 C           0.5727    4.0484   -0.0188 C.ar    1  LIG1        0.2186
      5 O          -0.5365    3.2755    0.1853 O.2     1  LIG1       -0.4521
      6 H          -0.9388    1.2314    0.1949 H       1  LIG1        0.1069
      7 O           1.9807    0.8187   -0.4369 O.3     1  LIG1       -0.4888
      8 C           1.3324   -0.4448   -0.3660 C.3     1  LIG1        0.0791
      9 H           2.0958   -1.1987   -0.5605 H       1  LIG1        0.0660
     10 H           0.8978   -0.6106    0.6287 H       1  LIG1        0.0660
     11 H           0.5394   -0.5224   -1.1211 H       1  LIG1        0.0660
     12 O           2.9130    3.6532   -0.6127 O.3     1  LIG1       -0.4883
     13 C           3.9246    3.3072    0.3429 C.3     1  LIG1        0.0791
     14 H           4.8498    3.7627   -0.0148 H       1  LIG1        0.0660
     15 H           3.6807    3.7155    1.3306 H       1  LIG1        0.0660
     16 H           4.0457    2.2210    0.4130 H       1  LIG1        0.0660
     17 C           0.4298    5.4716    0.0803 C.ar    1  LIG1        0.2196
     18 C          -0.6381    6.3238    0.2652 C.ar    1  LIG1        0.2119
     19 C          -0.1013    7.6526    0.3049 C.ar    1  LIG1        0.2119
     20 C           1.2580    7.5349    0.1192 C.ar    1  LIG1        0.2197
     21 O           1.5804    6.2084   -0.0103 O.2     1  LIG1       -0.4407
     22 O          -1.9549    5.9829    0.3454 O.3     1  LIG1       -0.4883
     23 C          -2.5304    6.1692    1.6458 C.3     1  LIG1        0.0791
     24 H          -3.5854    5.9044    1.5535 H       1  LIG1        0.0660
     25 H          -2.0512    5.5097    2.3789 H       1  LIG1        0.0660
     26 H          -2.4372    7.2098    1.9737 H       1  LIG1        0.0660
     27 O          -0.8021    8.7957    0.5528 O.3     1  LIG1       -0.4883
     28 C          -1.6099    9.2356   -0.5519 C.3     1  LIG1        0.0791
     29 H          -2.1922   10.0830   -0.1845 H       1  LIG1        0.0660
     30 H          -0.9711    9.5599   -1.3794 H       1  LIG1        0.0660
     31 H          -2.2866    8.4408   -0.8824 H       1  LIG1        0.0660
     32 C           2.3461    8.4632    0.0283 C.ar    1  LIG1        0.2197
     33 C           2.4366    9.7973   -0.2928 C.ar    1  LIG1        0.2119
     34 C           3.8338   10.1237   -0.3171 C.ar    1  LIG1        0.2119
     35 C           4.5237    8.9658   -0.0115 C.ar    1  LIG1        0.2196
     36 O           3.6014    7.9556    0.2059 O.2     1  LIG1       -0.4407
     37 O           1.4113   10.6158   -0.6531 O.3     1  LIG1       -0.4883
     38 C           1.1371   11.6700    0.2802 C.3     1  LIG1        0.0791
     39 H           0.3516   12.2792   -0.1711 H       1  LIG1        0.0660
     40 H           0.7797   11.2559    1.2295 H       1  LIG1        0.0660
     41 H           2.0261   12.2862    0.4479 H       1  LIG1        0.0660
     42 O           4.2365   11.3768   -0.6337 O.3     1  LIG1       -0.4883
     43 C           5.5618   11.5461   -1.1400 C.3     1  LIG1        0.0791
     44 H           5.6158   12.5773   -1.4920 H       1  LIG1        0.0660
     45 H           6.3098   11.3779   -0.3610 H       1  LIG1        0.0660
     46 H           5.7487   10.8633   -1.9769 H       1  LIG1        0.0660
     47 C           5.9041    8.5930    0.1770 C.ar    1  LIG1        0.2186
     48 C           6.6566    7.4823   -0.1521 C.ar    1  LIG1        0.2111
     49 C           7.9507    7.6650    0.4584 C.ar    1  LIG1        0.2004
     50 C           7.9085    8.8637    1.1026 C.ar    1  LIG1        0.1381
     51 O           6.6862    9.4434    0.9455 O.2     1  LIG1       -0.4521
     52 H           8.6490    9.4222    1.6519 H       1  LIG1        0.1069
     53 O           6.3975    6.3817   -0.8979 O.3     1  LIG1       -0.4883
     54 C           5.3117    6.4190   -1.8337 C.3     1  LIG1        0.0791
     55 H           5.4866    5.5893   -2.5202 H       1  LIG1        0.0660
     56 H           4.3510    6.2865   -1.3318 H       1  LIG1        0.0660
     57 H           5.3152    7.3622   -2.3906 H       1  LIG1        0.0660
     58 O           9.0438    6.8624    0.3405 O.3     1  LIG1       -0.4888
     59 C           8.8631    5.5203    0.8064 C.3     1  LIG1        0.0791
     60 H           9.8162    5.0133    0.6456 H       1  LIG1        0.0660
     61 H           8.6201    5.5081    1.8764 H       1  LIG1        0.0660
     62 H           8.0744    5.0087    0.2473 H       1  LIG1        0.0660
@<TRIPOS>BOND
     1    55    54    1
     2    57    54    1
     3    46    43    1
     4    54    56    1
     5    54    53    1
     6    44    43    1
     7    30    28    1
     8    43    42    1
     9    43    45    1
    10    11     8    1
    11    53    48    1
    12    31    28    1
    13    37    33    1
    14    37    38    1
    15    42    34    1
    16    12     3    1
    17    12    13    1
    18     9     8    1
    19    28    29    1
    20    28    27    1
    21     7     8    1
    22     7     2    1
    23     8    10    1
    24    34    33   ar
    25    34    35   ar
    26    33    32   ar
    27     3     2   ar
    28     3     4   ar
    29     2     1   ar
    30    39    38    1
    31    48    47   ar
    32    48    49   ar
    33     4    17    1
    34     4     5   ar
    35    14    13    1
    36    35    47    1
    37    35    36   ar
    38    21    17   ar
    39    21    20   ar
    40    32    20    1
    41    32    36   ar
    42     1     5   ar
    43     1     6    1
    44    17    18   ar
    45    20    19   ar
    46    47    51   ar
    47    62    59    1
    48    18    19   ar
    49    18    22    1
    50    38    41    1
    51    38    40    1
    52    19    27    1
    53    58    49    1
    54    58    59    1
    55    13    16    1
    56    13    15    1
    57    22    23    1
    58    49    50   ar
    59    60    59    1
    60    59    61    1
    61    51    50   ar
    62    50    52    1
    63    24    23    1
    64    23    26    1
    65    23    25    1
