@<TRIPOS>MOLECULE
mol_data/opt/b3lyp/geoms/mol2/1312-13-.out
 25 27 0 0 0
SMALL
GASTEIGER

@<TRIPOS>ATOM
      1 C           1.2590   -0.3476    0.0002 C.ar    1  LIG1        0.0023
      2 C           0.8746    0.9772    0.0000 C.ar    1  LIG1       -0.0437
      3 C          -0.5439    1.0101    0.0004 C.ar    1  LIG1       -0.0334
      4 C          -0.9971   -0.3029    0.0002 C.ar    1  LIG1        0.0821
      5 N           0.1200   -1.1155    0.0000 N.ar    1  LIG1       -0.3583
      6 H           0.1000   -2.1220   -0.0004 H       1  LIG1        0.1654
      7 H           2.2376   -0.8032    0.0002 H       1  LIG1        0.0807
      8 H           1.5406    1.8281   -0.0001 H       1  LIG1        0.0633
      9 H          -1.1764    1.8852    0.0006 H       1  LIG1        0.0640
     10 C          -2.3327   -0.8389    0.0002 C.ar    1  LIG1        0.1518
     11 C          -2.8562   -2.1083    0.0002 C.ar    1  LIG1       -0.0137
     12 C          -4.2756   -1.9746    0.0002 C.ar    1  LIG1       -0.0137
     13 C          -4.5452   -0.6303    0.0001 C.ar    1  LIG1        0.1518
     14 O          -3.3613    0.0717    0.0001 O.2     1  LIG1       -0.4519
     15 H          -2.2999   -3.0352    0.0003 H       1  LIG1        0.0656
     16 H          -5.0053   -2.7707    0.0003 H       1  LIG1        0.0656
     17 C          -5.7514    0.1550    0.0001 C.ar    1  LIG1        0.0821
     18 C          -7.0927   -0.2103    0.0003 C.ar    1  LIG1       -0.0334
     19 C          -7.8604    0.9822   -0.0001 C.ar    1  LIG1       -0.0437
     20 C          -6.9786    2.0453   -0.0000 C.ar    1  LIG1        0.0023
     21 N          -5.7063    1.5337   -0.0003 N.ar    1  LIG1       -0.3583
     22 H          -4.8491    2.0627   -0.0003 H       1  LIG1        0.1654
     23 H          -7.1526    3.1106   -0.0002 H       1  LIG1        0.0807
     24 H          -7.4675   -1.2238    0.0006 H       1  LIG1        0.0640
     25 H          -8.9385    1.0556   -0.0003 H       1  LIG1        0.0633
@<TRIPOS>BOND
     1     6     5    1
     2    22    21    1
     3    25    19    1
     4    21    20   ar
     5    21    17   ar
     6    23    20    1
     7    19    20   ar
     8    19    18   ar
     9     8     2    1
    10     2     1   ar
    11     2     3   ar
    12     5     4   ar
    13     5     1   ar
    14    17    13    1
    15    17    18   ar
    16    14    13   ar
    17    14    10   ar
    18    13    12   ar
    19     4    10    1
    20     4     3   ar
    21    10    11   ar
    22     1     7    1
    23    11    12   ar
    24    11    15    1
    25    12    16    1
    26    18    24    1
    27     3     9    1
