@<TRIPOS>MOLECULE
mol_data/opt/b3lyp/geoms/mol2/1312-813-.out
 31 34 0 0 0
SMALL
GASTEIGER

@<TRIPOS>ATOM
      1 C           1.3202   -0.4824    0.0002 C.ar    1  LIG1        0.0023
      2 C           0.9947    0.8605   -0.0002 C.ar    1  LIG1       -0.0437
      3 C          -0.4180    0.9564    0.0004 C.ar    1  LIG1       -0.0334
      4 C          -0.9272   -0.3371    0.0002 C.ar    1  LIG1        0.0821
      5 N           0.1526   -1.2001    0.0000 N.ar    1  LIG1       -0.3583
      6 H           0.0910   -2.2051   -0.0003 H       1  LIG1        0.1654
      7 H           2.2789   -0.9788    0.0003 H       1  LIG1        0.0807
      8 H           1.6983    1.6804   -0.0005 H       1  LIG1        0.0633
      9 H          -1.0164    1.8554    0.0006 H       1  LIG1        0.0640
     10 C          -2.2851   -0.8046    0.0002 C.ar    1  LIG1        0.1519
     11 C          -2.8639   -2.0592    0.0003 C.ar    1  LIG1       -0.0137
     12 C          -4.2661   -1.8572    0.0003 C.ar    1  LIG1       -0.0120
     13 C          -4.4662   -0.4968    0.0003 C.ar    1  LIG1        0.1760
     14 O          -3.2574    0.1486    0.0003 O.2     1  LIG1       -0.4501
     15 H          -2.3490   -3.0093    0.0004 H       1  LIG1        0.0656
     16 H          -5.0463   -2.6031    0.0004 H       1  LIG1        0.0657
     17 C          -5.6709    0.2960    0.0003 C.ar    1  LIG1        0.2381
     18 N          -5.5754    1.6446    0.0003 N.ar    1  LIG1       -0.1220
     19 C          -7.8667    1.6427    0.0002 C.ar    1  LIG1        0.2194
     20 N          -6.8426   -0.3936    0.0003 N.ar    1  LIG1       -0.1220
     21 N          -6.6988    2.3262    0.0002 N.ar    1  LIG1       -0.1236
     22 N          -7.9571    0.2868    0.0003 N.ar    1  LIG1       -0.1236
     23 C          -9.0839    2.4133    0.0003 C.ar    1  LIG1        0.0875
     24 C         -10.4233    2.0347    0.0006 C.ar    1  LIG1       -0.0333
     25 C         -11.1938    3.2187    0.0000 C.ar    1  LIG1       -0.0437
     26 C         -10.3111    4.2895    0.0006 C.ar    1  LIG1        0.0023
     27 N          -9.0424    3.7918    0.0002 N.ar    1  LIG1       -0.3582
     28 H          -8.1759    4.3094    0.0003 H       1  LIG1        0.1654
     29 H         -10.4959    5.3534    0.0006 H       1  LIG1        0.0807
     30 H         -10.7776    1.0149    0.0007 H       1  LIG1        0.0640
     31 H         -12.2718    3.2908   -0.0003 H       1  LIG1        0.0633
@<TRIPOS>BOND
     1     8     2    1
     2     6     5    1
     3    31    25    1
     4     2     1   ar
     5     2     3   ar
     6    25    26   ar
     7    25    24   ar
     8     5     4   ar
     9     5     1   ar
    10     4    10    1
    11     4     3   ar
    12     1     7    1
    13    21    19   ar
    14    21    18   ar
    15    19    22   ar
    16    19    23    1
    17    27    28    1
    18    27    23   ar
    19    27    26   ar
    20    10    14   ar
    21    10    11   ar
    22    18    17   ar
    23    14    13   ar
    24    17    13    1
    25    17    20   ar
    26    22    20   ar
    27    13    12   ar
    28    23    24   ar
    29    11    12   ar
    30    11    15    1
    31    12    16    1
    32     3     9    1
    33    26    29    1
    34    24    30    1
