@<TRIPOS>MOLECULE
mol_data/opt/b3lyp/geoms/mol2/131244.out
 37 40 0 0 0
SMALL
GASTEIGER

@<TRIPOS>ATOM
      1 C           1.2504    0.0696   -0.0014 C.ar    1  LIG1        0.0023
      2 C           0.7784    1.3681   -0.0019 C.ar    1  LIG1       -0.0437
      3 C          -0.6377    1.3076   -0.0017 C.ar    1  LIG1       -0.0334
      4 C          -1.0002   -0.0347   -0.0008 C.ar    1  LIG1        0.0821
      5 N           0.1672   -0.7702   -0.0005 N.ar    1  LIG1       -0.3583
      6 H           0.1929   -1.7771    0.0000 H       1  LIG1        0.1654
      7 H           2.2579   -0.3179   -0.0014 H       1  LIG1        0.0807
      8 H           1.3863    2.2613   -0.0024 H       1  LIG1        0.0633
      9 H          -1.3232    2.1429   -0.0021 H       1  LIG1        0.0640
     10 C          -2.2883   -0.6751   -0.0001 C.ar    1  LIG1        0.1517
     11 C          -3.5830   -0.2164   -0.0002 C.ar    1  LIG1       -0.0138
     12 C          -4.4208   -1.3650    0.0007 C.ar    1  LIG1       -0.0152
     13 C          -3.6036   -2.4694    0.0014 C.ar    1  LIG1        0.1358
     14 O          -2.2913   -2.0467    0.0009 O.2     1  LIG1       -0.4534
     15 H          -3.8921    0.8182   -0.0009 H       1  LIG1        0.0656
     16 H          -5.5009   -1.3719    0.0009 H       1  LIG1        0.0656
     17 C          -5.1584   -4.4102    0.0029 C.ar    1  LIG1       -0.0505
     18 C          -5.3966   -5.7763    0.0039 C.ar    1  LIG1       -0.0534
     19 C          -3.8474   -3.8991    0.0024 C.ar    1  LIG1        0.0173
     20 C          -4.3489   -6.7195    0.0044 C.ar    1  LIG1       -0.0178
     21 H          -6.4290   -6.1055    0.0043 H       1  LIG1        0.0624
     22 C          -2.7933   -4.8294    0.0029 C.ar    1  LIG1       -0.0505
     23 C          -3.0421   -6.1954    0.0039 C.ar    1  LIG1       -0.0534
     24 H          -1.7691   -4.4736    0.0025 H       1  LIG1        0.0625
     25 H          -6.0035   -3.7286    0.0026 H       1  LIG1        0.0625
     26 H          -2.1863   -6.8605    0.0042 H       1  LIG1        0.0624
     27 C          -5.9212   -8.7030    0.0052 C.ar    1  LIG1       -0.0540
     28 C          -6.1667  -10.0739    0.0062 C.ar    1  LIG1       -0.0612
     29 C          -4.6108   -8.1864    0.0055 C.ar    1  LIG1       -0.0179
     30 C          -5.1086  -10.9826    0.0075 C.ar    1  LIG1       -0.0617
     31 H          -7.1925  -10.4312    0.0059 H       1  LIG1        0.0618
     32 C          -3.5591   -9.1235    0.0068 C.ar    1  LIG1       -0.0540
     33 C          -3.8018  -10.4948    0.0078 C.ar    1  LIG1       -0.0612
     34 H          -2.5284   -8.7888    0.0072 H       1  LIG1        0.0624
     35 H          -5.2988  -12.0516    0.0082 H       1  LIG1        0.0618
     36 H          -6.7733   -8.0336    0.0041 H       1  LIG1        0.0624
     37 H          -2.9624  -11.1843    0.0088 H       1  LIG1        0.0618
@<TRIPOS>BOND
     1     8     2    1
     2     9     3    1
     3     2     3   ar
     4     2     1   ar
     5     3     4   ar
     6     7     1    1
     7     1     5   ar
     8    15    11    1
     9     4     5   ar
    10     4    10    1
    11     5     6    1
    12    11    10   ar
    13    11    12   ar
    14    10    14   ar
    15    12    16    1
    16    12    13   ar
    17    14    13   ar
    18    13    19    1
    19    19    22   ar
    20    19    17   ar
    21    24    22    1
    22    25    17    1
    23    22    23   ar
    24    17    18   ar
    25    23    26    1
    26    23    20   ar
    27    18    21    1
    28    18    20   ar
    29    36    27    1
    30    20    29    1
    31    27    29   ar
    32    27    28   ar
    33    29    32   ar
    34    31    28    1
    35    28    30   ar
    36    32    34    1
    37    32    33   ar
    38    30    33   ar
    39    30    35    1
    40    33    37    1
