@<TRIPOS>MOLECULE
mol_data/opt/b3lyp/geoms/mol2/131244-.out
 37 40 0 0 0
SMALL
GASTEIGER

@<TRIPOS>ATOM
      1 C           1.2601    0.0503   -0.0010 C.ar    1  LIG1        0.0023
      2 C           0.7942    1.3510   -0.0011 C.ar    1  LIG1       -0.0437
      3 C          -0.6222    1.2973   -0.0008 C.ar    1  LIG1       -0.0334
      4 C          -0.9910   -0.0433   -0.0003 C.ar    1  LIG1        0.0821
      5 N           0.1729   -0.7843   -0.0003 N.ar    1  LIG1       -0.3583
      6 H           0.1938   -1.7913   -0.0002 H       1  LIG1        0.1654
      7 H           2.2657   -0.3419   -0.0012 H       1  LIG1        0.0807
      8 H           1.4064    2.2413   -0.0015 H       1  LIG1        0.0633
      9 H          -1.3037    2.1358   -0.0009 H       1  LIG1        0.0640
     10 C          -2.2821   -0.6776    0.0002 C.ar    1  LIG1        0.1517
     11 C          -3.5746   -0.2128    0.0004 C.ar    1  LIG1       -0.0138
     12 C          -4.4178   -1.3574    0.0010 C.ar    1  LIG1       -0.0152
     13 C          -3.6059   -2.4656    0.0012 C.ar    1  LIG1        0.1358
     14 O          -2.2916   -2.0492    0.0008 O.2     1  LIG1       -0.4534
     15 H          -3.8788    0.8233    0.0000 H       1  LIG1        0.0656
     16 H          -5.4979   -1.3592    0.0013 H       1  LIG1        0.0656
     17 C          -5.1699   -4.3990    0.0023 C.ar    1  LIG1       -0.0505
     18 C          -5.4145   -5.7640    0.0028 C.ar    1  LIG1       -0.0534
     19 C          -3.8564   -3.8942    0.0018 C.ar    1  LIG1        0.0173
     20 C          -4.3712   -6.7120    0.0030 C.ar    1  LIG1       -0.0178
     21 H          -6.4484   -6.0883    0.0032 H       1  LIG1        0.0624
     22 C          -2.8068   -4.8294    0.0019 C.ar    1  LIG1       -0.0505
     23 C          -3.0619   -6.1942    0.0025 C.ar    1  LIG1       -0.0534
     24 H          -1.7809   -4.4784    0.0016 H       1  LIG1        0.0625
     25 H          -6.0117   -3.7134    0.0022 H       1  LIG1        0.0625
     26 H          -2.2094   -6.8634    0.0025 H       1  LIG1        0.0624
     27 C          -3.5928   -9.1197    0.0045 C.ar    1  LIG1       -0.0540
     28 C          -3.8420  -10.4898    0.0051 C.ar    1  LIG1       -0.0612
     29 C          -4.6400   -8.1777    0.0035 C.ar    1  LIG1       -0.0179
     30 C          -5.1510  -10.9714    0.0046 C.ar    1  LIG1       -0.0617
     31 H          -3.0058  -11.1833    0.0059 H       1  LIG1        0.0618
     32 C          -5.9529   -8.6881    0.0031 C.ar    1  LIG1       -0.0540
     33 C          -6.2049  -10.0578    0.0037 C.ar    1  LIG1       -0.0612
     34 H          -6.8019   -8.0145    0.0023 H       1  LIG1        0.0624
     35 H          -5.3463  -12.0395    0.0051 H       1  LIG1        0.0618
     36 H          -2.5605   -8.7899    0.0050 H       1  LIG1        0.0624
     37 H          -7.2323  -10.4104    0.0033 H       1  LIG1        0.0618
@<TRIPOS>BOND
     1     8     2    1
     2     7     1    1
     3     2     1   ar
     4     2     3   ar
     5     1     5   ar
     6     9     3    1
     7     3     4   ar
     8     5     4   ar
     9     5     6    1
    10     4    10    1
    11    15    11    1
    12    10    11   ar
    13    10    14   ar
    14    11    12   ar
    15    14    13   ar
    16    12    13   ar
    17    12    16    1
    18    13    19    1
    19    24    22    1
    20    19    22   ar
    21    19    17   ar
    22    22    23   ar
    23    25    17    1
    24    17    18   ar
    25    34    32    1
    26    26    23    1
    27    23    20   ar
    28    18    20   ar
    29    18    21    1
    30    20    29    1
    31    32    29   ar
    32    32    33   ar
    33    37    33    1
    34    29    27   ar
    35    33    30   ar
    36    27    36    1
    37    27    28   ar
    38    30    35    1
    39    30    28   ar
    40    28    31    1
