@<TRIPOS>MOLECULE
mol_data/opt/b3lyp/geoms/mol2/131285-.out
 30 33 0 0 0
SMALL
GASTEIGER

@<TRIPOS>ATOM
      1 C           1.2163   -0.0239   -0.0002 C.ar    1  LIG1        0.0023
      2 C           0.7360    1.2739    0.0001 C.ar    1  LIG1       -0.0437
      3 C          -0.6772    1.2042   -0.0001 C.ar    1  LIG1       -0.0334
      4 C          -1.0289   -0.1424    0.0000 C.ar    1  LIG1        0.0821
      5 N           0.1433   -0.8711    0.0001 N.ar    1  LIG1       -0.3583
      6 H           0.1743   -1.8792    0.0002 H       1  LIG1        0.1654
      7 H           2.2272   -0.4026   -0.0002 H       1  LIG1        0.0807
      8 H           1.3388    2.1704    0.0002 H       1  LIG1        0.0633
      9 H          -1.3691    2.0342   -0.0002 H       1  LIG1        0.0640
     10 C          -2.3058   -0.7964    0.0001 C.ar    1  LIG1        0.1519
     11 C          -3.6140   -0.3545    0.0000 C.ar    1  LIG1       -0.0137
     12 C          -4.4293   -1.5112    0.0002 C.ar    1  LIG1       -0.0120
     13 C          -3.5827   -2.5965    0.0003 C.ar    1  LIG1        0.1760
     14 O          -2.2807   -2.1610    0.0002 O.2     1  LIG1       -0.4501
     15 H          -3.9381    0.6754   -0.0001 H       1  LIG1        0.0656
     16 H          -5.5076   -1.5635    0.0002 H       1  LIG1        0.0657
     17 C          -3.8268   -4.0142    0.0004 C.ar    1  LIG1        0.2381
     18 N          -5.1261   -4.4067    0.0004 N.ar    1  LIG1       -0.1220
     19 C          -4.3181   -6.5436    0.0006 C.ar    1  LIG1        0.2099
     20 N          -2.7692   -4.8629    0.0005 N.ar    1  LIG1       -0.1220
     21 N          -5.3713   -5.6904    0.0005 N.ar    1  LIG1       -0.1246
     22 N          -3.0240   -6.1503    0.0006 N.ar    1  LIG1       -0.1246
     23 C          -4.5997   -7.9653    0.0008 C.ar    1  LIG1        0.0598
     24 C          -3.6944   -9.0052    0.0010 C.ar    1  LIG1       -0.0438
     25 C          -4.3191  -10.2799    0.0011 C.ar    1  LIG1       -0.0540
     26 C          -5.6883  -10.1948    0.0010 C.ar    1  LIG1       -0.0236
     27 S          -6.2458   -8.5569    0.0008 S.2     1  LIG1       -0.0934
     28 H          -6.4049  -11.0048    0.0011 H       1  LIG1        0.0693
     29 H          -2.6247   -8.8369    0.0010 H       1  LIG1        0.0630
     30 H          -3.7781  -11.2189    0.0013 H       1  LIG1        0.0623
@<TRIPOS>BOND
     1     7     1    1
     2     9     3    1
     3     1     2   ar
     4     1     5   ar
     5    15    11    1
     6     3     4   ar
     7     3     2   ar
     8    11    10   ar
     9    11    12   ar
    10     4    10    1
    11     4     5   ar
    12    10    14   ar
    13     2     8    1
    14     5     6    1
    15    12    16    1
    16    12    13   ar
    17    14    13   ar
    18    13    17    1
    19    18    17   ar
    20    18    21   ar
    21    17    20   ar
    22    20    22   ar
    23    21    19   ar
    24    22    19   ar
    25    19    23    1
    26    27    23   ar
    27    27    26   ar
    28    23    24   ar
    29    24    29    1
    30    24    25   ar
    31    26    28    1
    32    26    25   ar
    33    25    30    1
