@<TRIPOS>MOLECULE
mol_data/opt/b3lyp/geoms/mol2/1312-4.out
 27 29 0 0 0
SMALL
GASTEIGER

@<TRIPOS>ATOM
      1 C           1.2887   -0.3731   -0.0007 C.ar    1  LIG1        0.0023
      2 C           0.9147    0.9554    0.0002 C.ar    1  LIG1       -0.0437
      3 C          -0.5027    0.9992    0.0004 C.ar    1  LIG1       -0.0334
      4 C          -0.9656   -0.3104    0.0001 C.ar    1  LIG1        0.0821
      5 N           0.1452   -1.1324   -0.0005 N.ar    1  LIG1       -0.3583
      6 H           0.1178   -2.1388   -0.0012 H       1  LIG1        0.1654
      7 H           2.2642   -0.8356   -0.0012 H       1  LIG1        0.0807
      8 H           1.5872    1.8012    0.0006 H       1  LIG1        0.0633
      9 H          -1.1302    1.8780    0.0010 H       1  LIG1        0.0640
     10 C          -2.3056   -0.8345    0.0003 C.ar    1  LIG1        0.1517
     11 C          -2.8356   -2.1032    0.0002 C.ar    1  LIG1       -0.0138
     12 C          -4.2508   -1.9528    0.0005 C.ar    1  LIG1       -0.0152
     13 C          -4.5138   -0.6056    0.0008 C.ar    1  LIG1        0.1358
     14 O          -3.3215    0.0799    0.0007 O.2     1  LIG1       -0.4534
     15 H          -2.2873   -3.0347   -0.0001 H       1  LIG1        0.0656
     16 H          -4.9818   -2.7480    0.0006 H       1  LIG1        0.0656
     17 C          -5.6928    1.5889    0.0019 C.ar    1  LIG1       -0.0511
     18 C          -6.8698    2.3333    0.0024 C.ar    1  LIG1       -0.0611
     19 C          -5.7364    0.1826    0.0013 C.ar    1  LIG1        0.0173
     20 C          -8.1116    1.6962    0.0023 C.ar    1  LIG1       -0.0617
     21 H          -6.8152    3.4182    0.0029 H       1  LIG1        0.0618
     22 C          -6.9943   -0.4501    0.0012 C.ar    1  LIG1       -0.0511
     23 C          -8.1656    0.2998    0.0016 C.ar    1  LIG1       -0.0611
     24 H          -7.0522   -1.5343    0.0007 H       1  LIG1        0.0625
     25 H          -9.0276    2.2794    0.0027 H       1  LIG1        0.0618
     26 H          -4.7308    2.0894    0.0020 H       1  LIG1        0.0625
     27 H          -9.1260   -0.2078    0.0015 H       1  LIG1        0.0618
@<TRIPOS>BOND
     1     6     5    1
     2     7     1    1
     3     1     5   ar
     4     1     2   ar
     5     5     4   ar
     6    15    11    1
     7     4    10    1
     8     4     3   ar
     9    11    10   ar
    10    11    12   ar
    11     2     3   ar
    12     2     8    1
    13    10    14   ar
    14     3     9    1
    15    12    16    1
    16    12    13   ar
    17    24    22    1
    18    14    13   ar
    19    13    19    1
    20    22    19   ar
    21    22    23   ar
    22    19    17   ar
    23    27    23    1
    24    23    20   ar
    25    17    26    1
    26    17    18   ar
    27    20    18   ar
    28    20    25    1
    29    18    21    1
