@<TRIPOS>MOLECULE
mol_data/opt/b3lyp/geoms/mol2/1312-12.out
 24 26 0 0 0
SMALL
GASTEIGER

@<TRIPOS>ATOM
      1 C           1.2431   -0.3415    0.0001 C.ar    1  LIG1        0.0023
      2 C           0.8597    0.9843   -0.0001 C.ar    1  LIG1       -0.0437
      3 C          -0.5580    1.0187    0.0004 C.ar    1  LIG1       -0.0334
      4 C          -1.0115   -0.2942    0.0001 C.ar    1  LIG1        0.0821
      5 N           0.1045   -1.1085   -0.0000 N.ar    1  LIG1       -0.3583
      6 H           0.0840   -2.1151   -0.0005 H       1  LIG1        0.1654
      7 H           2.2215   -0.7975    0.0001 H       1  LIG1        0.0807
      8 H           1.5267    1.8343   -0.0002 H       1  LIG1        0.0633
      9 H          -1.1923    1.8926    0.0007 H       1  LIG1        0.0640
     10 C          -2.3485   -0.8259    0.0002 C.ar    1  LIG1        0.1519
     11 C          -2.8730   -2.0972    0.0002 C.ar    1  LIG1       -0.0137
     12 C          -4.2905   -1.9589    0.0002 C.ar    1  LIG1       -0.0121
     13 C          -4.5492   -0.6124    0.0003 C.ar    1  LIG1        0.1706
     14 O          -3.3699    0.0874    0.0003 O.2     1  LIG1       -0.4503
     15 H          -2.3178   -3.0247    0.0002 H       1  LIG1        0.0656
     16 H          -5.0301   -2.7453    0.0002 H       1  LIG1        0.0657
     17 C          -5.7589    0.1600    0.0003 C.ar    1  LIG1        0.1697
     18 C          -6.0159    1.5073    0.0004 C.ar    1  LIG1       -0.0128
     19 C          -7.4395    1.6429    0.0004 C.ar    1  LIG1       -0.0232
     20 C          -7.9460    0.3791    0.0004 C.ar    1  LIG1        0.0927
     21 O          -6.9361   -0.5405    0.0003 O.2     1  LIG1       -0.4598
     22 H          -8.9460   -0.0241    0.0004 H       1  LIG1        0.1029
     23 H          -5.2761    2.2933    0.0004 H       1  LIG1        0.0656
     24 H          -8.0079    2.5616    0.0005 H       1  LIG1        0.0649
@<TRIPOS>BOND
     1     6     5    1
     2     8     2    1
     3     2     1   ar
     4     2     3   ar
     5     5     1   ar
     6     5     4   ar
     7     7     1    1
     8     4    10    1
     9     4     3   ar
    10    15    11    1
    11    11    10   ar
    12    11    12   ar
    13    10    14   ar
    14    12    16    1
    15    12    13   ar
    16    14    13   ar
    17    21    17   ar
    18    21    20   ar
    19    13    17    1
    20    17    18   ar
    21    20    22    1
    22    20    19   ar
    23    18    19   ar
    24    18    23    1
    25     3     9    1
    26    19    24    1
