@<TRIPOS>MOLECULE
mol_data/opt/b3lyp/geoms/mol2/1312-5.out
 24 26 0 0 0
SMALL
GASTEIGER

@<TRIPOS>ATOM
      1 C           1.2766   -0.3786    0.0002 C.ar    1  LIG1        0.0023
      2 C           0.9087    0.9517   -0.0002 C.ar    1  LIG1       -0.0437
      3 C          -0.5084    1.0025    0.0003 C.ar    1  LIG1       -0.0334
      4 C          -0.9772   -0.3051    0.0001 C.ar    1  LIG1        0.0821
      5 N           0.1294   -1.1324    0.0001 N.ar    1  LIG1       -0.3583
      6 H           0.0975   -2.1386   -0.0002 H       1  LIG1        0.1654
      7 H           2.2497   -0.8459    0.0003 H       1  LIG1        0.0807
      8 H           1.5855    1.7939   -0.0004 H       1  LIG1        0.0633
      9 H          -1.1322    1.8838    0.0005 H       1  LIG1        0.0640
     10 C          -2.3202   -0.8208    0.0002 C.ar    1  LIG1        0.1518
     11 C          -2.8584   -2.0864    0.0003 C.ar    1  LIG1       -0.0138
     12 C          -4.2731   -1.9296    0.0003 C.ar    1  LIG1       -0.0147
     13 C          -4.5235   -0.5798    0.0002 C.ar    1  LIG1        0.1423
     14 O          -3.3307    0.1024    0.0001 O.2     1  LIG1       -0.4528
     15 H          -2.3148   -3.0205    0.0004 H       1  LIG1        0.0656
     16 H          -5.0146   -2.7155    0.0003 H       1  LIG1        0.0656
     17 C          -5.7214    0.2195    0.0001 C.ar    1  LIG1        0.0544
     18 C          -5.8274    1.5938   -0.0002 C.ar    1  LIG1       -0.0440
     19 C          -7.1754    2.0519   -0.0002 C.ar    1  LIG1       -0.0540
     20 C          -8.0877    1.0335    0.0001 C.ar    1  LIG1       -0.0236
     21 S          -7.3105   -0.5213    0.0003 S.2     1  LIG1       -0.0936
     22 H          -9.1667    1.0928    0.0002 H       1  LIG1        0.0693
     23 H          -4.9600    2.2419   -0.0005 H       1  LIG1        0.0630
     24 H          -7.4545    3.0994   -0.0004 H       1  LIG1        0.0623
@<TRIPOS>BOND
     1    23    18    1
     2     8     2    1
     3    24    19    1
     4     6     5    1
     5    18    19   ar
     6    18    17   ar
     7    19    20   ar
     8     2     1   ar
     9     2     3   ar
    10    17    13    1
    11    17    21   ar
    12     5     4   ar
    13     5     1   ar
    14    20    22    1
    15    20    21   ar
    16    14    13   ar
    17    14    10   ar
    18     4    10    1
    19     4     3   ar
    20    13    12   ar
    21    10    11   ar
    22     1     7    1
    23    12    11   ar
    24    12    16    1
    25     3     9    1
    26    11    15    1
