@<TRIPOS>MOLECULE
mol_data/opt/b3lyp/geoms/mol2/13125.out
 24 26 0 0 0
SMALL
GASTEIGER

@<TRIPOS>ATOM
      1 C           1.2085   -0.2108   -0.0002 C.ar    1  LIG1        0.0023
      2 C           0.7898    1.1059    0.0004 C.ar    1  LIG1       -0.0437
      3 C          -0.6276    1.1033    0.0002 C.ar    1  LIG1       -0.0334
      4 C          -1.0439   -0.2235    0.0001 C.ar    1  LIG1        0.0821
      5 N           0.0924   -1.0060    0.0000 N.ar    1  LIG1       -0.3583
      6 H           0.0771   -2.0135   -0.0002 H       1  LIG1        0.1654
      7 H           2.1993   -0.6390   -0.0004 H       1  LIG1        0.0807
      8 H           1.4336    1.9736    0.0006 H       1  LIG1        0.0633
      9 H          -1.2784    1.9659    0.0003 H       1  LIG1        0.0640
     10 C          -2.3557   -0.8127    0.0001 C.ar    1  LIG1        0.1518
     11 C          -3.6341   -0.3107    0.0001 C.ar    1  LIG1       -0.0138
     12 C          -4.5145   -1.4282    0.0001 C.ar    1  LIG1       -0.0147
     13 C          -3.7327   -2.5577    0.0000 C.ar    1  LIG1        0.1423
     14 O          -2.4078   -2.1855    0.0001 O.2     1  LIG1       -0.4528
     15 H          -3.9069    0.7342    0.0001 H       1  LIG1        0.0656
     16 H          -5.5945   -1.4037    0.0002 H       1  LIG1        0.0656
     17 C          -4.0189   -3.9681   -0.0000 C.ar    1  LIG1        0.0544
     18 C          -5.2483   -4.5946   -0.0004 C.ar    1  LIG1       -0.0440
     19 C          -5.1549   -6.0141   -0.0003 C.ar    1  LIG1       -0.0540
     20 C          -3.8634   -6.4657    0.0001 C.ar    1  LIG1       -0.0236
     21 S          -2.7265   -5.1532    0.0005 S.2     1  LIG1       -0.0936
     22 H          -3.5065   -7.4857    0.0003 H       1  LIG1        0.0693
     23 H          -6.1864   -4.0518   -0.0008 H       1  LIG1        0.0630
     24 H          -6.0161   -6.6724   -0.0006 H       1  LIG1        0.0623
@<TRIPOS>BOND
     1    23    18    1
     2    24    19    1
     3    18    19   ar
     4    18    17   ar
     5     7     1    1
     6    19    20   ar
     7     6     5    1
     8     1     5   ar
     9     1     2   ar
    10    17    13    1
    11    17    21   ar
    12     5     4   ar
    13    13    14   ar
    14    13    12   ar
    15    14    10   ar
    16    10    11   ar
    17    10     4    1
    18    11    12   ar
    19    11    15    1
    20     4     3   ar
    21    12    16    1
    22    20    22    1
    23    20    21   ar
    24     3     9    1
    25     3     2   ar
    26     2     8    1
