@<TRIPOS>MOLECULE
mol_data/opt/b3lyp/geoms/mol2/1312-4-.out
 27 29 0 0 0
SMALL
GASTEIGER

@<TRIPOS>ATOM
      1 C           1.2941   -0.4010    0.0002 C.ar    1  LIG1        0.0023
      2 C           0.9310    0.9306    0.0005 C.ar    1  LIG1       -0.0437
      3 C          -0.4859    0.9861    0.0002 C.ar    1  LIG1       -0.0334
      4 C          -0.9596   -0.3197    0.0001 C.ar    1  LIG1        0.0821
      5 N           0.1443   -1.1508    0.0003 N.ar    1  LIG1       -0.3583
      6 H           0.1086   -2.1570   -0.0000 H       1  LIG1        0.1654
      7 H           2.2658   -0.8715    0.0003 H       1  LIG1        0.0807
      8 H           1.6105    1.7708    0.0008 H       1  LIG1        0.0633
      9 H          -1.1061    1.8700    0.0001 H       1  LIG1        0.0640
     10 C          -2.3039   -0.8326    0.0001 C.ar    1  LIG1        0.1517
     11 C          -2.8443   -2.0970    0.0002 C.ar    1  LIG1       -0.0138
     12 C          -4.2583   -1.9350    0.0000 C.ar    1  LIG1       -0.0152
     13 C          -4.5101   -0.5856   -0.0003 C.ar    1  LIG1        0.1358
     14 O          -3.3122    0.0901   -0.0003 O.2     1  LIG1       -0.4534
     15 H          -2.3036   -3.0329    0.0006 H       1  LIG1        0.0656
     16 H          -4.9958   -2.7240    0.0001 H       1  LIG1        0.0656
     17 C          -6.9895   -0.4092   -0.0009 C.ar    1  LIG1       -0.0511
     18 C          -8.1544    0.3507   -0.0012 C.ar    1  LIG1       -0.0611
     19 C          -5.7263    0.2126   -0.0006 C.ar    1  LIG1        0.0173
     20 C          -8.0885    1.7464   -0.0013 C.ar    1  LIG1       -0.0617
     21 H          -9.1191   -0.1487   -0.0014 H       1  LIG1        0.0618
     22 C          -5.6705    1.6186   -0.0007 C.ar    1  LIG1       -0.0511
     23 C          -6.8410    2.3729   -0.0010 C.ar    1  LIG1       -0.0611
     24 H          -4.7045    2.1106   -0.0005 H       1  LIG1        0.0625
     25 H          -8.9993    2.3375   -0.0015 H       1  LIG1        0.0618
     26 H          -7.0568   -1.4930   -0.0008 H       1  LIG1        0.0625
     27 H          -6.7774    3.4574   -0.0011 H       1  LIG1        0.0618
@<TRIPOS>BOND
     1    25    20    1
     2    21    18    1
     3    20    18   ar
     4    20    23   ar
     5    18    17   ar
     6    27    23    1
     7    23    22   ar
     8    17    26    1
     9    17    19   ar
    10    22    19   ar
    11    22    24    1
    12    19    13    1
    13    13    14   ar
    14    13    12   ar
    15    14    10   ar
    16     6     5    1
    17    12    16    1
    18    12    11   ar
    19    10     4    1
    20    10    11   ar
    21     9     3    1
    22     4     3   ar
    23     4     5   ar
    24     3     2   ar
    25     1     7    1
    26     1     5   ar
    27     1     2   ar
    28    11    15    1
    29     2     8    1
