@<TRIPOS>MOLECULE
mol_data/opt/b3lyp/geoms/mol2/131288-.out
 29 32 0 0 0
SMALL
GASTEIGER

@<TRIPOS>ATOM
      1 C           1.2152   -0.0564   -0.0002 C.ar    1  LIG1        0.0023
      2 C           0.7359    1.2433    0.0002 C.ar    1  LIG1       -0.0437
      3 C          -0.6754    1.1748   -0.0001 C.ar    1  LIG1       -0.0334
      4 C          -1.0284   -0.1729    0.0001 C.ar    1  LIG1        0.0821
      5 N           0.1439   -0.9028    0.0001 N.ar    1  LIG1       -0.3583
      6 H           0.1765   -1.9111    0.0001 H       1  LIG1        0.1654
      7 H           2.2262   -0.4348   -0.0004 H       1  LIG1        0.0807
      8 H           1.3399    2.1388    0.0004 H       1  LIG1        0.0633
      9 H          -1.3667    2.0052   -0.0001 H       1  LIG1        0.0640
     10 C          -2.3045   -0.8215    0.0001 C.ar    1  LIG1        0.1519
     11 C          -3.6133   -0.3686    0.0001 C.ar    1  LIG1       -0.0137
     12 C          -4.4339   -1.5158    0.0003 C.ar    1  LIG1       -0.0120
     13 C          -3.5939   -2.6107    0.0002 C.ar    1  LIG1        0.1760
     14 O          -2.2879   -2.1832    0.0002 O.2     1  LIG1       -0.4501
     15 H          -3.9290    0.6637    0.0000 H       1  LIG1        0.0656
     16 H          -5.5126   -1.5616    0.0003 H       1  LIG1        0.0657
     17 C          -3.8502   -4.0187    0.0003 C.ar    1  LIG1        0.2381
     18 N          -5.1572   -4.3989    0.0003 N.ar    1  LIG1       -0.1219
     19 C          -4.3669   -6.5324    0.0005 C.ar    1  LIG1        0.2435
     20 N          -2.7987   -4.8789    0.0003 N.ar    1  LIG1       -0.1219
     21 N          -5.4147   -5.6801    0.0004 N.ar    1  LIG1       -0.1217
     22 N          -3.0731   -6.1623    0.0004 N.ar    1  LIG1       -0.1217
     23 C          -4.6670   -7.9872    0.0006 C.ar    1  LIG1        0.2434
     24 N          -3.6199   -8.8358    0.0007 N.ar    1  LIG1       -0.1224
     25 C          -5.1814  -10.4825    0.0009 C.ar    1  LIG1        0.1605
     26 N          -5.9642   -8.3525    0.0005 N.ar    1  LIG1       -0.1224
     27 N          -3.8898  -10.1284    0.0008 N.ar    1  LIG1       -0.1338
     28 N          -6.2275   -9.6467    0.0006 N.ar    1  LIG1       -0.1338
     29 H          -5.4004  -11.5454    0.0004 H       1  LIG1        0.1085
@<TRIPOS>BOND
     1     7     1    1
     2     1     5   ar
     3     1     2   ar
     4     9     3    1
     5     3     4   ar
     6     3     2   ar
     7    15    11    1
     8     4     5   ar
     9     4    10    1
    10     5     6    1
    11    11    10   ar
    12    11    12   ar
    13    10    14   ar
    14    14    13   ar
    15     2     8    1
    16    13    12   ar
    17    13    17    1
    18    12    16    1
    19    17    18   ar
    20    17    20   ar
    21    18    21   ar
    22    20    22   ar
    23    22    19   ar
    24    21    19   ar
    25    29    25    1
    26    19    23    1
    27    26    23   ar
    28    26    28   ar
    29    23    24   ar
    30    28    25   ar
    31    24    27   ar
    32    27    25   ar
