@<TRIPOS>MOLECULE
mol_data/opt/b3lyp/geoms/mol2/13124-.out
 27 29 0 0 0
SMALL
GASTEIGER

@<TRIPOS>ATOM
      1 C           1.2332   -0.1482    0.0001 C.ar    1  LIG1        0.0023
      2 C           0.7954    1.1621    0.0001 C.ar    1  LIG1       -0.0437
      3 C          -0.6220    1.1389    0.0007 C.ar    1  LIG1       -0.0334
      4 C          -1.0196   -0.1934    0.0002 C.ar    1  LIG1        0.0821
      5 N           0.1281   -0.9591   -0.0002 N.ar    1  LIG1       -0.3583
      6 H           0.1271   -1.9663   -0.0007 H       1  LIG1        0.1654
      7 H           2.2301   -0.5621   -0.0000 H       1  LIG1        0.0807
      8 H           1.4266    2.0391    0.0001 H       1  LIG1        0.0633
      9 H          -1.2853    1.9920    0.0011 H       1  LIG1        0.0640
     10 C          -2.3243   -0.8002    0.0001 C.ar    1  LIG1        0.1517
     11 C          -3.6063   -0.3088    0.0005 C.ar    1  LIG1       -0.0138
     12 C          -4.4734   -1.4367    0.0001 C.ar    1  LIG1       -0.0152
     13 C          -3.6850   -2.5605   -0.0003 C.ar    1  LIG1        0.1358
     14 O          -2.3628   -2.1715   -0.0003 O.2     1  LIG1       -0.4534
     15 H          -3.8893    0.7334    0.0009 H       1  LIG1        0.0656
     16 H          -5.5534   -1.4156    0.0002 H       1  LIG1        0.0656
     17 C          -2.9245   -4.9346   -0.0011 C.ar    1  LIG1       -0.0511
     18 C          -3.2061   -6.2985   -0.0015 C.ar    1  LIG1       -0.0611
     19 C          -3.9650   -3.9875   -0.0007 C.ar    1  LIG1        0.0173
     20 C          -4.5270   -6.7493   -0.0015 C.ar    1  LIG1       -0.0617
     21 H          -2.3879   -7.0130   -0.0018 H       1  LIG1        0.0618
     22 C          -5.2939   -4.4538   -0.0007 C.ar    1  LIG1       -0.0511
     23 C          -5.5683   -5.8172   -0.0010 C.ar    1  LIG1       -0.0611
     24 H          -6.1141   -3.7426   -0.0003 H       1  LIG1        0.0625
     25 H          -4.7440   -7.8131   -0.0018 H       1  LIG1        0.0618
     26 H          -1.8957   -4.5930   -0.0011 H       1  LIG1        0.0625
     27 H          -6.6007   -6.1549   -0.0010 H       1  LIG1        0.0618
@<TRIPOS>BOND
     1    21    18    1
     2    25    20    1
     3    18    20   ar
     4    18    17   ar
     5    20    23   ar
     6    26    17    1
     7    17    19   ar
     8    23    27    1
     9    23    22   ar
    10     6     5    1
    11    19    22   ar
    12    19    13    1
    13    22    24    1
    14    14    13   ar
    15    14    10   ar
    16    13    12   ar
    17     5     1   ar
    18     5     4   ar
    19     7     1    1
    20     1     2   ar
    21     8     2    1
    22     2     3   ar
    23    12    16    1
    24    12    11   ar
    25    10     4    1
    26    10    11   ar
    27     4     3   ar
    28    11    15    1
    29     3     9    1
