@<TRIPOS>MOLECULE
mol_data/opt/b3lyp/geoms/mol2/13124.out
 27 29 0 0 0
SMALL
GASTEIGER

@<TRIPOS>ATOM
      1 C           1.2290   -0.1193   -0.0004 C.ar    1  LIG1        0.0023
      2 C           0.7807    1.1875   -0.0003 C.ar    1  LIG1       -0.0437
      3 C          -0.6365    1.1525   -0.0004 C.ar    1  LIG1       -0.0334
      4 C          -1.0232   -0.1831   -0.0000 C.ar    1  LIG1        0.0821
      5 N           0.1306   -0.9393    0.0001 N.ar    1  LIG1       -0.3583
      6 H           0.1379   -1.9465    0.0000 H       1  LIG1        0.1654
      7 H           2.2293   -0.5252   -0.0005 H       1  LIG1        0.0807
      8 H           1.4046    2.0697   -0.0004 H       1  LIG1        0.0633
      9 H          -1.3068    2.0001   -0.0005 H       1  LIG1        0.0640
     10 C          -2.3228   -0.8003    0.0003 C.ar    1  LIG1        0.1517
     11 C          -3.6088   -0.3197    0.0002 C.ar    1  LIG1       -0.0138
     12 C          -4.4663   -1.4548    0.0006 C.ar    1  LIG1       -0.0152
     13 C          -3.6686   -2.5721    0.0009 C.ar    1  LIG1        0.1358
     14 O          -2.3495   -2.1721    0.0007 O.2     1  LIG1       -0.4534
     15 H          -3.9009    0.7199   -0.0001 H       1  LIG1        0.0656
     16 H          -5.5464   -1.4424    0.0007 H       1  LIG1        0.0656
     17 C          -5.2613   -4.4789    0.0014 C.ar    1  LIG1       -0.0511
     18 C          -5.5242   -5.8446    0.0019 C.ar    1  LIG1       -0.0611
     19 C          -3.9364   -4.0012    0.0013 C.ar    1  LIG1        0.0173
     20 C          -4.4752   -6.7676    0.0021 C.ar    1  LIG1       -0.0617
     21 H          -6.5538   -6.1908    0.0021 H       1  LIG1        0.0618
     22 C          -2.8879   -4.9397    0.0015 C.ar    1  LIG1       -0.0511
     23 C          -3.1580   -6.3057    0.0019 C.ar    1  LIG1       -0.0611
     24 H          -1.8620   -4.5895    0.0014 H       1  LIG1        0.0625
     25 H          -4.6830   -7.8333    0.0025 H       1  LIG1        0.0618
     26 H          -6.0877   -3.7746    0.0013 H       1  LIG1        0.0625
     27 H          -2.3338   -7.0134    0.0021 H       1  LIG1        0.0618
@<TRIPOS>BOND
     1     7     1    1
     2     9     3    1
     3     1     2   ar
     4     1     5   ar
     5     3     2   ar
     6     3     4   ar
     7     8     2    1
     8    15    11    1
     9     4     5   ar
    10     4    10    1
    11     6     5    1
    12    11    10   ar
    13    11    12   ar
    14    10    14   ar
    15    12    16    1
    16    12    13   ar
    17    14    13   ar
    18    13    19    1
    19    19    17   ar
    20    19    22   ar
    21    26    17    1
    22    24    22    1
    23    17    18   ar
    24    22    23   ar
    25    18    21    1
    26    18    20   ar
    27    23    27    1
    28    23    20   ar
    29    20    25    1
