@<TRIPOS>MOLECULE
mol_data/opt/b3lyp/geoms/mol2/1312-.out
 17 18 0 0 0
SMALL
GASTEIGER

@<TRIPOS>ATOM
      1 C           1.1788   -0.3016   -0.0000 C.ar    1  LIG1        0.0023
      2 C           0.7761    1.0180    0.0002 C.ar    1  LIG1       -0.0437
      3 C          -0.6428    1.0313    0.0002 C.ar    1  LIG1       -0.0334
      4 C          -1.0764   -0.2872    0.0001 C.ar    1  LIG1        0.0821
      5 N           0.0509   -1.0851   -0.0000 N.ar    1  LIG1       -0.3583
      6 H           0.0443   -2.0918   -0.0004 H       1  LIG1        0.1654
      7 H           2.1639   -0.7436   -0.0001 H       1  LIG1        0.0807
      8 H           1.4303    1.8786    0.0003 H       1  LIG1        0.0633
      9 H          -1.2900    1.8957    0.0004 H       1  LIG1        0.0640
     10 C          -2.4078   -0.8403    0.0002 C.ar    1  LIG1        0.1508
     11 C          -2.9125   -2.1172    0.0003 C.ar    1  LIG1       -0.0144
     12 C          -4.3383   -1.9923    0.0003 C.ar    1  LIG1       -0.0233
     13 C          -4.6035   -0.6584    0.0002 C.ar    1  LIG1        0.0926
     14 O          -3.4407    0.0584    0.0001 O.2     1  LIG1       -0.4615
     15 H          -5.5120   -0.0774    0.0001 H       1  LIG1        0.1029
     16 H          -2.3461   -3.0378    0.0004 H       1  LIG1        0.0656
     17 H          -5.0638   -2.7931    0.0004 H       1  LIG1        0.0649
@<TRIPOS>BOND
     1     6     5    1
     2     7     1    1
     3     1     5   ar
     4     1     2   ar
     5     5     4   ar
     6    14    13   ar
     7    14    10   ar
     8     4    10    1
     9     4     3   ar
    10    15    13    1
    11    13    12   ar
    12    10    11   ar
    13     2     3   ar
    14     2     8    1
    15     3     9    1
    16    11    12   ar
    17    11    16    1
    18    12    17    1
