@<TRIPOS>MOLECULE
mol_data/opt/b3lyp/geoms/mol2/1312-134-.out
 35 38 0 0 0
SMALL
GASTEIGER

@<TRIPOS>ATOM
      1 C           1.3623   -0.3719   -0.0004 C.ar    1  LIG1        0.0023
      2 C           0.9880    0.9562    0.0008 C.ar    1  LIG1       -0.0437
      3 C          -0.4298    1.0006    0.0007 C.ar    1  LIG1       -0.0334
      4 C          -0.8924   -0.3092    0.0001 C.ar    1  LIG1        0.0821
      5 N           0.2182   -1.1313   -0.0004 N.ar    1  LIG1       -0.3583
      6 H           0.1910   -2.1376   -0.0012 H       1  LIG1        0.1654
      7 H           2.3376   -0.8347   -0.0010 H       1  LIG1        0.0807
      8 H           1.6607    1.8019    0.0013 H       1  LIG1        0.0633
      9 H          -1.0579    1.8788    0.0013 H       1  LIG1        0.0640
     10 C          -2.2331   -0.8310    0.0001 C.ar    1  LIG1        0.1518
     11 C          -2.7674   -2.0970   -0.0003 C.ar    1  LIG1       -0.0137
     12 C          -4.1839   -1.9449   -0.0002 C.ar    1  LIG1       -0.0137
     13 C          -4.4373   -0.5943    0.0003 C.ar    1  LIG1        0.1518
     14 O          -3.2482    0.0897    0.0005 O.2     1  LIG1       -0.4519
     15 H          -2.2213   -3.0297   -0.0006 H       1  LIG1        0.0656
     16 H          -4.9152   -2.7408   -0.0004 H       1  LIG1        0.0656
     17 C          -5.6337    0.2009    0.0007 C.ar    1  LIG1        0.0825
     18 C          -5.8022    1.5822    0.0012 C.ar    1  LIG1       -0.0328
     19 C          -7.1882    1.8411    0.0013 C.ar    1  LIG1       -0.0357
     20 C          -7.8643    0.6226    0.0009 C.ar    1  LIG1        0.0470
     21 N          -6.8924   -0.3595    0.0006 N.ar    1  LIG1       -0.3518
     22 H          -7.0729   -1.3492   -0.0002 H       1  LIG1        0.1660
     23 H          -5.0003    2.3050    0.0015 H       1  LIG1        0.0640
     24 H          -7.6504    2.8173    0.0017 H       1  LIG1        0.0639
     25 C          -9.7852   -0.9960    0.0013 C.ar    1  LIG1       -0.0526
     26 C         -11.1537   -1.2566    0.0012 C.ar    1  LIG1       -0.0611
     27 C          -9.2937    0.3237    0.0008 C.ar    1  LIG1       -0.0017
     28 C         -12.0734   -0.2080    0.0006 C.ar    1  LIG1       -0.0617
     29 H         -11.5007   -2.2860    0.0015 H       1  LIG1        0.0618
     30 C         -10.2377    1.3703    0.0003 C.ar    1  LIG1       -0.0526
     31 C         -11.6031    1.1078    0.0003 C.ar    1  LIG1       -0.0611
     32 H          -9.8943    2.3995   -0.0001 H       1  LIG1        0.0624
     33 H         -13.1397   -0.4116    0.0006 H       1  LIG1        0.0618
     34 H          -9.1015   -1.8406    0.0018 H       1  LIG1        0.0624
     35 H         -12.3056    1.9363   -0.0001 H       1  LIG1        0.0618
@<TRIPOS>BOND
     1     6     5    1
     2     7     1    1
     3    15    11    1
     4     5     1   ar
     5     5     4   ar
     6     1     2   ar
     7    16    12    1
     8    11    12   ar
     9    11    10   ar
    10    22    21    1
    11    12    13   ar
    12    35    31    1
    13    32    30    1
    14    10     4    1
    15    10    14   ar
    16     4     3   ar
    17    31    30   ar
    18    31    28   ar
    19    30    27   ar
    20    13    14   ar
    21    13    17    1
    22    33    28    1
    23    21    17   ar
    24    21    20   ar
    25    28    26   ar
    26    17    18   ar
    27     3     2   ar
    28     3     9    1
    29     2     8    1
    30    27    20    1
    31    27    25   ar
    32    20    19   ar
    33    26    25   ar
    34    26    29    1
    35    18    19   ar
    36    18    23    1
    37    25    34    1
    38    19    24    1
