@<TRIPOS>MOLECULE
mol_data/opt/b3lyp/geoms/mol2/1312-8.out
 23 25 0 0 0
SMALL
GASTEIGER

@<TRIPOS>ATOM
      1 C           1.2516   -0.3888    0.0001 C.ar    1  LIG1        0.0023
      2 C           0.8965    0.9472   -0.0001 C.ar    1  LIG1       -0.0437
      3 C          -0.5170    1.0117    0.0004 C.ar    1  LIG1       -0.0334
      4 C          -0.9973   -0.2932    0.0001 C.ar    1  LIG1        0.0821
      5 N           0.1015   -1.1325   -0.0000 N.ar    1  LIG1       -0.3583
      6 H           0.0630   -2.1387   -0.0005 H       1  LIG1        0.1654
      7 H           2.2214   -0.8633    0.0001 H       1  LIG1        0.0807
      8 H           1.5818    1.7823   -0.0002 H       1  LIG1        0.0633
      9 H          -1.1355    1.8970    0.0007 H       1  LIG1        0.0640
     10 C          -2.3440   -0.7887    0.0002 C.ar    1  LIG1        0.1519
     11 C          -2.8949   -2.0578    0.0002 C.ar    1  LIG1       -0.0137
     12 C          -4.2991   -1.8869    0.0003 C.ar    1  LIG1       -0.0120
     13 C          -4.5300   -0.5307    0.0003 C.ar    1  LIG1        0.1760
     14 O          -3.3353    0.1418    0.0003 O.2     1  LIG1       -0.4501
     15 H          -2.3587   -2.9960    0.0002 H       1  LIG1        0.0656
     16 H          -5.0627   -2.6500    0.0003 H       1  LIG1        0.0657
     17 C          -5.7517    0.2323    0.0004 C.ar    1  LIG1        0.2381
     18 N          -5.6804    1.5855    0.0004 N.ar    1  LIG1       -0.1226
     19 C          -7.9530    1.5258    0.0005 C.ar    1  LIG1        0.1605
     20 N          -6.9043   -0.4859    0.0004 N.ar    1  LIG1       -0.1226
     21 N          -6.8240    2.2445    0.0005 N.ar    1  LIG1       -0.1338
     22 N          -8.0343    0.1855    0.0004 N.ar    1  LIG1       -0.1338
     23 H          -8.8884    2.0750    0.0004 H       1  LIG1        0.1085
@<TRIPOS>BOND
     1     6     5    1
     2     8     2    1
     3     2     1   ar
     4     2     3   ar
     5     5     1   ar
     6     5     4   ar
     7     7     1    1
     8     4    10    1
     9     4     3   ar
    10    15    11    1
    11    11    10   ar
    12    11    12   ar
    13    10    14   ar
    14    12    16    1
    15    12    13   ar
    16    14    13   ar
    17    13    17    1
    18    17    20   ar
    19    17    18   ar
    20    20    22   ar
    21     3     9    1
    22    18    21   ar
    23    23    19    1
    24    22    19   ar
    25    21    19   ar
