@<TRIPOS>MOLECULE
mol_data/opt/b3lyp/geoms/mol2/131212-.out
 24 26 0 0 0
SMALL
GASTEIGER

@<TRIPOS>ATOM
      1 C           1.2129   -0.2086    0.0002 C.ar    1  LIG1        0.0023
      2 C           0.7846    1.1048   -0.0002 C.ar    1  LIG1       -0.0437
      3 C          -0.6330    1.0922    0.0002 C.ar    1  LIG1       -0.0334
      4 C          -1.0401   -0.2372    0.0001 C.ar    1  LIG1        0.0821
      5 N           0.1018   -1.0115    0.0001 N.ar    1  LIG1       -0.3583
      6 H           0.0926   -2.0188   -0.0001 H       1  LIG1        0.1654
      7 H           2.2067   -0.6298    0.0002 H       1  LIG1        0.0807
      8 H           1.4222    1.9771   -0.0005 H       1  LIG1        0.0633
      9 H          -1.2902    1.9499    0.0003 H       1  LIG1        0.0640
     10 C          -2.3487   -0.8352    0.0002 C.ar    1  LIG1        0.1519
     11 C          -3.6289   -0.3388    0.0003 C.ar    1  LIG1       -0.0137
     12 C          -4.5059   -1.4605    0.0003 C.ar    1  LIG1       -0.0121
     13 C          -3.7145   -2.5802    0.0002 C.ar    1  LIG1        0.1706
     14 O          -2.3913   -2.2100    0.0002 O.2     1  LIG1       -0.4503
     15 H          -3.9056    0.7051    0.0003 H       1  LIG1        0.0656
     16 H          -5.5855   -1.4521    0.0003 H       1  LIG1        0.0657
     17 C          -3.9949   -3.9875    0.0003 C.ar    1  LIG1        0.1697
     18 C          -3.2041   -5.1087    0.0004 C.ar    1  LIG1       -0.0128
     19 C          -4.0947   -6.2276    0.0004 C.ar    1  LIG1       -0.0232
     20 C          -5.3557   -5.7147    0.0002 C.ar    1  LIG1        0.0927
     21 O          -5.3159   -4.3493    0.0003 O.2     1  LIG1       -0.4598
     22 H          -6.3403   -6.1541    0.0002 H       1  LIG1        0.1029
     23 H          -2.1249   -5.1252    0.0005 H       1  LIG1        0.0656
     24 H          -3.8281   -7.2745    0.0004 H       1  LIG1        0.0649
@<TRIPOS>BOND
     1     8     2    1
     2     2     1   ar
     3     2     3   ar
     4     6     5    1
     5     5     4   ar
     6     5     1   ar
     7     4     3   ar
     8     4    10    1
     9     1     7    1
    10    14    10   ar
    11    14    13   ar
    12    22    20    1
    13     3     9    1
    14    10    11   ar
    15    20    21   ar
    16    20    19   ar
    17    13    12   ar
    18    13    17    1
    19    21    17   ar
    20    12    11   ar
    21    12    16    1
    22    11    15    1
    23    17    18   ar
    24    19    18   ar
    25    19    24    1
    26    18    23    1
