@<TRIPOS>MOLECULE
mol_data/opt/b3lyp/geoms/mol2/1312-55.out
 31 34 0 0 0
SMALL
GASTEIGER

@<TRIPOS>ATOM
      1 C           1.3652   -0.4272   -0.0001 C.ar    1  LIG1        0.0023
      2 C           1.0108    0.9069   -0.0001 C.ar    1  LIG1       -0.0437
      3 C          -0.4053    0.9722    0.0001 C.ar    1  LIG1       -0.0334
      4 C          -0.8876   -0.3310    0.0001 C.ar    1  LIG1        0.0821
      5 N           0.2108   -1.1695    0.0001 N.ar    1  LIG1       -0.3583
      6 H           0.1692   -2.1754   -0.0002 H       1  LIG1        0.1654
      7 H           2.3336   -0.9041   -0.0002 H       1  LIG1        0.0807
      8 H           1.6962    1.7422   -0.0002 H       1  LIG1        0.0633
      9 H          -1.0202    1.8597    0.0002 H       1  LIG1        0.0640
     10 C          -2.2351   -0.8319    0.0003 C.ar    1  LIG1        0.1518
     11 C          -2.7869   -2.0925    0.0006 C.ar    1  LIG1       -0.0138
     12 C          -4.1986   -1.9223    0.0006 C.ar    1  LIG1       -0.0147
     13 C          -4.4362   -0.5685    0.0003 C.ar    1  LIG1        0.1423
     14 O          -3.2358    0.1018    0.0001 O.2     1  LIG1       -0.4528
     15 H          -2.2528   -3.0321    0.0007 H       1  LIG1        0.0656
     16 H          -4.9478   -2.7008    0.0007 H       1  LIG1        0.0656
     17 C          -5.6227    0.2401    0.0002 C.ar    1  LIG1        0.0550
     18 C          -5.7176    1.6173   -0.0002 C.ar    1  LIG1       -0.0434
     19 C          -7.0510    2.0892   -0.0003 C.ar    1  LIG1       -0.0457
     20 C          -8.0021    1.0876    0.0002 C.ar    1  LIG1        0.0266
     21 S          -7.2175   -0.4858    0.0006 S.2     1  LIG1       -0.0847
     22 H          -4.8446    2.2577   -0.0006 H       1  LIG1        0.0630
     23 H          -7.3089    3.1416   -0.0006 H       1  LIG1        0.0629
     24 C          -9.4439    1.2296    0.0003 C.ar    1  LIG1        0.0259
     25 C         -10.1786    2.3993    0.0004 C.ar    1  LIG1       -0.0464
     26 C         -11.5846    2.1887    0.0005 C.ar    1  LIG1       -0.0541
     27 C         -11.9279    0.8645    0.0004 C.ar    1  LIG1       -0.0237
     28 S         -10.5240   -0.1550    0.0002 S.2     1  LIG1       -0.0961
     29 H         -12.9135    0.4215    0.0004 H       1  LIG1        0.0693
     30 H          -9.7211    3.3814    0.0005 H       1  LIG1        0.0629
     31 H         -12.3126    2.9919    0.0006 H       1  LIG1        0.0623
@<TRIPOS>BOND
     1    23    19    1
     2    22    18    1
     3    19    18   ar
     4    19    20   ar
     5    18    17   ar
     6     8     2    1
     7     7     1    1
     8     6     5    1
     9     2     1   ar
    10     2     3   ar
    11     1     5   ar
    12     5     4   ar
    13     3     4   ar
    14     3     9    1
    15     4    10    1
    16    14    10   ar
    17    14    13   ar
    18    20    24    1
    19    20    21   ar
    20    17    13    1
    21    17    21   ar
    22    28    24   ar
    23    28    27   ar
    24    24    25   ar
    25    10    11   ar
    26    13    12   ar
    27    27    29    1
    28    27    26   ar
    29    25    26   ar
    30    25    30    1
    31    26    31    1
    32    11    12   ar
    33    11    15    1
    34    12    16    1
