@<TRIPOS>MOLECULE
mol_data/opt/b3lyp/geoms/mol2/13125-.out
 24 26 0 0 0
SMALL
GASTEIGER

@<TRIPOS>ATOM
      1 C           1.2287   -0.1463   -0.0002 C.ar    1  LIG1        0.0023
      2 C           0.7823    1.1611    0.0002 C.ar    1  LIG1       -0.0437
      3 C          -0.6348    1.1287   -0.0001 C.ar    1  LIG1       -0.0334
      4 C          -1.0234   -0.2064    0.0001 C.ar    1  LIG1        0.0821
      5 N           0.1292   -0.9647    0.0001 N.ar    1  LIG1       -0.3583
      6 H           0.1346   -1.9720    0.0001 H       1  LIG1        0.1654
      7 H           2.2284   -0.5536   -0.0004 H       1  LIG1        0.0807
      8 H           1.4078    2.0421    0.0003 H       1  LIG1        0.0633
      9 H          -1.3037    1.9773   -0.0001 H       1  LIG1        0.0640
     10 C          -2.3237   -0.8210    0.0001 C.ar    1  LIG1        0.1518
     11 C          -3.6093   -0.3384    0.0001 C.ar    1  LIG1       -0.0138
     12 C          -4.4708   -1.4704    0.0002 C.ar    1  LIG1       -0.0147
     13 C          -3.6715   -2.5868    0.0004 C.ar    1  LIG1        0.1423
     14 O          -2.3513   -2.1948    0.0003 O.2     1  LIG1       -0.4528
     15 H          -3.8987    0.7019   -0.0001 H       1  LIG1        0.0656
     16 H          -5.5513   -1.4634    0.0003 H       1  LIG1        0.0656
     17 C          -3.9260   -4.0033    0.0005 C.ar    1  LIG1        0.0544
     18 C          -3.0139   -5.0373    0.0009 C.ar    1  LIG1       -0.0440
     19 C          -3.6232   -6.3241    0.0010 C.ar    1  LIG1       -0.0540
     20 C          -4.9891   -6.2700    0.0007 C.ar    1  LIG1       -0.0236
     21 S          -5.5641   -4.6296    0.0003 S.2     1  LIG1       -0.0936
     22 H          -5.6978   -7.0858    0.0007 H       1  LIG1        0.0693
     23 H          -1.9442   -4.8697    0.0011 H       1  LIG1        0.0630
     24 H          -3.0652   -7.2535    0.0012 H       1  LIG1        0.0623
@<TRIPOS>BOND
     1     7     1    1
     2     1     5   ar
     3     1     2   ar
     4     9     3    1
     5    15    11    1
     6     3     4   ar
     7     3     2   ar
     8     6     5    1
     9    11    10   ar
    10    11    12   ar
    11     4     5   ar
    12     4    10    1
    13    10    14   ar
    14     2     8    1
    15    12    16    1
    16    12    13   ar
    17    21    17   ar
    18    21    20   ar
    19    14    13   ar
    20    13    17    1
    21    17    18   ar
    22    20    22    1
    23    20    19   ar
    24    18    19   ar
    25    18    23    1
    26    19    24    1
