@<TRIPOS>MOLECULE
mol_data/opt/b3lyp/geoms/mol2/1312-8-4.out
 33 36 0 0 0
SMALL
GASTEIGER

@<TRIPOS>ATOM
      1 C           1.3447   -0.5117   -0.0007 C.ar    1  LIG1        0.0023
      2 C           1.0250    0.8329    0.0004 C.ar    1  LIG1       -0.0437
      3 C          -0.3867    0.9350    0.0003 C.ar    1  LIG1       -0.0334
      4 C          -0.9015   -0.3567   -0.0000 C.ar    1  LIG1        0.0821
      5 N           0.1747   -1.2246   -0.0005 N.ar    1  LIG1       -0.3583
      6 H           0.1093   -2.2294   -0.0011 H       1  LIG1        0.1654
      7 H           2.3013   -1.0119   -0.0012 H       1  LIG1        0.0807
      8 H           1.7321    1.6497    0.0009 H       1  LIG1        0.0633
      9 H          -0.9812    1.8365    0.0008 H       1  LIG1        0.0640
     10 C          -2.2611   -0.8169    0.0001 C.ar    1  LIG1        0.1519
     11 C          -2.8464   -2.0696   -0.0001 C.ar    1  LIG1       -0.0137
     12 C          -4.2463   -1.8605    0.0001 C.ar    1  LIG1       -0.0120
     13 C          -4.4400   -0.4987    0.0004 C.ar    1  LIG1        0.1760
     14 O          -3.2276    0.1406    0.0004 O.2     1  LIG1       -0.4501
     15 H          -2.3361   -3.0221   -0.0003 H       1  LIG1        0.0656
     16 H          -5.0303   -2.6024    0.0001 H       1  LIG1        0.0657
     17 C          -5.6396    0.2993    0.0008 C.ar    1  LIG1        0.2381
     18 N          -6.8145   -0.3788    0.0008 N.ar    1  LIG1       -0.1220
     19 C          -7.8270    1.6722    0.0013 C.ar    1  LIG1        0.2034
     20 N          -5.5353    1.6486    0.0010 N.ar    1  LIG1       -0.1220
     21 N          -7.9199    0.3212    0.0011 N.ar    1  LIG1       -0.1251
     22 N          -6.6531    2.3386    0.0013 N.ar    1  LIG1       -0.1251
     23 C          -9.0308    3.8604    0.0020 C.ar    1  LIG1       -0.0509
     24 C         -10.2114    4.5979    0.0023 C.ar    1  LIG1       -0.0611
     25 C          -9.0760    2.4561    0.0017 C.ar    1  LIG1        0.0226
     26 C         -11.4479    3.9478    0.0023 C.ar    1  LIG1       -0.0617
     27 H         -10.1670    5.6829    0.0026 H       1  LIG1        0.0618
     28 C         -10.3222    1.8071    0.0016 C.ar    1  LIG1       -0.0509
     29 C         -11.4984    2.5520    0.0019 C.ar    1  LIG1       -0.0611
     30 H         -10.3523    0.7238    0.0013 H       1  LIG1        0.0625
     31 H         -12.3673    4.5261    0.0025 H       1  LIG1        0.0618
     32 H          -8.0670    4.3561    0.0021 H       1  LIG1        0.0625
     33 H         -12.4572    2.0420    0.0018 H       1  LIG1        0.0618
@<TRIPOS>BOND
     1     7     1    1
     2     6     5    1
     3     1     5   ar
     4     1     2   ar
     5     5     4   ar
     6    15    11    1
     7    11    10   ar
     8    11    12   ar
     9     4    10    1
    10     4     3   ar
    11    10    14   ar
    12    16    12    1
    13    12    13   ar
    14     3     2   ar
    15     3     9    1
    16    14    13   ar
    17     2     8    1
    18    13    17    1
    19    17    18   ar
    20    17    20   ar
    21    18    21   ar
    22    20    22   ar
    23    21    19   ar
    24    30    28    1
    25    22    19   ar
    26    19    25    1
    27    28    25   ar
    28    28    29   ar
    29    25    23   ar
    30    33    29    1
    31    29    26   ar
    32    23    32    1
    33    23    24   ar
    34    26    24   ar
    35    26    31    1
    36    24    27    1
