@<TRIPOS>MOLECULE
mol_data/opt/b3lyp/geoms/mol2/1312.out
 17 18 0 0 0
SMALL
GASTEIGER

@<TRIPOS>ATOM
      1 C           1.1754   -0.2865    0.0000 C.ar    1  LIG1        0.0023
      2 C           0.7666    1.0325    0.0001 C.ar    1  LIG1       -0.0437
      3 C          -0.6521    1.0403    0.0002 C.ar    1  LIG1       -0.0334
      4 C          -1.0779   -0.2819    0.0001 C.ar    1  LIG1        0.0821
      5 N           0.0518   -1.0728    0.0000 N.ar    1  LIG1       -0.3583
      6 H           0.0266   -2.0799   -0.0001 H       1  LIG1        0.1654
      7 H           2.1627   -0.7228    0.0000 H       1  LIG1        0.0807
      8 H           1.4167    1.8956    0.0001 H       1  LIG1        0.0633
      9 H          -1.2965    1.9077    0.0003 H       1  LIG1        0.0640
     10 C          -2.3966   -0.8656    0.0001 C.ar    1  LIG1        0.1508
     11 C          -3.6691   -0.3566    0.0002 C.ar    1  LIG1       -0.0144
     12 C          -4.5573   -1.4791    0.0002 C.ar    1  LIG1       -0.0233
     13 C          -3.7754   -2.5916    0.0001 C.ar    1  LIG1        0.0926
     14 O          -2.4523   -2.2390    0.0001 O.2     1  LIG1       -0.4615
     15 H          -3.9794   -3.6503    0.0001 H       1  LIG1        0.1029
     16 H          -3.9372    0.6894    0.0002 H       1  LIG1        0.0656
     17 H          -5.6375   -1.4554    0.0002 H       1  LIG1        0.0649
@<TRIPOS>BOND
     1     6     5    1
     2     7     1    1
     3     5     1   ar
     4     5     4   ar
     5     1     2   ar
     6     2     8    1
     7     2     3   ar
     8    14    13   ar
     9    14    10   ar
    10    15    13    1
    11     4    10    1
    12     4     3   ar
    13    13    12   ar
    14    10    11   ar
    15    12    11   ar
    16    12    17    1
    17    11    16    1
    18     3     9    1
