@<TRIPOS>MOLECULE
mol_data/opt/b3lyp/geoms/mol2/13121313-.out
 33 36 0 0 0
SMALL
GASTEIGER

@<TRIPOS>ATOM
      1 C           1.2143   -0.0655   -0.0006 C.ar    1  LIG1        0.0023
      2 C           0.7639    1.2396   -0.0005 C.ar    1  LIG1       -0.0437
      3 C          -0.6538    1.2034   -0.0001 C.ar    1  LIG1       -0.0334
      4 C          -1.0402   -0.1322   -0.0001 C.ar    1  LIG1        0.0821
      5 N           0.1151   -0.8869   -0.0003 N.ar    1  LIG1       -0.3583
      6 H           0.1257   -1.8934   -0.0006 H       1  LIG1        0.1654
      7 H           2.2147   -0.4709   -0.0008 H       1  LIG1        0.0807
      8 H           1.3865    2.1228   -0.0005 H       1  LIG1        0.0633
      9 H          -1.3245    2.0505    0.0001 H       1  LIG1        0.0640
     10 C          -2.3415   -0.7456    0.0002 C.ar    1  LIG1        0.1518
     11 C          -3.6245   -0.2608    0.0004 C.ar    1  LIG1       -0.0137
     12 C          -4.4961   -1.3867    0.0006 C.ar    1  LIG1       -0.0137
     13 C          -3.7039   -2.5073    0.0006 C.ar    1  LIG1        0.1518
     14 O          -2.3780   -2.1248    0.0003 O.2     1  LIG1       -0.4519
     15 H          -3.9081    0.7813    0.0003 H       1  LIG1        0.0656
     16 H          -5.5760   -1.3735    0.0008 H       1  LIG1        0.0656
     17 C          -3.9701   -3.9185    0.0007 C.ar    1  LIG1        0.0826
     18 C          -5.1669   -4.6275    0.0006 C.ar    1  LIG1       -0.0328
     19 C          -4.8490   -6.0042    0.0009 C.ar    1  LIG1       -0.0343
     20 C          -3.4612   -6.1283    0.0011 C.ar    1  LIG1        0.0634
     21 N          -2.9512   -4.8490    0.0011 N.ar    1  LIG1       -0.3506
     22 H          -1.9733   -4.6110    0.0008 H       1  LIG1        0.1660
     23 H          -6.1557   -4.1921    0.0005 H       1  LIG1        0.0640
     24 H          -5.5601   -6.8189    0.0010 H       1  LIG1        0.0639
     25 C          -2.6025   -7.2900    0.0014 C.ar    1  LIG1        0.0629
     26 C          -1.2174   -7.4132    0.0028 C.ar    1  LIG1       -0.0350
     27 C          -0.9019   -8.7977    0.0024 C.ar    1  LIG1       -0.0438
     28 C          -2.0926   -9.4921    0.0009 C.ar    1  LIG1        0.0022
     29 N          -3.1133   -8.5724    0.0003 N.ar    1  LIG1       -0.3595
     30 H          -4.0951   -8.7950   -0.0008 H       1  LIG1        0.1654
     31 H          -2.2967  -10.5520    0.0002 H       1  LIG1        0.0807
     32 H          -0.5075   -6.5974    0.0040 H       1  LIG1        0.0639
     33 H           0.0863   -9.2350    0.0032 H       1  LIG1        0.0633
@<TRIPOS>BOND
     1     7     1    1
     2    30    29    1
     3     1     2   ar
     4     1     5   ar
     5     6     5    1
     6     8     2    1
     7     2     3   ar
     8     5     4   ar
     9     3     4   ar
    10     3     9    1
    11     4    10    1
    12    31    28    1
    13    10    14   ar
    14    10    11   ar
    15    29    28   ar
    16    29    25   ar
    17    15    11    1
    18    14    13   ar
    19    11    12   ar
    20    23    18    1
    21    13    12   ar
    22    13    17    1
    23    12    16    1
    24    18    17   ar
    25    18    19   ar
    26    17    21   ar
    27    22    21    1
    28    19    24    1
    29    19    20   ar
    30    28    27   ar
    31    21    20   ar
    32    20    25    1
    33    25    26   ar
    34    27    26   ar
    35    27    33    1
    36    26    32    1
