@<TRIPOS>MOLECULE
mol_data/opt/b3lyp/geoms/mol2/1312-12-.out
 24 26 0 0 0
SMALL
GASTEIGER

@<TRIPOS>ATOM
      1 C           1.2655   -0.3932    0.0001 C.ar    1  LIG1        0.0023
      2 C           0.9074    0.9397   -0.0001 C.ar    1  LIG1       -0.0437
      3 C          -0.5094    1.0017    0.0004 C.ar    1  LIG1       -0.0334
      4 C          -0.9876   -0.3023    0.0001 C.ar    1  LIG1        0.0821
      5 N           0.1124   -1.1384   -0.0001 N.ar    1  LIG1       -0.3583
      6 H           0.0730   -2.1443   -0.0005 H       1  LIG1        0.1654
      7 H           2.2350   -0.8678    0.0000 H       1  LIG1        0.0807
      8 H           1.5906    1.7768   -0.0002 H       1  LIG1        0.0633
      9 H          -1.1281    1.8867    0.0007 H       1  LIG1        0.0640
     10 C          -2.3351   -0.8063    0.0002 C.ar    1  LIG1        0.1519
     11 C          -2.8859   -2.0670    0.0002 C.ar    1  LIG1       -0.0137
     12 C          -4.2988   -1.8969    0.0003 C.ar    1  LIG1       -0.0121
     13 C          -4.5305   -0.5435    0.0003 C.ar    1  LIG1        0.1706
     14 O          -3.3357    0.1270    0.0003 O.2     1  LIG1       -0.4503
     15 H          -2.3519   -3.0067    0.0002 H       1  LIG1        0.0656
     16 H          -5.0492   -2.6738    0.0003 H       1  LIG1        0.0657
     17 C          -5.7375    0.2393    0.0004 C.ar    1  LIG1        0.1697
     18 C          -7.0679   -0.1036    0.0004 C.ar    1  LIG1       -0.0128
     19 C          -7.7998    1.1231    0.0005 C.ar    1  LIG1       -0.0232
     20 C          -6.8729    2.1212    0.0005 C.ar    1  LIG1        0.0927
     21 O          -5.6119    1.6018    0.0006 O.2     1  LIG1       -0.4598
     22 H          -6.9356    3.1977    0.0006 H       1  LIG1        0.1029
     23 H          -7.4702   -1.1060    0.0003 H       1  LIG1        0.0656
     24 H          -8.8734    1.2430    0.0005 H       1  LIG1        0.0649
@<TRIPOS>BOND
     1     6     5    1
     2     8     2    1
     3     2     1   ar
     4     2     3   ar
     5     5     1   ar
     6     5     4   ar
     7     7     1    1
     8     4    10    1
     9     4     3   ar
    10    15    11    1
    11    10    11   ar
    12    10    14   ar
    13    11    12   ar
    14    23    18    1
    15    12    16    1
    16    12    13   ar
    17    14    13   ar
    18    13    17    1
    19    18    17   ar
    20    18    19   ar
    21    17    21   ar
    22     3     9    1
    23    24    19    1
    24    19    20   ar
    25    20    21   ar
    26    20    22    1
