@<TRIPOS>MOLECULE
mol_data/opt/b3lyp/geoms/mol2/1313-12-13-.out
 33 36 0 0 0
SMALL
GASTEIGER

@<TRIPOS>ATOM
      1 C           1.3296   -0.4015    0.0002 C.ar    1  LIG1        0.0022
      2 C           0.9398    0.9206    0.0008 C.ar    1  LIG1       -0.0438
      3 C          -0.4800    0.9450    0.0008 C.ar    1  LIG1       -0.0350
      4 C          -0.9305   -0.3705    0.0002 C.ar    1  LIG1        0.0629
      5 N           0.1926   -1.1729   -0.0002 N.ar    1  LIG1       -0.3595
      6 H           0.1742   -2.1794   -0.0010 H       1  LIG1        0.1654
      7 H           2.3100   -0.8529   -0.0000 H       1  LIG1        0.0807
      8 H           1.6005    1.7757    0.0013 H       1  LIG1        0.0633
      9 H          -1.1025    1.8293    0.0014 H       1  LIG1        0.0639
     10 C          -2.2638   -0.9267   -0.0001 C.ar    1  LIG1        0.0634
     11 C          -2.7159   -2.2447   -0.0000 C.ar    1  LIG1       -0.0343
     12 C          -4.1287   -2.2245   -0.0004 C.ar    1  LIG1       -0.0328
     13 C          -4.5312   -0.8929   -0.0006 C.ar    1  LIG1        0.0826
     14 N          -3.3842   -0.1258   -0.0005 N.ar    1  LIG1       -0.3506
     15 H          -3.3817    0.8806   -0.0005 H       1  LIG1        0.1660
     16 H          -2.0947   -3.1298    0.0003 H       1  LIG1        0.0639
     17 H          -4.7877   -3.0806   -0.0004 H       1  LIG1        0.0640
     18 C          -5.8379   -0.2972   -0.0010 C.ar    1  LIG1        0.1518
     19 C          -7.1153   -0.7987   -0.0010 C.ar    1  LIG1       -0.0137
     20 C          -8.0004    0.3166   -0.0015 C.ar    1  LIG1       -0.0137
     21 C          -7.2230    1.4467   -0.0017 C.ar    1  LIG1        0.1518
     22 O          -5.8925    1.0816   -0.0014 O.2     1  LIG1       -0.4519
     23 H          -7.3862   -1.8442   -0.0007 H       1  LIG1        0.0656
     24 H          -9.0801    0.2903   -0.0016 H       1  LIG1        0.0656
     25 C          -7.5078    2.8569   -0.0022 C.ar    1  LIG1        0.0821
     26 C          -8.7124    3.5512   -0.0018 C.ar    1  LIG1       -0.0334
     27 C          -8.4088    4.9365   -0.0027 C.ar    1  LIG1       -0.0437
     28 C          -7.0339    5.0620   -0.0034 C.ar    1  LIG1        0.0023
     29 N          -6.4989    3.7983   -0.0032 N.ar    1  LIG1       -0.3583
     30 H          -5.5190    3.5681   -0.0035 H       1  LIG1        0.1654
     31 H          -6.4012    5.9365   -0.0042 H       1  LIG1        0.0807
     32 H          -9.6952    3.1022   -0.0011 H       1  LIG1        0.0640
     33 H          -9.1176    5.7521   -0.0027 H       1  LIG1        0.0633
@<TRIPOS>BOND
     1    31    28    1
     2    30    29    1
     3    28    29   ar
     4    28    27   ar
     5    29    25   ar
     6    33    27    1
     7    27    26   ar
     8    25    26   ar
     9    25    21    1
    10    26    32    1
    11    21    20   ar
    12    21    22   ar
    13    24    20    1
    14    20    19   ar
    15    22    18   ar
    16    18    19   ar
    17    18    13    1
    18     6     5    1
    19    19    23    1
    20    13    14   ar
    21    13    12   ar
    22    14    15    1
    23    14    10   ar
    24    17    12    1
    25    12    11   ar
    26     5     4   ar
    27     5     1   ar
    28    10    11   ar
    29    10     4    1
    30     7     1    1
    31    11    16    1
    32     4     3   ar
    33     1     2   ar
    34     2     3   ar
    35     2     8    1
    36     3     9    1
