@<TRIPOS>MOLECULE
mol_data/opt/b3lyp/geoms/mol2/1313.out
 18 19 0 0 0
SMALL
GASTEIGER

@<TRIPOS>ATOM
      1 C           1.2192   -0.2518   -0.0004 C.ar    1  LIG1        0.0022
      2 C           0.7743    1.0515    0.0002 C.ar    1  LIG1       -0.0438
      3 C          -0.6452    1.0179    0.0005 C.ar    1  LIG1       -0.0350
      4 C          -1.0459   -0.3114    0.0002 C.ar    1  LIG1        0.0629
      5 N           0.1117   -1.0705   -0.0003 N.ar    1  LIG1       -0.3595
      6 H           0.1586   -2.0753   -0.0011 H       1  LIG1        0.1654
      7 H           2.2166   -0.6650   -0.0008 H       1  LIG1        0.0807
      8 H           1.3990    1.9334    0.0004 H       1  LIG1        0.0633
      9 H          -1.3117    1.8684    0.0010 H       1  LIG1        0.0639
     10 C          -2.3805   -0.8774    0.0004 C.ar    1  LIG1        0.0629
     11 C          -3.6147   -0.2415    0.0002 C.ar    1  LIG1       -0.0350
     12 C          -4.6255   -1.2386    0.0005 C.ar    1  LIG1       -0.0438
     13 C          -3.9979   -2.4644    0.0010 C.ar    1  LIG1        0.0022
     14 N          -2.6395   -2.2373    0.0009 N.ar    1  LIG1       -0.3595
     15 H          -1.9497   -2.9695    0.0009 H       1  LIG1        0.1654
     16 H          -4.3940   -3.4686    0.0014 H       1  LIG1        0.0807
     17 H          -3.7628    0.8289   -0.0001 H       1  LIG1        0.0639
     18 H          -5.6938   -1.0747    0.0005 H       1  LIG1        0.0633
@<TRIPOS>BOND
     1     6     5    1
     2     7     1    1
     3     1     5   ar
     4     1     2   ar
     5     5     4   ar
     6    17    11    1
     7     2     8    1
     8     2     3   ar
     9     4    10    1
    10     4     3   ar
    11    11    10   ar
    12    11    12   ar
    13    10    14   ar
    14     3     9    1
    15    18    12    1
    16    12    13   ar
    17    14    15    1
    18    14    13   ar
    19    13    16    1
