@<TRIPOS>MOLECULE
mol_data/opt/b3lyp/geoms/mol2/13134-.out
 28 30 0 0 0
SMALL
GASTEIGER

@<TRIPOS>ATOM
      1 C           1.2933   -0.1126   -0.0007 C.ar    1  LIG1        0.0022
      2 C           0.8221    1.1822   -0.0000 C.ar    1  LIG1       -0.0438
      3 C          -0.5951    1.1205    0.0009 C.ar    1  LIG1       -0.0350
      4 C          -0.9692   -0.2178    0.0002 C.ar    1  LIG1        0.0629
      5 N           0.2038   -0.9535   -0.0008 N.ar    1  LIG1       -0.3595
      6 H           0.2717   -1.9573   -0.0020 H       1  LIG1        0.1654
      7 H           2.2988   -0.5050   -0.0014 H       1  LIG1        0.0807
      8 H           1.4295    2.0761    0.0001 H       1  LIG1        0.0633
      9 H          -1.2786    1.9572    0.0019 H       1  LIG1        0.0639
     10 C          -2.2906   -0.8061    0.0005 C.ar    1  LIG1        0.0633
     11 C          -3.5367   -0.1864    0.0010 C.ar    1  LIG1       -0.0344
     12 C          -4.5240   -1.1938    0.0011 C.ar    1  LIG1       -0.0358
     13 C          -3.8888   -2.4315    0.0007 C.ar    1  LIG1        0.0469
     14 N          -2.5292   -2.1651    0.0004 N.ar    1  LIG1       -0.3530
     15 H          -1.8224   -2.8801   -0.0002 H       1  LIG1        0.1659
     16 H          -3.7025    0.8811    0.0012 H       1  LIG1        0.0639
     17 H          -5.5925   -1.0345    0.0016 H       1  LIG1        0.0639
     18 C          -3.6067   -4.9289    0.0012 C.ar    1  LIG1       -0.0526
     19 C          -4.1489   -6.2123    0.0011 C.ar    1  LIG1       -0.0611
     20 C          -4.4307   -3.7863    0.0007 C.ar    1  LIG1       -0.0017
     21 C          -5.5314   -6.3961    0.0006 C.ar    1  LIG1       -0.0617
     22 H          -3.4846   -7.0719    0.0015 H       1  LIG1        0.0618
     23 C          -5.8256   -3.9925    0.0002 C.ar    1  LIG1       -0.0526
     24 C          -6.3644   -5.2740    0.0001 C.ar    1  LIG1       -0.0611
     25 H          -6.4914   -3.1359   -0.0002 H       1  LIG1        0.0624
     26 H          -5.9539   -7.3961    0.0005 H       1  LIG1        0.0618
     27 H          -2.5242   -4.8304    0.0017 H       1  LIG1        0.0624
     28 H          -7.4436   -5.3983   -0.0003 H       1  LIG1        0.0618
@<TRIPOS>BOND
     1     6     5    1
     2     7     1    1
     3     5     1   ar
     4     5     4   ar
     5     1     2   ar
     6    28    24    1
     7    25    23    1
     8    15    14    1
     9     2     8    1
    10     2     3   ar
    11    24    23   ar
    12    24    21   ar
    13     4    10    1
    14     4     3   ar
    15    23    20   ar
    16    14    10   ar
    17    14    13   ar
    18    10    11   ar
    19    26    21    1
    20    21    19   ar
    21    20    13    1
    22    20    18   ar
    23    13    12   ar
    24     3     9    1
    25    11    12   ar
    26    11    16    1
    27    19    18   ar
    28    19    22    1
    29    12    17    1
    30    18    27    1
