@<TRIPOS>MOLECULE
mol_data/opt/b3lyp/geoms/mol2/131312-5.out
 32 35 0 0 0
SMALL
GASTEIGER

@<TRIPOS>ATOM
      1 C           1.3559   -0.1683   -0.0011 C.ar    1  LIG1        0.0022
      2 C           0.9098    1.1356   -0.0004 C.ar    1  LIG1       -0.0438
      3 C          -0.5080    1.1016    0.0004 C.ar    1  LIG1       -0.0350
      4 C          -0.9078   -0.2297    0.0001 C.ar    1  LIG1        0.0629
      5 N           0.2505   -0.9881   -0.0008 N.ar    1  LIG1       -0.3595
      6 H           0.2995   -1.9930   -0.0016 H       1  LIG1        0.1654
      7 H           2.3536   -0.5799   -0.0018 H       1  LIG1        0.0807
      8 H           1.5343    2.0174   -0.0003 H       1  LIG1        0.0633
      9 H          -1.1751    1.9514    0.0011 H       1  LIG1        0.0639
     10 C          -2.2400   -0.7908    0.0006 C.ar    1  LIG1        0.0634
     11 C          -3.4736   -0.1443    0.0008 C.ar    1  LIG1       -0.0343
     12 C          -4.4867   -1.1258    0.0013 C.ar    1  LIG1       -0.0328
     13 C          -3.8715   -2.3720    0.0014 C.ar    1  LIG1        0.0826
     14 N          -2.5055   -2.1467    0.0010 N.ar    1  LIG1       -0.3506
     15 H          -1.8201   -2.8832    0.0008 H       1  LIG1        0.1660
     16 H          -3.6133    0.9269    0.0005 H       1  LIG1        0.0639
     17 H          -5.5540   -0.9626    0.0016 H       1  LIG1        0.0640
     18 C          -4.4275   -3.6943    0.0019 C.ar    1  LIG1        0.1518
     19 C          -3.8863   -4.9604    0.0026 C.ar    1  LIG1       -0.0138
     20 C          -4.9776   -5.8725    0.0029 C.ar    1  LIG1       -0.0147
     21 C          -6.1262   -5.1197    0.0024 C.ar    1  LIG1        0.1423
     22 O          -5.7938   -3.7859    0.0018 O.2     1  LIG1       -0.4528
     23 H          -2.8361   -5.2162    0.0030 H       1  LIG1        0.0656
     24 H          -4.9231   -6.9516    0.0034 H       1  LIG1        0.0656
     25 C          -7.5311   -5.4326    0.0023 C.ar    1  LIG1        0.0544
     26 C          -8.5979   -4.5592    0.0018 C.ar    1  LIG1       -0.0440
     27 C          -9.8605   -5.2170    0.0020 C.ar    1  LIG1       -0.0540
     28 C          -9.7550   -6.5802    0.0026 C.ar    1  LIG1       -0.0236
     29 S          -8.0941   -7.0932    0.0030 S.2     1  LIG1       -0.0936
     30 H         -10.5435   -7.3192    0.0028 H       1  LIG1        0.0693
     31 H          -8.4672   -3.4844    0.0014 H       1  LIG1        0.0630
     32 H         -10.8103   -4.6948    0.0016 H       1  LIG1        0.0623
@<TRIPOS>BOND
     1     7     1    1
     2     6     5    1
     3     1     5   ar
     4     1     2   ar
     5     5     4   ar
     6     2     8    1
     7     2     3   ar
     8     4     3   ar
     9     4    10    1
    10     3     9    1
    11    16    11    1
    12    10    11   ar
    13    10    14   ar
    14    11    12   ar
    15    15    14    1
    16    14    13   ar
    17    12    13   ar
    18    12    17    1
    19    31    26    1
    20    13    18    1
    21    32    27    1
    22    22    18   ar
    23    22    21   ar
    24    26    27   ar
    25    26    25   ar
    26    18    19   ar
    27    27    28   ar
    28    25    21    1
    29    25    29   ar
    30    21    20   ar
    31    28    30    1
    32    28    29   ar
    33    19    20   ar
    34    19    23    1
    35    20    24    1
