@<TRIPOS>MOLECULE
mol_data/opt/b3lyp/geoms/mol2/1313-124.out
 35 38 0 0 0
SMALL
GASTEIGER

@<TRIPOS>ATOM
      1 C           1.3663   -0.1868   -0.0004 C.ar    1  LIG1        0.0022
      2 C           0.9294    1.1207    0.0007 C.ar    1  LIG1       -0.0438
      3 C          -0.4901    1.0940    0.0006 C.ar    1  LIG1       -0.0350
      4 C          -0.8930   -0.2369   -0.0000 C.ar    1  LIG1        0.0629
      5 N           0.2583   -0.9985   -0.0005 N.ar    1  LIG1       -0.3595
      6 H           0.2769   -2.0050   -0.0014 H       1  LIG1        0.1654
      7 H           2.3624   -0.6027   -0.0008 H       1  LIG1        0.0807
      8 H           1.5588    1.9990    0.0012 H       1  LIG1        0.0633
      9 H          -1.1428    1.9563    0.0012 H       1  LIG1        0.0639
     10 C          -2.2048   -0.8421   -0.0002 C.ar    1  LIG1        0.0634
     11 C          -2.6060   -2.1763   -0.0000 C.ar    1  LIG1       -0.0343
     12 C          -4.0182   -2.2091   -0.0003 C.ar    1  LIG1       -0.0328
     13 C          -4.4716   -0.8953   -0.0006 C.ar    1  LIG1        0.0826
     14 N          -3.3541   -0.0827   -0.0005 N.ar    1  LIG1       -0.3506
     15 H          -3.3716    0.9239   -0.0005 H       1  LIG1        0.1660
     16 H          -1.9514   -3.0369    0.0003 H       1  LIG1        0.0639
     17 H          -4.6508   -3.0840   -0.0003 H       1  LIG1        0.0640
     18 C          -5.8059   -0.3646   -0.0009 C.ar    1  LIG1        0.1518
     19 C          -6.3281    0.9085   -0.0014 C.ar    1  LIG1       -0.0138
     20 C          -7.7435    0.7671   -0.0015 C.ar    1  LIG1       -0.0152
     21 C          -8.0158   -0.5788   -0.0011 C.ar    1  LIG1        0.1358
     22 O          -6.8284   -1.2726   -0.0007 O.2     1  LIG1       -0.4534
     23 H          -5.7732    1.8360   -0.0017 H       1  LIG1        0.0656
     24 H          -8.4696    1.5666   -0.0019 H       1  LIG1        0.0656
     25 C         -10.4975   -0.7158   -0.0010 C.ar    1  LIG1       -0.0511
     26 C         -11.6743   -1.4572   -0.0009 C.ar    1  LIG1       -0.0611
     27 C          -9.2443   -1.3576   -0.0010 C.ar    1  LIG1        0.0173
     28 C         -11.6308   -2.8539   -0.0008 C.ar    1  LIG1       -0.0617
     29 H         -12.6309   -0.9425   -0.0009 H       1  LIG1        0.0618
     30 C          -9.2111   -2.7643   -0.0008 C.ar    1  LIG1       -0.0511
     31 C         -10.3934   -3.5001   -0.0008 C.ar    1  LIG1       -0.0611
     32 H          -8.2530   -3.2716   -0.0008 H       1  LIG1        0.0625
     33 H         -12.5509   -3.4303   -0.0007 H       1  LIG1        0.0618
     34 H         -10.5477    0.3688   -0.0010 H       1  LIG1        0.0625
     35 H         -10.3469   -4.5854   -0.0007 H       1  LIG1        0.0618
@<TRIPOS>BOND
     1    24    20    1
     2    23    19    1
     3    20    19   ar
     4    20    21   ar
     5    19    18   ar
     6     6     5    1
     7    21    27    1
     8    21    22   ar
     9    34    25    1
    10    25    27   ar
    11    25    26   ar
    12    27    30   ar
    13    29    26    1
    14    26    28   ar
    15    18    22   ar
    16    18    13    1
    17    30    32    1
    18    30    31   ar
    19     7     1    1
    20    28    31   ar
    21    28    33    1
    22    31    35    1
    23    13    14   ar
    24    13    12   ar
    25    15    14    1
    26    14    10   ar
    27     5     1   ar
    28     5     4   ar
    29     1     2   ar
    30    12    17    1
    31    12    11   ar
    32    10    11   ar
    33    10     4    1
    34    11    16    1
    35     4     3   ar
    36     3     2   ar
    37     3     9    1
    38     2     8    1
