@<TRIPOS>MOLECULE
mol_data/opt/b3lyp/geoms/mol2/13134.out
 28 30 0 0 0
SMALL
GASTEIGER

@<TRIPOS>ATOM
      1 C           1.2892   -0.0845   -0.0013 C.ar    1  LIG1        0.0022
      2 C           0.8081    1.2066   -0.0007 C.ar    1  LIG1       -0.0438
      3 C          -0.6086    1.1335   -0.0001 C.ar    1  LIG1       -0.0350
      4 C          -0.9724   -0.2076   -0.0000 C.ar    1  LIG1        0.0629
      5 N           0.2065   -0.9341   -0.0006 N.ar    1  LIG1       -0.3595
      6 H           0.2823   -1.9373   -0.0012 H       1  LIG1        0.1654
      7 H           2.2979   -0.4688   -0.0020 H       1  LIG1        0.0807
      8 H           1.4082    2.1053   -0.0007 H       1  LIG1        0.0633
      9 H          -1.2986    1.9648    0.0004 H       1  LIG1        0.0639
     10 C          -2.2888   -0.8065    0.0007 C.ar    1  LIG1        0.0633
     11 C          -3.5399   -0.1972    0.0008 C.ar    1  LIG1       -0.0344
     12 C          -4.5189   -1.2129    0.0015 C.ar    1  LIG1       -0.0358
     13 C          -3.8738   -2.4453    0.0018 C.ar    1  LIG1        0.0469
     14 N          -2.5165   -2.1676    0.0014 N.ar    1  LIG1       -0.3530
     15 H          -1.8037   -2.8765    0.0011 H       1  LIG1        0.1659
     16 H          -3.7146    0.8688    0.0005 H       1  LIG1        0.0639
     17 H          -5.5886   -1.0625    0.0019 H       1  LIG1        0.0639
     18 C          -5.7976   -4.0223    0.0024 C.ar    1  LIG1       -0.0526
     19 C          -6.3258   -5.3084    0.0032 C.ar    1  LIG1       -0.0611
     20 C          -4.4046   -3.8045    0.0026 C.ar    1  LIG1       -0.0017
     21 C          -5.4837   -6.4234    0.0041 C.ar    1  LIG1       -0.0617
     22 H          -7.4040   -5.4415    0.0030 H       1  LIG1        0.0618
     23 C          -3.5711   -4.9404    0.0036 C.ar    1  LIG1       -0.0526
     24 C          -4.1026   -6.2280    0.0043 C.ar    1  LIG1       -0.0611
     25 H          -2.4895   -4.8327    0.0039 H       1  LIG1        0.0624
     26 H          -5.8977   -7.4269    0.0047 H       1  LIG1        0.0618
     27 H          -6.4709   -3.1714    0.0017 H       1  LIG1        0.0624
     28 H          -3.4313   -7.0822    0.0050 H       1  LIG1        0.0618
@<TRIPOS>BOND
     1     7     1    1
     2     1     2   ar
     3     1     5   ar
     4     6     5    1
     5     8     2    1
     6     2     3   ar
     7     5     4   ar
     8     3     4   ar
     9     3     9    1
    10     4    10    1
    11    16    11    1
    12    10    11   ar
    13    10    14   ar
    14    11    12   ar
    15    15    14    1
    16    14    13   ar
    17    12    13   ar
    18    12    17    1
    19    27    18    1
    20    13    20    1
    21    18    20   ar
    22    18    19   ar
    23    20    23   ar
    24    22    19    1
    25    19    21   ar
    26    23    25    1
    27    23    24   ar
    28    21    24   ar
    29    21    26    1
    30    24    28    1
