@<TRIPOS>MOLECULE
mol_data/opt/b3lyp/geoms/mol2/131313-8.out
 32 35 0 0 0
SMALL
GASTEIGER

@<TRIPOS>ATOM
      1 C           1.3047   -0.1103   -0.0014 C.ar    1  LIG1        0.0022
      2 C           0.8312    1.1842   -0.0001 C.ar    1  LIG1       -0.0438
      3 C          -0.5850    1.1192    0.0004 C.ar    1  LIG1       -0.0350
      4 C          -0.9559   -0.2203    0.0000 C.ar    1  LIG1        0.0629
      5 N           0.2186   -0.9540   -0.0009 N.ar    1  LIG1       -0.3595
      6 H           0.2901   -1.9576   -0.0019 H       1  LIG1        0.1654
      7 H           2.3116   -0.4997   -0.0023 H       1  LIG1        0.0807
      8 H           1.4366    2.0792    0.0002 H       1  LIG1        0.0633
      9 H          -1.2700    1.9547    0.0012 H       1  LIG1        0.0639
     10 C          -2.2756   -0.8090    0.0006 C.ar    1  LIG1        0.0633
     11 C          -3.5222   -0.1864    0.0011 C.ar    1  LIG1       -0.0343
     12 C          -4.5134   -1.1888    0.0015 C.ar    1  LIG1       -0.0343
     13 C          -3.8751   -2.4256    0.0013 C.ar    1  LIG1        0.0634
     14 N          -2.5149   -2.1676    0.0008 N.ar    1  LIG1       -0.3519
     15 H          -1.8155   -2.8907    0.0002 H       1  LIG1        0.1660
     16 H          -3.6850    0.8813    0.0012 H       1  LIG1        0.0639
     17 H          -5.5824   -1.0272    0.0020 H       1  LIG1        0.0639
     18 C          -4.3917   -3.7677    0.0017 C.ar    1  LIG1        0.0634
     19 C          -3.7295   -5.0071    0.0026 C.ar    1  LIG1       -0.0343
     20 C          -4.7014   -6.0199    0.0028 C.ar    1  LIG1       -0.0326
     21 C          -5.9496   -5.3995    0.0018 C.ar    1  LIG1        0.0880
     22 N          -5.7329   -4.0358    0.0012 N.ar    1  LIG1       -0.3505
     23 H          -6.4871   -3.3652    0.0006 H       1  LIG1        0.1660
     24 H          -2.6584   -5.1546    0.0033 H       1  LIG1        0.0639
     25 H          -4.5422   -7.0878    0.0034 H       1  LIG1        0.0640
     26 C          -7.2798   -5.9339    0.0013 C.ar    1  LIG1        0.2193
     27 N          -8.3054   -5.0420    0.0003 N.ar    1  LIG1       -0.1243
     28 C          -9.6676   -6.8547    0.0004 C.ar    1  LIG1        0.1605
     29 N          -7.4343   -7.2851    0.0018 N.ar    1  LIG1       -0.1243
     30 N          -9.5321   -5.5229   -0.0001 N.ar    1  LIG1       -0.1338
     31 N          -8.6634   -7.7488    0.0014 N.ar    1  LIG1       -0.1338
     32 H         -10.6775   -7.2492    0.0002 H       1  LIG1        0.1085
@<TRIPOS>BOND
     1     7     1    1
     2     6     5    1
     3     1     5   ar
     4     1     2   ar
     5     5     4   ar
     6     2     8    1
     7     2     3   ar
     8    30    27   ar
     9    30    28   ar
    10     4     3   ar
    11     4    10    1
    12    32    28    1
    13    15    14    1
    14    27    26   ar
    15     3     9    1
    16    28    31   ar
    17    23    22    1
    18    10    14   ar
    19    10    11   ar
    20    14    13   ar
    21    11    16    1
    22    11    12   ar
    23    22    18   ar
    24    22    21   ar
    25    26    21    1
    26    26    29   ar
    27    13    12   ar
    28    13    18    1
    29    31    29   ar
    30    12    17    1
    31    18    19   ar
    32    21    20   ar
    33    19    20   ar
    34    19    24    1
    35    20    25    1
