@<TRIPOS>MOLECULE
mol_data/opt/b3lyp/geoms/mol2/1313-813.out
 32 35 0 0 0
SMALL
GASTEIGER

@<TRIPOS>ATOM
      1 C           1.2769   -0.2922    0.0003 C.ar    1  LIG1        0.0022
      2 C           0.8610    1.0237    0.0003 C.ar    1  LIG1       -0.0438
      3 C          -0.5568    1.0202    0.0006 C.ar    1  LIG1       -0.0350
      4 C          -0.9802   -0.3047    0.0000 C.ar    1  LIG1        0.0629
      5 N           0.1586   -1.0859   -0.0002 N.ar    1  LIG1       -0.3595
      6 H           0.1623   -2.0928   -0.0009 H       1  LIG1        0.1654
      7 H           2.2668   -0.7228    0.0002 H       1  LIG1        0.0807
      8 H           1.5048    1.8913    0.0004 H       1  LIG1        0.0633
      9 H          -1.1982    1.8907    0.0011 H       1  LIG1        0.0639
     10 C          -2.3016   -0.8851   -0.0002 C.ar    1  LIG1        0.0634
     11 C          -2.7181   -2.2235   -0.0000 C.ar    1  LIG1       -0.0343
     12 C          -4.1245   -2.2416   -0.0004 C.ar    1  LIG1       -0.0326
     13 C          -4.5572   -0.9180   -0.0006 C.ar    1  LIG1        0.0880
     14 N          -3.4340   -0.1168   -0.0006 N.ar    1  LIG1       -0.3505
     15 H          -3.4852    0.8910   -0.0007 H       1  LIG1        0.1660
     16 H          -2.0704   -3.0893    0.0004 H       1  LIG1        0.0639
     17 H          -4.7726   -3.1051   -0.0004 H       1  LIG1        0.0640
     18 C          -5.8726   -0.3388   -0.0010 C.ar    1  LIG1        0.2194
     19 N          -5.9525    1.0177   -0.0012 N.ar    1  LIG1       -0.1237
     20 C          -8.2137    0.7475   -0.0017 C.ar    1  LIG1        0.2194
     21 N          -6.9491   -1.1641   -0.0011 N.ar    1  LIG1       -0.1237
     22 N          -7.1392    1.5718   -0.0015 N.ar    1  LIG1       -0.1237
     23 N          -8.1338   -0.6082   -0.0014 N.ar    1  LIG1       -0.1237
     24 C          -9.5339    1.3273   -0.0021 C.ar    1  LIG1        0.0875
     25 C          -9.9688    2.6489   -0.0027 C.ar    1  LIG1       -0.0333
     26 C         -11.3818    2.6258   -0.0026 C.ar    1  LIG1       -0.0437
     27 C         -11.7763    1.2960   -0.0029 C.ar    1  LIG1        0.0023
     28 N         -10.6536    0.5223   -0.0022 N.ar    1  LIG1       -0.3582
     29 H         -10.5986   -0.4854   -0.0021 H       1  LIG1        0.1654
     30 H         -12.7615    0.8540   -0.0032 H       1  LIG1        0.0807
     31 H          -9.3219    3.5133   -0.0028 H       1  LIG1        0.0640
     32 H         -12.0439    3.4797   -0.0027 H       1  LIG1        0.0633
@<TRIPOS>BOND
     1    30    27    1
     2    27    26   ar
     3    27    28   ar
     4    31    25    1
     5    25    26   ar
     6    25    24   ar
     7    32    26    1
     8    28    24   ar
     9    28    29    1
    10    24    20    1
    11    20    22   ar
    12    20    23   ar
    13    22    19   ar
    14    23    21   ar
    15    19    18   ar
    16    21    18   ar
    17    18    13    1
    18     6     5    1
    19    15    14    1
    20    13    14   ar
    21    13    12   ar
    22    14    10   ar
    23    17    12    1
    24    12    11   ar
    25     5     4   ar
    26     5     1   ar
    27    10    11   ar
    28    10     4    1
    29    11    16    1
    30     4     3   ar
    31     7     1    1
    32     1     2   ar
    33     2     8    1
    34     2     3   ar
    35     3     9    1
