@<TRIPOS>MOLECULE
mol_data/opt/b3lyp/geoms/mol2/1313-5.out
 25 27 0 0 0
SMALL
GASTEIGER

@<TRIPOS>ATOM
      1 C           1.2909   -0.3232   -0.0001 C.ar    1  LIG1        0.0022
      2 C           0.8974    0.9980    0.0010 C.ar    1  LIG1       -0.0438
      3 C          -0.5223    1.0183    0.0007 C.ar    1  LIG1       -0.0350
      4 C          -0.9688   -0.2986    0.0001 C.ar    1  LIG1        0.0629
      5 N           0.1566   -1.0978   -0.0002 N.ar    1  LIG1       -0.3595
      6 H           0.1414   -2.1044   -0.0009 H       1  LIG1        0.1654
      7 H           2.2727   -0.7717   -0.0004 H       1  LIG1        0.0807
      8 H           1.5556    1.8549    0.0016 H       1  LIG1        0.0633
      9 H          -1.1469    1.9013    0.0011 H       1  LIG1        0.0639
     10 C          -2.3002   -0.8599   -0.0001 C.ar    1  LIG1        0.0633
     11 C          -2.7452   -2.1794    0.0001 C.ar    1  LIG1       -0.0344
     12 C          -4.1576   -2.1616   -0.0003 C.ar    1  LIG1       -0.0353
     13 C          -4.5714   -0.8339   -0.0007 C.ar    1  LIG1        0.0536
     14 N          -3.4234   -0.0636   -0.0007 N.ar    1  LIG1       -0.3526
     15 H          -3.4055    0.9427   -0.0007 H       1  LIG1        0.1660
     16 H          -2.1205   -3.0620    0.0005 H       1  LIG1        0.0639
     17 H          -4.8120   -3.0218   -0.0003 H       1  LIG1        0.0639
     18 C          -5.8904   -0.2440   -0.0013 C.ar    1  LIG1        0.0355
     19 C          -6.2536    1.0874   -0.0025 C.ar    1  LIG1       -0.0455
     20 C          -7.6633    1.2942   -0.0026 C.ar    1  LIG1       -0.0541
     21 C          -8.3742    0.1277   -0.0015 C.ar    1  LIG1       -0.0237
     22 S          -7.3235   -1.2570   -0.0001 S.2     1  LIG1       -0.0952
     23 H          -9.4459   -0.0107   -0.0014 H       1  LIG1        0.0693
     24 H          -5.5391    1.9036   -0.0035 H       1  LIG1        0.0629
     25 H          -8.1257    2.2747   -0.0036 H       1  LIG1        0.0623
@<TRIPOS>BOND
     1    25    20    1
     2    24    19    1
     3    20    19   ar
     4    20    21   ar
     5    19    18   ar
     6    21    23    1
     7    21    22   ar
     8    18    13    1
     9    18    22   ar
    10     6     5    1
    11    13    14   ar
    12    13    12   ar
    13    15    14    1
    14    14    10   ar
    15     7     1    1
    16    17    12    1
    17    12    11   ar
    18     5     1   ar
    19     5     4   ar
    20    10    11   ar
    21    10     4    1
    22     1     2   ar
    23    11    16    1
    24     4     3   ar
    25     3     2   ar
    26     3     9    1
    27     2     8    1
