@<TRIPOS>MOLECULE
mol_data/opt/b3lyp/geoms/mol2/13138-5-.out
 31 34 0 0 0
SMALL
GASTEIGER

@<TRIPOS>ATOM
      1 C           1.2656   -0.1558   -0.0007 C.ar    1  LIG1        0.0022
      2 C           0.8100    1.1466    0.0001 C.ar    1  LIG1       -0.0438
      3 C          -0.6055    1.1010    0.0003 C.ar    1  LIG1       -0.0350
      4 C          -0.9929   -0.2347    0.0001 C.ar    1  LIG1        0.0629
      5 N           0.1708   -0.9843   -0.0003 N.ar    1  LIG1       -0.3595
      6 H           0.2253   -1.9895   -0.0010 H       1  LIG1        0.1654
      7 H           2.2674   -0.5578   -0.0012 H       1  LIG1        0.0807
      8 H           1.4283    2.0326    0.0003 H       1  LIG1        0.0633
      9 H          -1.2797    1.9453    0.0007 H       1  LIG1        0.0639
     10 C          -2.3166   -0.8090    0.0003 C.ar    1  LIG1        0.0634
     11 C          -3.5626   -0.1648    0.0001 C.ar    1  LIG1       -0.0343
     12 C          -4.5636   -1.1487    0.0005 C.ar    1  LIG1       -0.0326
     13 C          -3.9299   -2.3902    0.0010 C.ar    1  LIG1        0.0880
     14 N          -2.5675   -2.1564    0.0009 N.ar    1  LIG1       -0.3505
     15 H          -1.9090   -2.9206    0.0014 H       1  LIG1        0.1660
     16 H          -3.7076    0.9054   -0.0005 H       1  LIG1        0.0639
     17 H          -5.6331   -1.0008    0.0005 H       1  LIG1        0.0640
     18 C          -4.4346   -3.7314    0.0016 C.ar    1  LIG1        0.2194
     19 N          -3.5202   -4.7367    0.0021 N.ar    1  LIG1       -0.1237
     20 C          -5.2952   -6.1654    0.0029 C.ar    1  LIG1        0.2099
     21 N          -5.7794   -3.9274    0.0017 N.ar    1  LIG1       -0.1237
     22 N          -3.9569   -5.9725    0.0027 N.ar    1  LIG1       -0.1246
     23 N          -6.2078   -5.1616    0.0024 N.ar    1  LIG1       -0.1246
     24 C          -5.7903   -7.5283    0.0036 C.ar    1  LIG1        0.0598
     25 C          -5.0563   -8.6951    0.0043 C.ar    1  LIG1       -0.0438
     26 C          -5.8700   -9.8589    0.0049 C.ar    1  LIG1       -0.0540
     27 C          -7.2095   -9.5646    0.0048 C.ar    1  LIG1       -0.0236
     28 S          -7.5078   -7.8598    0.0038 S.2     1  LIG1       -0.0934
     29 H          -8.0423  -10.2545    0.0052 H       1  LIG1        0.0693
     30 H          -3.9735   -8.6945    0.0042 H       1  LIG1        0.0630
     31 H          -5.4796  -10.8699    0.0055 H       1  LIG1        0.0623
@<TRIPOS>BOND
     1     7     1    1
     2     6     5    1
     3     1     5   ar
     4     1     2   ar
     5    16    11    1
     6     5     4   ar
     7    11    10   ar
     8    11    12   ar
     9     4     3   ar
    10     4    10    1
    11     2     3   ar
    12     2     8    1
    13     3     9    1
    14    10    14   ar
    15    17    12    1
    16    12    13   ar
    17    14    13   ar
    18    14    15    1
    19    13    18    1
    20    18    21   ar
    21    18    19   ar
    22    21    23   ar
    23    19    22   ar
    24    23    20   ar
    25    22    20   ar
    26    20    24    1
    27    24    28   ar
    28    24    25   ar
    29    28    27   ar
    30    30    25    1
    31    25    26   ar
    32    27    26   ar
    33    27    29    1
    34    26    31    1
