@<TRIPOS>MOLECULE
mol_data/opt/b3lyp/geoms/mol2/131313-.out
 26 28 0 0 0
SMALL
GASTEIGER

@<TRIPOS>ATOM
      1 C           1.2743   -0.1577   -0.0010 C.ar    1  LIG1        0.0022
      2 C           0.8153    1.1412    0.0001 C.ar    1  LIG1       -0.0438
      3 C          -0.6029    1.0925    0.0005 C.ar    1  LIG1       -0.0350
      4 C          -0.9897   -0.2421    0.0002 C.ar    1  LIG1        0.0629
      5 N           0.1764   -0.9886   -0.0006 N.ar    1  LIG1       -0.3595
      6 H           0.2343   -1.9930   -0.0016 H       1  LIG1        0.1654
      7 H           2.2761   -0.5597   -0.0017 H       1  LIG1        0.0807
      8 H           1.4307    2.0295    0.0004 H       1  LIG1        0.0633
      9 H          -1.2782    1.9360    0.0013 H       1  LIG1        0.0639
     10 C          -2.3153   -0.8213    0.0006 C.ar    1  LIG1        0.0633
     11 C          -3.5572   -0.1980    0.0008 C.ar    1  LIG1       -0.0343
     12 C          -4.5535   -1.2021    0.0012 C.ar    1  LIG1       -0.0343
     13 C          -3.9188   -2.4384    0.0011 C.ar    1  LIG1        0.0633
     14 N          -2.5608   -2.1831    0.0008 N.ar    1  LIG1       -0.3519
     15 H          -1.8657   -2.9102    0.0003 H       1  LIG1        0.1660
     16 H          -3.7187    0.8701    0.0008 H       1  LIG1        0.0639
     17 H          -5.6222   -1.0357    0.0016 H       1  LIG1        0.0639
     18 C          -4.4359   -3.7875    0.0014 C.ar    1  LIG1        0.0629
     19 C          -3.7965   -5.0225    0.0025 C.ar    1  LIG1       -0.0350
     20 C          -4.7953   -6.0329    0.0024 C.ar    1  LIG1       -0.0438
     21 C          -6.0199   -5.4012    0.0008 C.ar    1  LIG1        0.0022
     22 N          -5.7915   -4.0457    0.0004 N.ar    1  LIG1       -0.3595
     23 H          -6.5060   -3.3365   -0.0004 H       1  LIG1        0.1654
     24 H          -7.0238   -5.7978    0.0000 H       1  LIG1        0.0807
     25 H          -2.7271   -5.1859    0.0035 H       1  LIG1        0.0639
     26 H          -4.6332   -7.1012    0.0032 H       1  LIG1        0.0633
@<TRIPOS>BOND
     1     7     1    1
     2     6     5    1
     3     1     5   ar
     4     1     2   ar
     5     5     4   ar
     6    23    22    1
     7    24    21    1
     8     2     8    1
     9     2     3   ar
    10     4     3   ar
    11     4    10    1
    12    15    14    1
    13    22    21   ar
    14    22    18   ar
    15     3     9    1
    16    10    14   ar
    17    10    11   ar
    18    14    13   ar
    19    21    20   ar
    20    16    11    1
    21    11    12   ar
    22    13    12   ar
    23    13    18    1
    24    12    17    1
    25    18    19   ar
    26    20    19   ar
    27    20    26    1
    28    19    25    1
