@<TRIPOS>MOLECULE
mol_data/opt/b3lyp/geoms/mol2/13131312.out
 33 36 0 0 0
SMALL
GASTEIGER

@<TRIPOS>ATOM
      1 C           1.2817    0.0423   -0.0015 C.ar    1  LIG1        0.0022
      2 C           0.7747    1.3231   -0.0007 C.ar    1  LIG1       -0.0438
      3 C          -0.6406    1.2224    0.0002 C.ar    1  LIG1       -0.0350
      4 C          -0.9783   -0.1258   -0.0000 C.ar    1  LIG1        0.0629
      5 N           0.2148   -0.8289   -0.0010 N.ar    1  LIG1       -0.3595
      6 H           0.3119   -1.8302   -0.0019 H       1  LIG1        0.1654
      7 H           2.2979   -0.3225   -0.0023 H       1  LIG1        0.0807
      8 H           1.3571    2.2339   -0.0007 H       1  LIG1        0.0633
      9 H          -1.3464    2.0401    0.0011 H       1  LIG1        0.0639
     10 C          -2.2833   -0.7488    0.0006 C.ar    1  LIG1        0.0633
     11 C          -3.5453   -0.1658    0.0011 C.ar    1  LIG1       -0.0343
     12 C          -4.5087   -1.1977    0.0016 C.ar    1  LIG1       -0.0343
     13 C          -3.8397   -2.4163    0.0015 C.ar    1  LIG1        0.0634
     14 N          -2.4851   -2.1193    0.0010 N.ar    1  LIG1       -0.3519
     15 H          -1.7514   -2.8067    0.0002 H       1  LIG1        0.1660
     16 H          -3.7394    0.8969    0.0011 H       1  LIG1        0.0639
     17 H          -5.5824   -1.0772    0.0022 H       1  LIG1        0.0639
     18 C          -4.3655   -3.7598    0.0018 C.ar    1  LIG1        0.0634
     19 C          -5.6900   -4.1957    0.0012 C.ar    1  LIG1       -0.0343
     20 C          -5.6910   -5.6072    0.0019 C.ar    1  LIG1       -0.0328
     21 C          -4.3673   -6.0307    0.0030 C.ar    1  LIG1        0.0826
     22 N          -3.5797   -4.8953    0.0030 N.ar    1  LIG1       -0.3506
     23 H          -2.5743   -4.9438    0.0037 H       1  LIG1        0.1660
     24 H          -6.5567   -3.5510    0.0003 H       1  LIG1        0.0639
     25 H          -6.5574   -6.2532    0.0017 H       1  LIG1        0.0640
     26 C          -3.7744   -7.3405    0.0041 C.ar    1  LIG1        0.1509
     27 C          -4.2692   -8.6201    0.0039 C.ar    1  LIG1       -0.0144
     28 C          -3.1373   -9.4949    0.0053 C.ar    1  LIG1       -0.0233
     29 C          -2.0329   -8.7019    0.0063 C.ar    1  LIG1        0.0926
     30 O          -2.3989   -7.3813    0.0055 O.2     1  LIG1       -0.4615
     31 H          -0.9721   -8.8957    0.0075 H       1  LIG1        0.1029
     32 H          -5.3118   -8.9003    0.0028 H       1  LIG1        0.0656
     33 H          -3.1496  -10.5754    0.0056 H       1  LIG1        0.0649
@<TRIPOS>BOND
     1     7     1    1
     2     6     5    1
     3     1     5   ar
     4     1     2   ar
     5     5     4   ar
     6     8     2    1
     7     2     3   ar
     8     4     3   ar
     9     4    10    1
    10    15    14    1
    11     3     9    1
    12    24    19    1
    13    10    14   ar
    14    10    11   ar
    15    14    13   ar
    16    16    11    1
    17    11    12   ar
    18    19    18   ar
    19    19    20   ar
    20    13    12   ar
    21    13    18    1
    22    12    17    1
    23    25    20    1
    24    18    22   ar
    25    20    21   ar
    26    32    27    1
    27    22    21   ar
    28    22    23    1
    29    21    26    1
    30    27    26   ar
    31    27    28   ar
    32    26    30   ar
    33    28    33    1
    34    28    29   ar
    35    30    29   ar
    36    29    31    1
