@<TRIPOS>MOLECULE
mol_data/opt/b3lyp/geoms/mol2/131312-.out
 25 27 0 0 0
SMALL
GASTEIGER

@<TRIPOS>ATOM
      1 C           1.2653   -0.1758   -0.0008 C.ar    1  LIG1        0.0022
      2 C           0.8044    1.1227    0.0002 C.ar    1  LIG1       -0.0438
      3 C          -0.6132    1.0719    0.0003 C.ar    1  LIG1       -0.0350
      4 C          -0.9979   -0.2636    0.0001 C.ar    1  LIG1        0.0629
      5 N           0.1693   -1.0085   -0.0004 N.ar    1  LIG1       -0.3595
      6 H           0.2298   -2.0128   -0.0012 H       1  LIG1        0.1654
      7 H           2.2680   -0.5760   -0.0014 H       1  LIG1        0.0807
      8 H           1.4186    2.0120    0.0005 H       1  LIG1        0.0633
      9 H          -1.2900    1.9140    0.0009 H       1  LIG1        0.0639
     10 C          -2.3235   -0.8419    0.0004 C.ar    1  LIG1        0.0634
     11 C          -3.5655   -0.2137    0.0005 C.ar    1  LIG1       -0.0343
     12 C          -4.5652   -1.2108    0.0008 C.ar    1  LIG1       -0.0328
     13 C          -3.9319   -2.4464    0.0011 C.ar    1  LIG1        0.0826
     14 N          -2.5701   -2.2020    0.0009 N.ar    1  LIG1       -0.3506
     15 H          -1.8748   -2.9289    0.0007 H       1  LIG1        0.1660
     16 H          -3.7213    0.8553    0.0002 H       1  LIG1        0.0639
     17 H          -5.6349   -1.0635    0.0009 H       1  LIG1        0.0640
     18 C          -4.4692   -3.7805    0.0016 C.ar    1  LIG1        0.1509
     19 C          -3.9114   -5.0367    0.0024 C.ar    1  LIG1       -0.0144
     20 C          -4.9993   -5.9662    0.0025 C.ar    1  LIG1       -0.0233
     21 C          -6.1371   -5.2211    0.0018 C.ar    1  LIG1        0.0926
     22 O          -5.8346   -3.8887    0.0012 O.2     1  LIG1       -0.4615
     23 H          -7.1882   -5.4628    0.0016 H       1  LIG1        0.1029
     24 H          -2.8579   -5.2786    0.0029 H       1  LIG1        0.0656
     25 H          -4.9364   -7.0448    0.0031 H       1  LIG1        0.0649
@<TRIPOS>BOND
     1     7     1    1
     2     6     5    1
     3     1     5   ar
     4     1     2   ar
     5     5     4   ar
     6     4     3   ar
     7     4    10    1
     8     2     3   ar
     9     2     8    1
    10    16    11    1
    11     3     9    1
    12    10    11   ar
    13    10    14   ar
    14    11    12   ar
    15    15    14    1
    16    12    17    1
    17    12    13   ar
    18    14    13   ar
    19    13    18    1
    20    22    18   ar
    21    22    21   ar
    22    18    19   ar
    23    23    21    1
    24    21    20   ar
    25    19    20   ar
    26    19    24    1
    27    20    25    1
