@<TRIPOS>MOLECULE
mol_data/opt/b3lyp/geoms/mol2/131355-.out
 32 35 0 0 0
SMALL
GASTEIGER

@<TRIPOS>ATOM
      1 C           1.2854   -0.0009   -0.0010 C.ar    1  LIG1        0.0022
      2 C           0.8023    1.2900   -0.0001 C.ar    1  LIG1       -0.0438
      3 C          -0.6135    1.2152    0.0006 C.ar    1  LIG1       -0.0350
      4 C          -0.9748   -0.1273    0.0001 C.ar    1  LIG1        0.0629
      5 N           0.2048   -0.8523   -0.0008 N.ar    1  LIG1       -0.3595
      6 H           0.2830   -1.8555   -0.0018 H       1  LIG1        0.1654
      7 H           2.2947   -0.3836   -0.0018 H       1  LIG1        0.0807
      8 H           1.4015    2.1892    0.0001 H       1  LIG1        0.0633
      9 H          -1.3050    2.0452    0.0015 H       1  LIG1        0.0639
     10 C          -2.2898   -0.7257    0.0005 C.ar    1  LIG1        0.0633
     11 C          -3.5421   -0.1143    0.0007 C.ar    1  LIG1       -0.0344
     12 C          -4.5242   -1.1241    0.0010 C.ar    1  LIG1       -0.0353
     13 C          -3.8767   -2.3579    0.0010 C.ar    1  LIG1        0.0536
     14 N          -2.5179   -2.0869    0.0007 N.ar    1  LIG1       -0.3526
     15 H          -1.8086   -2.8014    0.0004 H       1  LIG1        0.1660
     16 H          -3.7135    0.9522    0.0006 H       1  LIG1        0.0639
     17 H          -5.5950   -0.9808    0.0014 H       1  LIG1        0.0639
     18 C          -4.4114   -3.6943    0.0014 C.ar    1  LIG1        0.0361
     19 C          -5.7348   -4.0902    0.0004 C.ar    1  LIG1       -0.0449
     20 C          -5.9113   -5.4940    0.0011 C.ar    1  LIG1       -0.0458
     21 C          -4.7359   -6.2154    0.0026 C.ar    1  LIG1        0.0265
     22 S          -3.3649   -5.1089    0.0033 S.2     1  LIG1       -0.0863
     23 H          -6.5571   -3.3847   -0.0010 H       1  LIG1        0.0630
     24 H          -6.8863   -5.9690    0.0004 H       1  LIG1        0.0629
     25 C          -4.5314   -7.6458    0.0036 C.ar    1  LIG1        0.0259
     26 C          -3.3496   -8.3584    0.0048 C.ar    1  LIG1       -0.0464
     27 C          -3.5333   -9.7697    0.0056 C.ar    1  LIG1       -0.0541
     28 C          -4.8500  -10.1365    0.0049 C.ar    1  LIG1       -0.0237
     29 S          -5.8988   -8.7520    0.0033 S.2     1  LIG1       -0.0961
     30 H          -5.2739  -11.1307    0.0052 H       1  LIG1        0.0693
     31 H          -2.3757   -7.8819    0.0052 H       1  LIG1        0.0629
     32 H          -2.7164  -10.4820    0.0065 H       1  LIG1        0.0623
@<TRIPOS>BOND
     1     6     5    1
     2     7     1    1
     3     1     5   ar
     4     1     2   ar
     5    23    19    1
     6     5     4   ar
     7     2     8    1
     8     2     3   ar
     9     4    10    1
    10     4     3   ar
    11    19    20   ar
    12    19    18   ar
    13    15    14    1
    14    24    20    1
    15    10    11   ar
    16    10    14   ar
    17    16    11    1
    18     3     9    1
    19    11    12   ar
    20    14    13   ar
    21    12    13   ar
    22    12    17    1
    23    13    18    1
    24    20    21   ar
    25    18    22   ar
    26    21    22   ar
    27    21    25    1
    28    29    25   ar
    29    29    28   ar
    30    25    26   ar
    31    26    31    1
    32    26    27   ar
    33    28    30    1
    34    28    27   ar
    35    27    32    1
