@<TRIPOS>MOLECULE
mol_data/opt/b3lyp/geoms/mol2/1313-12.out
 25 27 0 0 0
SMALL
GASTEIGER

@<TRIPOS>ATOM
      1 C           1.2587   -0.2863   -0.0001 C.ar    1  LIG1        0.0022
      2 C           0.8481    1.0296    0.0008 C.ar    1  LIG1       -0.0438
      3 C          -0.5718    1.0311    0.0006 C.ar    1  LIG1       -0.0350
      4 C          -1.0012   -0.2915    0.0000 C.ar    1  LIG1        0.0629
      5 N           0.1345   -1.0758   -0.0003 N.ar    1  LIG1       -0.3595
      6 H           0.1321   -2.0825   -0.0011 H       1  LIG1        0.1654
      7 H           2.2464   -0.7221   -0.0005 H       1  LIG1        0.0807
      8 H           1.4950    1.8953    0.0014 H       1  LIG1        0.0633
      9 H          -1.2080    1.9059    0.0010 H       1  LIG1        0.0639
     10 C          -2.3250   -0.8708   -0.0001 C.ar    1  LIG1        0.0634
     11 C          -2.7532   -2.1959    0.0000 C.ar    1  LIG1       -0.0343
     12 C          -4.1668   -2.1996   -0.0002 C.ar    1  LIG1       -0.0328
     13 C          -4.5921   -0.8775   -0.0006 C.ar    1  LIG1        0.0826
     14 N          -3.4590   -0.0880   -0.0006 N.ar    1  LIG1       -0.3506
     15 H          -3.4563    0.9187   -0.0005 H       1  LIG1        0.1660
     16 H          -2.1158   -3.0696    0.0003 H       1  LIG1        0.0639
     17 H          -4.8182   -3.0607   -0.0001 H       1  LIG1        0.0640
     18 C          -5.9177   -0.3180   -0.0010 C.ar    1  LIG1        0.1509
     19 C          -6.4146    0.9629   -0.0017 C.ar    1  LIG1       -0.0144
     20 C          -7.8406    0.8469   -0.0018 C.ar    1  LIG1       -0.0233
     21 C          -8.1148   -0.4853   -0.0013 C.ar    1  LIG1        0.0926
     22 O          -6.9570   -1.2106   -0.0008 O.2     1  LIG1       -0.4615
     23 H          -9.0274   -1.0600   -0.0013 H       1  LIG1        0.1029
     24 H          -5.8419    1.8795   -0.0020 H       1  LIG1        0.0656
     25 H          -8.5609    1.6522   -0.0023 H       1  LIG1        0.0649
@<TRIPOS>BOND
     1    25    20    1
     2    24    19    1
     3    20    19   ar
     4    20    21   ar
     5    19    18   ar
     6    21    23    1
     7    21    22   ar
     8     6     5    1
     9    18    22   ar
    10    18    13    1
    11    13    14   ar
    12    13    12   ar
    13    14    15    1
    14    14    10   ar
    15     7     1    1
    16     5     1   ar
    17     5     4   ar
    18    12    17    1
    19    12    11   ar
    20     1     2   ar
    21    10    11   ar
    22    10     4    1
    23    11    16    1
    24     4     3   ar
    25     3     2   ar
    26     3     9    1
    27     2     8    1
