@<TRIPOS>MOLECULE
mol_data/opt/b3lyp/geoms/mol2/13138-12-.out
 31 34 0 0 0
SMALL
GASTEIGER

@<TRIPOS>ATOM
      1 C           1.2688   -0.2412   -0.0006 C.ar    1  LIG1        0.0022
      2 C           0.8404    1.0703    0.0002 C.ar    1  LIG1       -0.0438
      3 C          -0.5759    1.0542    0.0004 C.ar    1  LIG1       -0.0350
      4 C          -0.9910   -0.2732    0.0002 C.ar    1  LIG1        0.0629
      5 N           0.1569   -1.0467   -0.0003 N.ar    1  LIG1       -0.3595
      6 H           0.1902   -2.0528   -0.0010 H       1  LIG1        0.1654
      7 H           2.2620   -0.6640   -0.0012 H       1  LIG1        0.0807
      8 H           1.4769    1.9433    0.0004 H       1  LIG1        0.0633
      9 H          -1.2324    1.9123    0.0009 H       1  LIG1        0.0639
     10 C          -2.3263   -0.8203    0.0004 C.ar    1  LIG1        0.0634
     11 C          -3.5589   -0.1511    0.0001 C.ar    1  LIG1       -0.0343
     12 C          -4.5798   -1.1146    0.0006 C.ar    1  LIG1       -0.0326
     13 C          -3.9714   -2.3685    0.0010 C.ar    1  LIG1        0.0880
     14 N          -2.6045   -2.1624    0.0009 N.ar    1  LIG1       -0.3505
     15 H          -1.9616   -2.9397    0.0013 H       1  LIG1        0.1660
     16 H          -3.6822    0.9219   -0.0003 H       1  LIG1        0.0639
     17 H          -5.6461   -0.9453    0.0006 H       1  LIG1        0.0640
     18 C          -4.5031   -3.6996    0.0016 C.ar    1  LIG1        0.2194
     19 N          -3.6073   -4.7225    0.0019 N.ar    1  LIG1       -0.1236
     20 C          -5.4136   -6.1098    0.0027 C.ar    1  LIG1        0.2381
     21 N          -5.8508   -3.8689    0.0017 N.ar    1  LIG1       -0.1236
     22 N          -4.0712   -5.9469    0.0025 N.ar    1  LIG1       -0.1220
     23 N          -6.3118   -5.0942    0.0023 N.ar    1  LIG1       -0.1220
     24 C          -5.8976   -7.4750    0.0034 C.ar    1  LIG1        0.1751
     25 C          -5.2361   -8.6784    0.0039 C.ar    1  LIG1       -0.0126
     26 C          -6.2419   -9.6876    0.0045 C.ar    1  LIG1       -0.0232
     27 C          -7.4380   -9.0288    0.0043 C.ar    1  LIG1        0.0927
     28 O          -7.2485   -7.6852    0.0035 O.2     1  LIG1       -0.4597
     29 H          -8.4658   -9.3567    0.0045 H       1  LIG1        0.1029
     30 H          -4.1643   -8.8044    0.0039 H       1  LIG1        0.0656
     31 H          -6.0977  -10.7581    0.0050 H       1  LIG1        0.0649
@<TRIPOS>BOND
     1     7     1    1
     2     6     5    1
     3     1     5   ar
     4     1     2   ar
     5    16    11    1
     6     5     4   ar
     7    11    10   ar
     8    11    12   ar
     9     4     3   ar
    10     4    10    1
    11     2     3   ar
    12     2     8    1
    13     3     9    1
    14    10    14   ar
    15    17    12    1
    16    12    13   ar
    17    14    13   ar
    18    14    15    1
    19    13    18    1
    20    18    21   ar
    21    18    19   ar
    22    21    23   ar
    23    19    22   ar
    24    23    20   ar
    25    22    20   ar
    26    20    24    1
    27    24    28   ar
    28    24    25   ar
    29    28    27   ar
    30    30    25    1
    31    25    26   ar
    32    27    26   ar
    33    27    29    1
    34    26    31    1
