@<TRIPOS>MOLECULE
mol_data/opt/b3lyp/geoms/mol2/13135-.out
 25 27 0 0 0
SMALL
GASTEIGER

@<TRIPOS>ATOM
      1 C           1.2813   -0.1152   -0.0011 C.ar    1  LIG1        0.0022
      2 C           0.8018    1.1767    0.0000 C.ar    1  LIG1       -0.0438
      3 C          -0.6148    1.1060    0.0003 C.ar    1  LIG1       -0.0350
      4 C          -0.9802   -0.2349    0.0001 C.ar    1  LIG1        0.0629
      5 N           0.1974   -0.9632   -0.0006 N.ar    1  LIG1       -0.3595
      6 H           0.2722   -1.9665   -0.0014 H       1  LIG1        0.1654
      7 H           2.2893   -0.5011   -0.0018 H       1  LIG1        0.0807
      8 H           1.4035    2.0742    0.0003 H       1  LIG1        0.0633
      9 H          -1.3034    1.9385    0.0009 H       1  LIG1        0.0639
     10 C          -2.2974   -0.8314    0.0005 C.ar    1  LIG1        0.0633
     11 C          -3.5477   -0.2192    0.0004 C.ar    1  LIG1       -0.0344
     12 C          -4.5308   -1.2309    0.0009 C.ar    1  LIG1       -0.0353
     13 C          -3.8851   -2.4624    0.0012 C.ar    1  LIG1        0.0536
     14 N          -2.5264   -2.1932    0.0010 N.ar    1  LIG1       -0.3526
     15 H          -1.8201   -2.9092    0.0010 H       1  LIG1        0.1660
     16 H          -3.7190    0.8472    0.0001 H       1  LIG1        0.0639
     17 H          -5.6021   -1.0869    0.0011 H       1  LIG1        0.0639
     18 C          -4.3961   -3.8128    0.0018 C.ar    1  LIG1        0.0355
     19 C          -3.7091   -5.0104    0.0031 C.ar    1  LIG1       -0.0455
     20 C          -4.5569   -6.1555    0.0032 C.ar    1  LIG1       -0.0541
     21 C          -5.8852   -5.8362    0.0020 C.ar    1  LIG1       -0.0237
     22 S          -6.1251   -4.1144    0.0006 S.2     1  LIG1       -0.0952
     23 H          -6.7394   -6.4979    0.0019 H       1  LIG1        0.0693
     24 H          -2.6264   -5.0818    0.0041 H       1  LIG1        0.0629
     25 H          -4.1885   -7.1750    0.0042 H       1  LIG1        0.0623
@<TRIPOS>BOND
     1     7     1    1
     2     6     5    1
     3     1     5   ar
     4     1     2   ar
     5     5     4   ar
     6     2     3   ar
     7     2     8    1
     8    16    11    1
     9     4     3   ar
    10     4    10    1
    11     3     9    1
    12    11    10   ar
    13    11    12   ar
    14    10    14   ar
    15    22    18   ar
    16    22    21   ar
    17    12    17    1
    18    12    13   ar
    19    15    14    1
    20    14    13   ar
    21    13    18    1
    22    18    19   ar
    23    23    21    1
    24    21    20   ar
    25    19    20   ar
    26    19    24    1
    27    20    25    1
