@<TRIPOS>MOLECULE
mol_data/opt/b3lyp/geoms/mol2/1313128-.out
 31 34 0 0 0
SMALL
GASTEIGER

@<TRIPOS>ATOM
      1 C           1.2456   -0.0375   -0.0007 C.ar    1  LIG1        0.0022
      2 C           0.7580    1.2528    0.0002 C.ar    1  LIG1       -0.0438
      3 C          -0.6565    1.1725    0.0003 C.ar    1  LIG1       -0.0350
      4 C          -1.0111   -0.1721    0.0001 C.ar    1  LIG1        0.0629
      5 N           0.1707   -0.8928   -0.0003 N.ar    1  LIG1       -0.3595
      6 H           0.2525   -1.8963   -0.0009 H       1  LIG1        0.1654
      7 H           2.2566   -0.4155   -0.0012 H       1  LIG1        0.0807
      8 H           1.3543    2.1538    0.0004 H       1  LIG1        0.0633
      9 H          -1.3512    1.9998    0.0007 H       1  LIG1        0.0639
     10 C          -2.3222   -0.7769    0.0004 C.ar    1  LIG1        0.0634
     11 C          -3.5804   -0.1670    0.0002 C.ar    1  LIG1       -0.0343
     12 C          -4.5586   -1.1778    0.0006 C.ar    1  LIG1       -0.0328
     13 C          -3.8981   -2.4045    0.0010 C.ar    1  LIG1        0.0826
     14 N          -2.5413   -2.1342    0.0008 N.ar    1  LIG1       -0.3506
     15 H          -1.8489   -2.8665    0.0012 H       1  LIG1        0.1660
     16 H          -3.7540    0.8989   -0.0002 H       1  LIG1        0.0639
     17 H          -5.6305   -1.0413    0.0006 H       1  LIG1        0.0640
     18 C          -4.3724   -3.7520    0.0015 C.ar    1  LIG1        0.1519
     19 C          -5.6258   -4.3395    0.0017 C.ar    1  LIG1       -0.0137
     20 C          -5.4141   -5.7361    0.0022 C.ar    1  LIG1       -0.0120
     21 C          -4.0511   -5.9374    0.0022 C.ar    1  LIG1        0.1760
     22 O          -3.4109   -4.7209    0.0018 O.2     1  LIG1       -0.4501
     23 H          -6.5722   -3.8200    0.0016 H       1  LIG1        0.0656
     24 H          -6.1571   -6.5195    0.0025 H       1  LIG1        0.0657
     25 C          -3.2470   -7.1273    0.0026 C.ar    1  LIG1        0.2381
     26 N          -1.8957   -7.0018    0.0026 N.ar    1  LIG1       -0.1226
     27 C          -1.8627   -9.2750    0.0035 C.ar    1  LIG1        0.1605
     28 N          -3.9175   -8.3106    0.0030 N.ar    1  LIG1       -0.1226
     29 N          -1.1909   -8.1177    0.0030 N.ar    1  LIG1       -0.1338
     30 N          -3.1998   -9.4102    0.0034 N.ar    1  LIG1       -0.1338
     31 H          -1.2765  -10.1875    0.0034 H       1  LIG1        0.1085
@<TRIPOS>BOND
     1     7     1    1
     2     6     5    1
     3     1     5   ar
     4     1     2   ar
     5     5     4   ar
     6    16    11    1
     7     4     3   ar
     8     4    10    1
     9     2     3   ar
    10     2     8    1
    11    11    10   ar
    12    11    12   ar
    13     3     9    1
    14    10    14   ar
    15    12    17    1
    16    12    13   ar
    17    14    13   ar
    18    14    15    1
    19    13    18    1
    20    18    19   ar
    21    18    22   ar
    22    23    19    1
    23    19    20   ar
    24    22    21   ar
    25    20    21   ar
    26    20    24    1
    27    21    25    1
    28    26    25   ar
    29    26    29   ar
    30    25    28   ar
    31    29    27   ar
    32    28    30   ar
    33    30    27   ar
    34    31    27    1
