@<TRIPOS>MOLECULE
mol_data/opt/b3lyp/geoms/mol2/1313-13-.out
 26 28 0 0 0
SMALL
GASTEIGER

@<TRIPOS>ATOM
      1 C           1.2967   -0.3278    0.0001 C.ar    1  LIG1        0.0022
      2 C           0.9038    0.9928    0.0011 C.ar    1  LIG1       -0.0438
      3 C          -0.5167    1.0131    0.0008 C.ar    1  LIG1       -0.0350
      4 C          -0.9644   -0.3036    0.0001 C.ar    1  LIG1        0.0629
      5 N           0.1610   -1.1023   -0.0002 N.ar    1  LIG1       -0.3595
      6 H           0.1446   -2.1089   -0.0011 H       1  LIG1        0.1654
      7 H           2.2783   -0.7771   -0.0001 H       1  LIG1        0.0807
      8 H           1.5620    1.8499    0.0018 H       1  LIG1        0.0633
      9 H          -1.1398    1.8974    0.0013 H       1  LIG1        0.0639
     10 C          -2.2955   -0.8654   -0.0002 C.ar    1  LIG1        0.0633
     11 C          -2.7473   -2.1796   -0.0002 C.ar    1  LIG1       -0.0343
     12 C          -4.1616   -2.1568   -0.0006 C.ar    1  LIG1       -0.0343
     13 C          -4.5725   -0.8294   -0.0008 C.ar    1  LIG1        0.0633
     14 N          -3.4203   -0.0630   -0.0007 N.ar    1  LIG1       -0.3519
     15 H          -3.3776    0.9420   -0.0002 H       1  LIG1        0.1660
     16 H          -2.1269   -3.0655    0.0000 H       1  LIG1        0.0639
     17 H          -4.8199   -3.0132   -0.0008 H       1  LIG1        0.0639
     18 C          -5.9086   -0.2748   -0.0013 C.ar    1  LIG1        0.0629
     19 C          -7.1390   -0.9205   -0.0006 C.ar    1  LIG1       -0.0350
     20 C          -8.1566    0.0685   -0.0014 C.ar    1  LIG1       -0.0438
     21 C          -7.5380    1.2994   -0.0028 C.ar    1  LIG1        0.0022
     22 N          -6.1781    1.0833   -0.0026 N.ar    1  LIG1       -0.3595
     23 H          -5.4939    1.8209   -0.0032 H       1  LIG1        0.1654
     24 H          -7.9421    2.3003   -0.0039 H       1  LIG1        0.0807
     25 H          -7.2794   -1.9918    0.0004 H       1  LIG1        0.0639
     26 H          -9.2235   -0.1032   -0.0010 H       1  LIG1        0.0633
@<TRIPOS>BOND
     1    24    21    1
     2    23    22    1
     3    21    22   ar
     4    21    20   ar
     5    22    18   ar
     6    20    26    1
     7    20    19   ar
     8    18    13    1
     9    18    19   ar
    10     6     5    1
    11    13    14   ar
    12    13    12   ar
    13    17    12    1
    14    14    15    1
    15    14    10   ar
    16    19    25    1
    17    12    11   ar
    18    11    10   ar
    19    11    16    1
    20    10     4    1
    21     5     4   ar
    22     5     1   ar
    23     7     1    1
    24     4     3   ar
    25     1     2   ar
    26     3     2   ar
    27     3     9    1
    28     2     8    1
