@<TRIPOS>MOLECULE
mol_data/opt/b3lyp/geoms/mol2/1313-84.out
 34 37 0 0 0
SMALL
GASTEIGER

@<TRIPOS>ATOM
      1 C           1.2946   -0.2654   -0.0006 C.ar    1  LIG1        0.0022
      2 C           0.8684    1.0474    0.0009 C.ar    1  LIG1       -0.0438
      3 C          -0.5488    1.0327    0.0007 C.ar    1  LIG1       -0.0350
      4 C          -0.9618   -0.2957   -0.0000 C.ar    1  LIG1        0.0629
      5 N           0.1832   -1.0681   -0.0007 N.ar    1  LIG1       -0.3595
      6 H           0.1953   -2.0749   -0.0016 H       1  LIG1        0.1654
      7 H           2.2880   -0.6880   -0.0012 H       1  LIG1        0.0807
      8 H           1.5055    1.9200    0.0016 H       1  LIG1        0.0633
      9 H          -1.1970    1.8981    0.0014 H       1  LIG1        0.0639
     10 C          -2.2782   -0.8861   -0.0002 C.ar    1  LIG1        0.0634
     11 C          -2.6831   -2.2292   -0.0002 C.ar    1  LIG1       -0.0343
     12 C          -4.0881   -2.2598   -0.0003 C.ar    1  LIG1       -0.0326
     13 C          -4.5327   -0.9394   -0.0005 C.ar    1  LIG1        0.0880
     14 N          -3.4163   -0.1280   -0.0003 N.ar    1  LIG1       -0.3505
     15 H          -3.4760    0.8794   -0.0004 H       1  LIG1        0.1660
     16 H          -2.0278   -3.0891   -0.0000 H       1  LIG1        0.0639
     17 H          -4.7290   -3.1285   -0.0003 H       1  LIG1        0.0640
     18 C          -5.8521   -0.3745   -0.0007 C.ar    1  LIG1        0.2194
     19 N          -5.9496    0.9783   -0.0008 N.ar    1  LIG1       -0.1237
     20 C          -8.2151    0.6790   -0.0012 C.ar    1  LIG1        0.2034
     21 N          -6.9203   -1.2128   -0.0008 N.ar    1  LIG1       -0.1237
     22 N          -7.1499    1.5078   -0.0010 N.ar    1  LIG1       -0.1252
     23 N          -8.1115   -0.6724   -0.0010 N.ar    1  LIG1       -0.1252
     24 C          -9.7258    2.6692   -0.0015 C.ar    1  LIG1       -0.0509
     25 C         -11.0013    3.2268   -0.0018 C.ar    1  LIG1       -0.0611
     26 C          -9.5650    1.2734   -0.0015 C.ar    1  LIG1        0.0226
     27 C         -12.1300    2.4038   -0.0020 C.ar    1  LIG1       -0.0617
     28 H         -11.1153    4.3068   -0.0018 H       1  LIG1        0.0618
     29 C         -10.7036    0.4502   -0.0017 C.ar    1  LIG1       -0.0509
     30 C         -11.9760    1.0157   -0.0020 C.ar    1  LIG1       -0.0611
     31 H         -10.5755   -0.6259   -0.0017 H       1  LIG1        0.0625
     32 H         -13.1239    2.8419   -0.0022 H       1  LIG1        0.0618
     33 H          -8.8452    3.3010   -0.0013 H       1  LIG1        0.0625
     34 H         -12.8499    0.3710   -0.0022 H       1  LIG1        0.0618
@<TRIPOS>BOND
     1    32    27    1
     2    34    30    1
     3    27    30   ar
     4    27    25   ar
     5    30    29   ar
     6    28    25    1
     7    25    24   ar
     8    29    31    1
     9    29    26   ar
    10     6     5    1
    11    24    26   ar
    12    24    33    1
    13    26    20    1
    14     7     1    1
    15    20    23   ar
    16    20    22   ar
    17    23    21   ar
    18    22    19   ar
    19    21    18   ar
    20    19    18   ar
    21    18    13    1
    22     5     1   ar
    23     5     4   ar
    24     1     2   ar
    25    13    14   ar
    26    13    12   ar
    27    15    14    1
    28    14    10   ar
    29    17    12    1
    30    12    11   ar
    31    11    10   ar
    32    11    16    1
    33    10     4    1
    34     4     3   ar
    35     3     2   ar
    36     3     9    1
    37     2     8    1
