@<TRIPOS>MOLECULE
mol_data/opt/b3lyp/geoms/mol2/134-13-13-.out
 36 39 0 0 0
SMALL
GASTEIGER

@<TRIPOS>ATOM
      1 C           1.4001   -0.2632   -0.0109 C.ar    1  LIG1        0.0022
      2 C           1.0057    1.0259    0.2815 C.ar    1  LIG1       -0.0438
      3 C          -0.4126    1.0324    0.3355 C.ar    1  LIG1       -0.0364
      4 C          -0.8599   -0.2575    0.0781 C.ar    1  LIG1        0.0465
      5 N           0.2684   -1.0327   -0.1179 N.ar    1  LIG1       -0.3607
      6 H           0.2503   -1.9914   -0.4259 H       1  LIG1        0.1653
      7 H           2.3816   -0.6907   -0.1509 H       1  LIG1        0.0807
      8 H           1.6642    1.8663    0.4490 H       1  LIG1        0.0633
      9 H          -1.0436    1.8754    0.5785 H       1  LIG1        0.0639
     10 C          -2.4644   -2.1796    0.2437 C.ar    1  LIG1       -0.0520
     11 C          -3.7515   -2.6962    0.1827 C.ar    1  LIG1       -0.0520
     12 C          -2.2091   -0.8127    0.0182 C.ar    1  LIG1       -0.0017
     13 C          -4.8558   -1.8730   -0.1079 C.ar    1  LIG1       -0.0017
     14 H          -3.9148   -3.7481    0.3952 H       1  LIG1        0.0624
     15 C          -3.3130    0.0105   -0.2704 C.ar    1  LIG1       -0.0520
     16 C          -4.6005   -0.5054   -0.3311 C.ar    1  LIG1       -0.0520
     17 H          -3.1487    1.0626   -0.4816 H       1  LIG1        0.0624
     18 H          -1.6482   -2.8439    0.5159 H       1  LIG1        0.0624
     19 H          -5.4179    0.1584   -0.6004 H       1  LIG1        0.0624
     20 C          -6.2029   -2.4259   -0.1707 C.ar    1  LIG1        0.0469
     21 C          -6.6512   -3.7217   -0.3906 C.ar    1  LIG1       -0.0358
     22 C          -8.0671   -3.7132   -0.3555 C.ar    1  LIG1       -0.0344
     23 C          -8.4776   -2.4119   -0.1067 C.ar    1  LIG1        0.0633
     24 N          -7.3335   -1.6359   -0.0260 N.ar    1  LIG1       -0.3530
     25 H          -7.3164   -0.7209    0.3977 H       1  LIG1        0.1659
     26 H          -6.0214   -4.5715   -0.6124 H       1  LIG1        0.0639
     27 H          -8.7275   -4.5486   -0.5387 H       1  LIG1        0.0639
     28 C          -9.8008   -1.8426    0.0416 C.ar    1  LIG1        0.0629
     29 C         -10.9721   -2.3763    0.5566 C.ar    1  LIG1       -0.0350
     30 C         -11.9846   -1.3838    0.4557 C.ar    1  LIG1       -0.0438
     31 C         -11.4150   -0.2659   -0.1141 C.ar    1  LIG1        0.0022
     32 N         -10.0872   -0.5436   -0.3466 N.ar    1  LIG1       -0.3595
     33 H          -9.4700    0.0255   -0.9040 H       1  LIG1        0.1654
     34 H         -11.8360    0.6959   -0.3656 H       1  LIG1        0.0807
     35 H         -11.0664   -3.3609    0.9916 H       1  LIG1        0.0639
     36 H         -13.0112   -1.4729    0.7816 H       1  LIG1        0.0633
@<TRIPOS>BOND
     1    33    32    1
     2    26    21    1
     3    19    16    1
     4    27    22    1
     5    17    15    1
     6     6     5    1
     7    21    22   ar
     8    21    20   ar
     9    34    31    1
    10    22    23   ar
    11    32    31   ar
    12    32    28   ar
    13    16    15   ar
    14    16    13   ar
    15    15    12   ar
    16    20    13    1
    17    20    24   ar
    18     7     1    1
    19     5     1   ar
    20     5     4   ar
    21    31    30   ar
    22    13    11   ar
    23    23    24   ar
    24    23    28    1
    25    24    25    1
    26     1     2   ar
    27    12     4    1
    28    12    10   ar
    29    28    29   ar
    30     4     3   ar
    31    11    10   ar
    32    11    14    1
    33    10    18    1
    34     2     3   ar
    35     2     8    1
    36     3     9    1
    37    30    29   ar
    38    30    36    1
    39    29    35    1
