@<TRIPOS>MOLECULE
mol_data/opt/b3lyp/geoms/mol2/134-8.out
 26 28 0 0 0
SMALL
GASTEIGER

@<TRIPOS>ATOM
      1 C           1.2869   -0.2432    0.0009 C.ar    1  LIG1        0.0022
      2 C           0.8664    1.0730    0.0010 C.ar    1  LIG1       -0.0438
      3 C          -0.5480    1.0609    0.0007 C.ar    1  LIG1       -0.0364
      4 C          -0.9733   -0.2659   -0.0002 C.ar    1  LIG1        0.0465
      5 N           0.1745   -1.0395   -0.0001 N.ar    1  LIG1       -0.3607
      6 H           0.1943   -2.0456   -0.0008 H       1  LIG1        0.1653
      7 H           2.2789   -0.6696    0.0012 H       1  LIG1        0.0807
      8 H           1.5072    1.9429    0.0015 H       1  LIG1        0.0633
      9 H          -1.1919    1.9282    0.0010 H       1  LIG1        0.0639
     10 C          -2.5413   -2.2275   -0.0016 C.ar    1  LIG1       -0.0520
     11 C          -3.8253   -2.7516   -0.0023 C.ar    1  LIG1       -0.0503
     12 C          -2.3131   -0.8354   -0.0010 C.ar    1  LIG1       -0.0017
     13 C          -4.9441   -1.9021   -0.0025 C.ar    1  LIG1        0.0227
     14 H          -3.9776   -3.8246   -0.0028 H       1  LIG1        0.0625
     15 C          -3.4464    0.0062   -0.0012 C.ar    1  LIG1       -0.0520
     16 C          -4.7308   -0.5113   -0.0019 C.ar    1  LIG1       -0.0503
     17 H          -3.3128    1.0824   -0.0007 H       1  LIG1        0.0624
     18 H          -1.7081   -2.9241   -0.0014 H       1  LIG1        0.0624
     19 H          -5.5872    0.1529   -0.0021 H       1  LIG1        0.0625
     20 C          -6.3041   -2.4542   -0.0033 C.ar    1  LIG1        0.2033
     21 N          -7.3440   -1.5869   -0.0037 N.ar    1  LIG1       -0.1258
     22 C          -8.6803   -3.4193   -0.0046 C.ar    1  LIG1        0.1605
     23 N          -6.4451   -3.8011   -0.0036 N.ar    1  LIG1       -0.1258
     24 N          -8.5642   -2.0852   -0.0044 N.ar    1  LIG1       -0.1339
     25 N          -7.6668   -4.2949   -0.0043 N.ar    1  LIG1       -0.1339
     26 H          -9.6855   -3.8276   -0.0054 H       1  LIG1        0.1085
@<TRIPOS>BOND
     1    26    22    1
     2    22    24   ar
     3    22    25   ar
     4    24    21   ar
     5    25    23   ar
     6    21    20   ar
     7    23    20   ar
     8    20    13    1
     9    14    11    1
    10    13    11   ar
    11    13    16   ar
    12    11    10   ar
    13    19    16    1
    14    16    15   ar
    15    10    18    1
    16    10    12   ar
    17    15    12   ar
    18    15    17    1
    19    12     4    1
    20     6     5    1
    21     4     5   ar
    22     4     3   ar
    23     5     1   ar
    24     3     2   ar
    25     3     9    1
    26     1     2   ar
    27     1     7    1
    28     2     8    1
