@<TRIPOS>MOLECULE
mol_data/opt/b3lyp/geoms/mol2/134-.out
 20 21 0 0 0
SMALL
GASTEIGER

@<TRIPOS>ATOM
      1 C           1.2332   -0.2693    0.0002 C.ar    1  LIG1        0.0022
      2 C           0.8163    1.0457    0.0007 C.ar    1  LIG1       -0.0438
      3 C          -0.6013    1.0370    0.0003 C.ar    1  LIG1       -0.0364
      4 C          -1.0298   -0.2859   -0.0003 C.ar    1  LIG1        0.0465
      5 N           0.1149   -1.0623   -0.0002 N.ar    1  LIG1       -0.3607
      6 H           0.1293   -2.0682   -0.0010 H       1  LIG1        0.1653
      7 H           2.2232   -0.7004    0.0002 H       1  LIG1        0.0807
      8 H           1.4586    1.9148    0.0013 H       1  LIG1        0.0633
      9 H          -1.2422    1.9066    0.0005 H       1  LIG1        0.0639
     10 C          -2.6046   -2.2464   -0.0011 C.ar    1  LIG1       -0.0526
     11 C          -3.8971   -2.7669   -0.0016 C.ar    1  LIG1       -0.0611
     12 C          -2.3766   -0.8573   -0.0007 C.ar    1  LIG1       -0.0017
     13 C          -5.0021   -1.9161   -0.0017 C.ar    1  LIG1       -0.0617
     14 H          -4.0383   -3.8441   -0.0019 H       1  LIG1        0.0618
     15 C          -3.5048   -0.0135   -0.0008 C.ar    1  LIG1       -0.0526
     16 C          -4.7943   -0.5346   -0.0013 C.ar    1  LIG1       -0.0611
     17 H          -3.3663    1.0626   -0.0006 H       1  LIG1        0.0624
     18 H          -6.0090   -2.3219   -0.0021 H       1  LIG1        0.0618
     19 H          -1.7708   -2.9434   -0.0010 H       1  LIG1        0.0624
     20 H          -5.6434    0.1430   -0.0014 H       1  LIG1        0.0618
@<TRIPOS>BOND
     1    18    13    1
     2    14    11    1
     3    13    11   ar
     4    13    16   ar
     5    11    10   ar
     6    20    16    1
     7    16    15   ar
     8    10    19    1
     9    10    12   ar
    10     6     5    1
    11    15    12   ar
    12    15    17    1
    13    12     4    1
    14     4     5   ar
    15     4     3   ar
    16     5     1   ar
    17     1     7    1
    18     1     2   ar
    19     3     9    1
    20     3     2   ar
    21     2     8    1
