@<TRIPOS>MOLECULE
mol_data/opt/b3lyp/geoms/mol2/134-13-.out
 28 30 0 0 0
SMALL
GASTEIGER

@<TRIPOS>ATOM
      1 C           1.3257   -0.2442    0.0010 C.ar    1  LIG1        0.0022
      2 C           0.9144    1.0727    0.0012 C.ar    1  LIG1       -0.0438
      3 C          -0.5031    1.0709    0.0010 C.ar    1  LIG1       -0.0364
      4 C          -0.9378   -0.2508   -0.0001 C.ar    1  LIG1        0.0465
      5 N           0.2035   -1.0322   -0.0001 N.ar    1  LIG1       -0.3607
      6 H           0.2132   -2.0383   -0.0011 H       1  LIG1        0.1653
      7 H           2.3137   -0.6797    0.0012 H       1  LIG1        0.0807
      8 H           1.5608    1.9387    0.0019 H       1  LIG1        0.0633
      9 H          -1.1404    1.9434    0.0013 H       1  LIG1        0.0639
     10 C          -2.5278   -2.2030   -0.0018 C.ar    1  LIG1       -0.0520
     11 C          -3.8161   -2.7185   -0.0027 C.ar    1  LIG1       -0.0520
     12 C          -2.2842   -0.8157   -0.0010 C.ar    1  LIG1       -0.0017
     13 C          -4.9464   -1.8798   -0.0027 C.ar    1  LIG1       -0.0017
     14 H          -3.9492   -3.7953   -0.0034 H       1  LIG1        0.0624
     15 C          -3.4145    0.0230   -0.0010 C.ar    1  LIG1       -0.0520
     16 C          -4.7028   -0.4925   -0.0018 C.ar    1  LIG1       -0.0520
     17 H          -3.2813    1.0999   -0.0003 H       1  LIG1        0.0624
     18 H          -1.7014   -2.9087   -0.0018 H       1  LIG1        0.0624
     19 H          -5.5292    0.2133   -0.0017 H       1  LIG1        0.0624
     20 C          -6.2929   -2.4447   -0.0036 C.ar    1  LIG1        0.0465
     21 C          -6.7275   -3.7664   -0.0035 C.ar    1  LIG1       -0.0364
     22 C          -8.1450   -3.7681   -0.0049 C.ar    1  LIG1       -0.0438
     23 C          -8.5563   -2.4512   -0.0051 C.ar    1  LIG1        0.0022
     24 N          -7.4341   -1.6632   -0.0047 N.ar    1  LIG1       -0.3607
     25 H          -7.4439   -0.6571   -0.0049 H       1  LIG1        0.1653
     26 H          -9.5443   -2.0157   -0.0059 H       1  LIG1        0.0807
     27 H          -6.0902   -4.6388   -0.0027 H       1  LIG1        0.0639
     28 H          -8.7914   -4.6341   -0.0053 H       1  LIG1        0.0633
@<TRIPOS>BOND
     1    26    23    1
     2    28    22    1
     3    23    22   ar
     4    23    24   ar
     5    25    24    1
     6    22    21   ar
     7    24    20   ar
     8    20    21   ar
     9    20    13    1
    10    21    27    1
    11    14    11    1
    12    13    11   ar
    13    13    16   ar
    14    11    10   ar
    15    16    19    1
    16    16    15   ar
    17    10    18    1
    18    10    12   ar
    19     6     5    1
    20    15    12   ar
    21    15    17    1
    22    12     4    1
    23     5     4   ar
    24     5     1   ar
    25     4     3   ar
    26     1     7    1
    27     1     2   ar
    28     3     2   ar
    29     3     9    1
    30     2     8    1
