@<TRIPOS>MOLECULE
mol_data/opt/b3lyp/geoms/mol2/134-412-.out
 37 40 0 0 0
SMALL
GASTEIGER

@<TRIPOS>ATOM
      1 C           1.4323   -0.1736   -0.0004 C.ar    1  LIG1        0.0022
      2 C           1.0078    1.1396    0.0005 C.ar    1  LIG1       -0.0438
      3 C          -0.4090    1.1236    0.0005 C.ar    1  LIG1       -0.0364
      4 C          -0.8301   -0.2028   -0.0004 C.ar    1  LIG1        0.0465
      5 N           0.3190   -0.9729   -0.0009 N.ar    1  LIG1       -0.3607
      6 H           0.3392   -1.9788   -0.0019 H       1  LIG1        0.1653
      7 H           2.4248   -0.5987   -0.0007 H       1  LIG1        0.0807
      8 H           1.6457    2.0118    0.0012 H       1  LIG1        0.0633
      9 H          -1.0555    1.9890    0.0012 H       1  LIG1        0.0639
     10 C          -2.4022   -2.1671   -0.0015 C.ar    1  LIG1       -0.0521
     11 C          -3.6882   -2.6924   -0.0019 C.ar    1  LIG1       -0.0534
     12 C          -2.1704   -0.7797   -0.0008 C.ar    1  LIG1       -0.0017
     13 C          -4.8310   -1.8712   -0.0015 C.ar    1  LIG1       -0.0178
     14 H          -3.7894   -3.7716   -0.0026 H       1  LIG1        0.0624
     15 C          -3.3101    0.0467   -0.0004 C.ar    1  LIG1       -0.0521
     16 C          -4.5920   -0.4818   -0.0008 C.ar    1  LIG1       -0.0534
     17 H          -3.1892    1.1250    0.0002 H       1  LIG1        0.0624
     18 H          -1.5708   -2.8671   -0.0018 H       1  LIG1        0.0624
     19 H          -5.4221    0.2151   -0.0004 H       1  LIG1        0.0624
     20 C          -7.3487   -1.6102   -0.0023 C.ar    1  LIG1       -0.0534
     21 C          -8.6357   -2.1319   -0.0026 C.ar    1  LIG1       -0.0505
     22 C          -6.2063   -2.4343   -0.0019 C.ar    1  LIG1       -0.0178
     23 C          -8.8539   -3.5197   -0.0027 C.ar    1  LIG1        0.0173
     24 H          -9.4869   -1.4602   -0.0029 H       1  LIG1        0.0625
     25 C          -6.4409   -3.8246   -0.0020 C.ar    1  LIG1       -0.0534
     26 C          -7.7230   -4.3543   -0.0024 C.ar    1  LIG1       -0.0505
     27 H          -5.6094   -4.5196   -0.0017 H       1  LIG1        0.0624
     28 H          -7.2439   -0.5314   -0.0023 H       1  LIG1        0.0624
     29 H          -7.8473   -5.4329   -0.0024 H       1  LIG1        0.0625
     30 C         -10.1975   -4.0779   -0.0030 C.ar    1  LIG1        0.1348
     31 C         -10.6932   -5.3583   -0.0029 C.ar    1  LIG1       -0.0159
     32 C         -12.1179   -5.2518   -0.0035 C.ar    1  LIG1       -0.0233
     33 C         -12.3978   -3.9192   -0.0039 C.ar    1  LIG1        0.0926
     34 O         -11.2463   -3.1920   -0.0036 O.2     1  LIG1       -0.4629
     35 H         -13.3141   -3.3502   -0.0043 H       1  LIG1        0.1029
     36 H         -10.1133   -6.2694   -0.0025 H       1  LIG1        0.0655
     37 H         -12.8353   -6.0596   -0.0035 H       1  LIG1        0.0649
@<TRIPOS>BOND
     1    35    33    1
     2    33    34   ar
     3    33    32   ar
     4    34    30   ar
     5    37    32    1
     6    32    31   ar
     7    30    31   ar
     8    30    23    1
     9    31    36    1
    10    24    21    1
    11    23    21   ar
    12    23    26   ar
    13    21    20   ar
    14    14    11    1
    15    29    26    1
    16    26    25   ar
    17    28    20    1
    18    20    22   ar
    19    25    22   ar
    20    25    27    1
    21    22    13    1
    22    11    13   ar
    23    11    10   ar
    24     6     5    1
    25    18    10    1
    26    13    16   ar
    27    10    12   ar
    28     5     1   ar
    29     5     4   ar
    30    12    15   ar
    31    12     4    1
    32    16    15   ar
    33    16    19    1
    34     7     1    1
    35    15    17    1
    36     1     2   ar
    37     4     3   ar
    38     3     2   ar
    39     3     9    1
    40     2     8    1
