@<TRIPOS>MOLECULE
mol_data/opt/b3lyp/geoms/mol2/134-8-13-.out
 34 37 0 0 0
SMALL
GASTEIGER

@<TRIPOS>ATOM
      1 C           1.3414   -0.1973    0.0011 C.ar    1  LIG1        0.0022
      2 C           0.9133    1.1159    0.0020 C.ar    1  LIG1       -0.0438
      3 C          -0.5018    1.0958    0.0010 C.ar    1  LIG1       -0.0364
      4 C          -0.9195   -0.2329    0.0001 C.ar    1  LIG1        0.0465
      5 N           0.2324   -0.9998    0.0003 N.ar    1  LIG1       -0.3607
      6 H           0.2569   -2.0058   -0.0005 H       1  LIG1        0.1653
      7 H           2.3355   -0.6187    0.0012 H       1  LIG1        0.0807
      8 H           1.5491    1.9895    0.0031 H       1  LIG1        0.0633
      9 H          -1.1506    1.9594    0.0011 H       1  LIG1        0.0639
     10 C          -2.4768   -2.2042   -0.0016 C.ar    1  LIG1       -0.0520
     11 C          -3.7579   -2.7370   -0.0025 C.ar    1  LIG1       -0.0503
     12 C          -2.2568   -0.8115   -0.0009 C.ar    1  LIG1       -0.0017
     13 C          -4.8830   -1.8963   -0.0029 C.ar    1  LIG1        0.0227
     14 H          -3.9027   -3.8111   -0.0030 H       1  LIG1        0.0625
     15 C          -3.3957    0.0216   -0.0013 C.ar    1  LIG1       -0.0520
     16 C          -4.6771   -0.5045   -0.0023 C.ar    1  LIG1       -0.0503
     17 H          -3.2694    1.0989   -0.0009 H       1  LIG1        0.0624
     18 H          -1.6392   -2.8961   -0.0013 H       1  LIG1        0.0624
     19 H          -5.5373    0.1549   -0.0026 H       1  LIG1        0.0625
     20 C          -6.2400   -2.4578   -0.0039 C.ar    1  LIG1        0.2034
     21 N          -6.3745   -3.8072   -0.0043 N.ar    1  LIG1       -0.1252
     22 C          -8.6262   -3.4589   -0.0057 C.ar    1  LIG1        0.2194
     23 N          -7.2885   -1.6049   -0.0044 N.ar    1  LIG1       -0.1252
     24 N          -7.5787   -4.3198   -0.0052 N.ar    1  LIG1       -0.1237
     25 N          -8.4989   -2.1108   -0.0053 N.ar    1  LIG1       -0.1237
     26 C          -9.9627   -3.9963   -0.0068 C.ar    1  LIG1        0.0875
     27 C         -10.4372   -5.3047   -0.0073 C.ar    1  LIG1       -0.0333
     28 C         -11.8480   -5.2392   -0.0079 C.ar    1  LIG1       -0.0437
     29 C         -12.2021   -3.8974   -0.0085 C.ar    1  LIG1        0.0023
     30 N         -11.0578   -3.1577   -0.0074 N.ar    1  LIG1       -0.3582
     31 H         -10.9734   -2.1520   -0.0071 H       1  LIG1        0.1654
     32 H         -13.1739   -3.4266   -0.0092 H       1  LIG1        0.0807
     33 H          -9.8160   -6.1878   -0.0071 H       1  LIG1        0.0640
     34 H         -12.5358   -6.0724   -0.0082 H       1  LIG1        0.0633
@<TRIPOS>BOND
     1    32    29    1
     2    29    28   ar
     3    29    30   ar
     4    34    28    1
     5    28    27   ar
     6    30    31    1
     7    30    26   ar
     8    27    33    1
     9    27    26   ar
    10    26    22    1
    11    22    25   ar
    12    22    24   ar
    13    25    23   ar
    14    24    21   ar
    15    23    20   ar
    16    21    20   ar
    17    20    13    1
    18    14    11    1
    19    13    11   ar
    20    13    16   ar
    21    19    16    1
    22    11    10   ar
    23    16    15   ar
    24    10    18    1
    25    10    12   ar
    26    15    12   ar
    27    15    17    1
    28    12     4    1
    29     6     5    1
    30     4     5   ar
    31     4     3   ar
    32     5     1   ar
    33     3     9    1
    34     3     2   ar
    35     1     7    1
    36     1     2   ar
    37     2     8    1
