@<TRIPOS>MOLECULE
mol_data/opt/b3lyp/geoms/mol2/134-128.out
 33 36 0 0 0
SMALL
GASTEIGER

@<TRIPOS>ATOM
      1 C           1.3462   -0.0598    0.0005 C.ar    1  LIG1        0.0022
      2 C           0.8813    1.2406    0.0018 C.ar    1  LIG1       -0.0438
      3 C          -0.5330    1.1807    0.0009 C.ar    1  LIG1       -0.0364
      4 C          -0.9129   -0.1591   -0.0001 C.ar    1  LIG1        0.0465
      5 N           0.2599   -0.8933   -0.0002 N.ar    1  LIG1       -0.3607
      6 H           0.3129   -1.8983   -0.0011 H       1  LIG1        0.1653
      7 H           2.3517   -0.4531    0.0004 H       1  LIG1        0.0807
      8 H           1.4922    2.1318    0.0029 H       1  LIG1        0.0633
      9 H          -1.2056    2.0260    0.0013 H       1  LIG1        0.0639
     10 C          -2.4174   -2.1723   -0.0017 C.ar    1  LIG1       -0.0520
     11 C          -3.6831   -2.7410   -0.0025 C.ar    1  LIG1       -0.0505
     12 C          -2.2335   -0.7751   -0.0009 C.ar    1  LIG1       -0.0017
     13 C          -4.8338   -1.9331   -0.0026 C.ar    1  LIG1        0.0173
     14 H          -3.7909   -3.8199   -0.0031 H       1  LIG1        0.0625
     15 C          -3.3952    0.0261   -0.0010 C.ar    1  LIG1       -0.0520
     16 C          -4.6606   -0.5357   -0.0018 C.ar    1  LIG1       -0.0505
     17 H          -3.2996    1.1065   -0.0005 H       1  LIG1        0.0624
     18 H          -1.5619   -2.8418   -0.0016 H       1  LIG1        0.0624
     19 H          -5.5280    0.1172   -0.0019 H       1  LIG1        0.0625
     20 C          -6.1609   -2.5205   -0.0035 C.ar    1  LIG1        0.1358
     21 C          -7.4367   -1.9885   -0.0040 C.ar    1  LIG1       -0.0151
     22 C          -8.3354   -3.0804   -0.0048 C.ar    1  LIG1       -0.0120
     23 C          -7.5643   -4.2203   -0.0047 C.ar    1  LIG1        0.1760
     24 O          -6.2397   -3.8811   -0.0040 O.2     1  LIG1       -0.4516
     25 H          -7.6932   -0.9398   -0.0038 H       1  LIG1        0.0656
     26 H          -9.4147   -3.0560   -0.0053 H       1  LIG1        0.0657
     27 C          -7.9163   -5.6184   -0.0054 C.ar    1  LIG1        0.2381
     28 N          -9.2439   -5.9015   -0.0060 N.ar    1  LIG1       -0.1226
     29 C          -8.6022   -8.0775   -0.0067 C.ar    1  LIG1        0.1605
     30 N          -6.9258   -6.5424   -0.0054 N.ar    1  LIG1       -0.1226
     31 N          -9.5912   -7.1693   -0.0066 N.ar    1  LIG1       -0.1338
     32 N          -7.2907   -7.8111   -0.0060 N.ar    1  LIG1       -0.1338
     33 H          -8.8942   -9.1221   -0.0068 H       1  LIG1        0.1085
@<TRIPOS>BOND
     1    33    29    1
     2    29    31   ar
     3    29    32   ar
     4    31    28   ar
     5    32    30   ar
     6    28    27   ar
     7    30    27   ar
     8    27    23    1
     9    26    22    1
    10    22    23   ar
    11    22    21   ar
    12    23    24   ar
    13    21    25    1
    14    21    20   ar
    15    24    20   ar
    16    20    13    1
    17    14    11    1
    18    13    11   ar
    19    13    16   ar
    20    11    10   ar
    21    19    16    1
    22    16    15   ar
    23    10    18    1
    24    10    12   ar
    25     6     5    1
    26    15    12   ar
    27    15    17    1
    28    12     4    1
    29     5     4   ar
    30     5     1   ar
    31     4     3   ar
    32     7     1    1
    33     1     2   ar
    34     3     9    1
    35     3     2   ar
    36     2     8    1
