@<TRIPOS>MOLECULE
mol_data/opt/b3lyp/geoms/mol2/134-5-.out
 27 29 0 0 0
SMALL
GASTEIGER

@<TRIPOS>ATOM
      1 C           1.3211   -0.2103    0.0002 C.ar    1  LIG1        0.0022
      2 C           0.8910    1.1010    0.0016 C.ar    1  LIG1       -0.0438
      3 C          -0.5257    1.0790    0.0006 C.ar    1  LIG1       -0.0364
      4 C          -0.9413   -0.2492   -0.0002 C.ar    1  LIG1        0.0465
      5 N           0.2111   -1.0145   -0.0002 N.ar    1  LIG1       -0.3607
      6 H           0.2364   -2.0203   -0.0010 H       1  LIG1        0.1653
      7 H           2.3154   -0.6313    0.0001 H       1  LIG1        0.0807
      8 H           1.5252    1.9759    0.0026 H       1  LIG1        0.0633
      9 H          -1.1756    1.9418    0.0009 H       1  LIG1        0.0639
     10 C          -2.5041   -2.2209   -0.0015 C.ar    1  LIG1       -0.0520
     11 C          -3.7862   -2.7529   -0.0022 C.ar    1  LIG1       -0.0529
     12 C          -2.2798   -0.8306   -0.0009 C.ar    1  LIG1       -0.0017
     13 C          -4.9251   -1.9266   -0.0024 C.ar    1  LIG1       -0.0113
     14 H          -3.9010   -3.8316   -0.0027 H       1  LIG1        0.0624
     15 C          -3.4206   -0.0049   -0.0011 C.ar    1  LIG1       -0.0520
     16 C          -4.7012   -0.5363   -0.0018 C.ar    1  LIG1       -0.0529
     17 H          -3.3009    1.0733   -0.0007 H       1  LIG1        0.0624
     18 H          -1.6686   -2.9158   -0.0014 H       1  LIG1        0.0624
     19 H          -5.5458    0.1467   -0.0019 H       1  LIG1        0.0624
     20 C          -6.2740   -2.4999   -0.0031 C.ar    1  LIG1        0.0193
     21 C          -6.6523   -3.8258   -0.0030 C.ar    1  LIG1       -0.0469
     22 C          -8.0616   -4.0256   -0.0039 C.ar    1  LIG1       -0.0541
     23 C          -8.7643   -2.8531   -0.0047 C.ar    1  LIG1       -0.0237
     24 S          -7.7061   -1.4799   -0.0045 S.2     1  LIG1       -0.0967
     25 H          -9.8353   -2.7080   -0.0054 H       1  LIG1        0.0693
     26 H          -5.9425   -4.6443   -0.0022 H       1  LIG1        0.0629
     27 H          -8.5307   -5.0028   -0.0038 H       1  LIG1        0.0623
@<TRIPOS>BOND
     1    25    23    1
     2    23    24   ar
     3    23    22   ar
     4    24    20   ar
     5    22    27    1
     6    22    21   ar
     7    20    21   ar
     8    20    13    1
     9    21    26    1
    10    14    11    1
    11    13    11   ar
    12    13    16   ar
    13    11    10   ar
    14    19    16    1
    15    16    15   ar
    16    10    18    1
    17    10    12   ar
    18    15    12   ar
    19    15    17    1
    20     6     5    1
    21    12     4    1
    22     5     4   ar
    23     5     1   ar
    24     4     3   ar
    25     7     1    1
    26     1     2   ar
    27     3     9    1
    28     3     2   ar
    29     2     8    1
