@<TRIPOS>MOLECULE
mol_data/opt/b3lyp/geoms/mol2/134-13-5.out
 35 38 0 0 0
SMALL
GASTEIGER

@<TRIPOS>ATOM
      1 C           1.4289   -0.2879    0.0014 C.ar    1  LIG1        0.0022
      2 C           1.0323    1.0337    0.0019 C.ar    1  LIG1       -0.0438
      3 C          -0.3847    1.0479    0.0013 C.ar    1  LIG1       -0.0364
      4 C          -0.8342   -0.2692    0.0002 C.ar    1  LIG1        0.0465
      5 N           0.2982   -1.0635    0.0003 N.ar    1  LIG1       -0.3607
      6 H           0.2977   -2.0697   -0.0007 H       1  LIG1        0.1653
      7 H           2.4119   -0.7345    0.0016 H       1  LIG1        0.0807
      8 H           1.6885    1.8920    0.0028 H       1  LIG1        0.0633
      9 H          -1.0121    1.9275    0.0016 H       1  LIG1        0.0639
     10 C          -2.4459   -2.2025   -0.0017 C.ar    1  LIG1       -0.0520
     11 C          -3.7394   -2.7033   -0.0027 C.ar    1  LIG1       -0.0520
     12 C          -2.1866   -0.8176   -0.0009 C.ar    1  LIG1       -0.0017
     13 C          -4.8598   -1.8507   -0.0029 C.ar    1  LIG1       -0.0017
     14 H          -3.8846   -3.7786   -0.0033 H       1  LIG1        0.0624
     15 C          -3.3073    0.0347   -0.0011 C.ar    1  LIG1       -0.0520
     16 C          -4.6010   -0.4655   -0.0020 C.ar    1  LIG1       -0.0520
     17 H          -3.1616    1.1098   -0.0005 H       1  LIG1        0.0624
     18 H          -1.6271   -2.9169   -0.0015 H       1  LIG1        0.0624
     19 H          -5.4194    0.2493   -0.0021 H       1  LIG1        0.0624
     20 C          -6.2107   -2.3984   -0.0039 C.ar    1  LIG1        0.0469
     21 C          -6.6588   -3.7186   -0.0039 C.ar    1  LIG1       -0.0358
     22 C          -8.0680   -3.7065   -0.0051 C.ar    1  LIG1       -0.0353
     23 C          -8.4849   -2.3779   -0.0058 C.ar    1  LIG1        0.0536
     24 N          -7.3413   -1.6066   -0.0051 N.ar    1  LIG1       -0.3537
     25 H          -7.3381   -0.6007   -0.0050 H       1  LIG1        0.1659
     26 H          -6.0313   -4.5977   -0.0032 H       1  LIG1        0.0639
     27 H          -8.7204   -4.5683   -0.0056 H       1  LIG1        0.0639
     28 C          -9.8062   -1.7926   -0.0072 C.ar    1  LIG1        0.0355
     29 C         -10.1754   -0.4627   -0.0095 C.ar    1  LIG1       -0.0455
     30 C         -11.5856   -0.2622   -0.0102 C.ar    1  LIG1       -0.0541
     31 C         -12.2908   -1.4324   -0.0084 C.ar    1  LIG1       -0.0237
     32 S         -11.2343   -2.8120   -0.0057 S.2     1  LIG1       -0.0952
     33 H         -13.3618   -1.5756   -0.0084 H       1  LIG1        0.0693
     34 H          -9.4647    0.3568   -0.0110 H       1  LIG1        0.0629
     35 H         -12.0532    0.7158   -0.0120 H       1  LIG1        0.0623
@<TRIPOS>BOND
     1    35    30    1
     2    34    29    1
     3    30    29   ar
     4    30    31   ar
     5    29    28   ar
     6    33    31    1
     7    31    32   ar
     8    28    23    1
     9    28    32   ar
    10    23    22   ar
    11    23    24   ar
    12    27    22    1
    13    22    21   ar
    14    24    25    1
    15    24    20   ar
    16    21    20   ar
    17    21    26    1
    18    20    13    1
    19    14    11    1
    20    13    11   ar
    21    13    16   ar
    22    11    10   ar
    23    19    16    1
    24    16    15   ar
    25    10    18    1
    26    10    12   ar
    27    15    12   ar
    28    15    17    1
    29    12     4    1
    30     6     5    1
    31     4     5   ar
    32     4     3   ar
    33     5     1   ar
    34     3     9    1
    35     3     2   ar
    36     1     7    1
    37     1     2   ar
    38     2     8    1
