@<TRIPOS>MOLECULE
mol_data/opt/b3lyp/geoms/mol2/134-12-.out
 27 29 0 0 0
SMALL
GASTEIGER

@<TRIPOS>ATOM
      1 C           1.3037   -0.2557    0.0005 C.ar    1  LIG1        0.0022
      2 C           0.8925    1.0615    0.0015 C.ar    1  LIG1       -0.0438
      3 C          -0.5245    1.0599    0.0006 C.ar    1  LIG1       -0.0364
      4 C          -0.9593   -0.2620   -0.0002 C.ar    1  LIG1        0.0465
      5 N           0.1820   -1.0437   -0.0001 N.ar    1  LIG1       -0.3607
      6 H           0.1927   -2.0498   -0.0009 H       1  LIG1        0.1653
      7 H           2.2918   -0.6911    0.0005 H       1  LIG1        0.0807
      8 H           1.5391    1.9273    0.0024 H       1  LIG1        0.0633
      9 H          -1.1619    1.9320    0.0008 H       1  LIG1        0.0639
     10 C          -2.5470   -2.2130   -0.0015 C.ar    1  LIG1       -0.0520
     11 C          -3.8359   -2.7278   -0.0023 C.ar    1  LIG1       -0.0505
     12 C          -2.3063   -0.8248   -0.0010 C.ar    1  LIG1       -0.0017
     13 C          -4.9562   -1.8794   -0.0025 C.ar    1  LIG1        0.0173
     14 H          -3.9739   -3.8048   -0.0027 H       1  LIG1        0.0625
     15 C          -3.4350    0.0185   -0.0012 C.ar    1  LIG1       -0.0520
     16 C          -4.7246   -0.4913   -0.0020 C.ar    1  LIG1       -0.0505
     17 H          -3.2972    1.0947   -0.0009 H       1  LIG1        0.0624
     18 H          -1.7198   -2.9176   -0.0013 H       1  LIG1        0.0624
     19 H          -5.5706    0.1869   -0.0022 H       1  LIG1        0.0625
     20 C          -6.3063   -2.4225   -0.0033 C.ar    1  LIG1        0.1348
     21 C          -6.8179   -3.6966   -0.0037 C.ar    1  LIG1       -0.0159
     22 C          -8.2415   -3.5723   -0.0044 C.ar    1  LIG1       -0.0233
     23 C          -8.5051   -2.2366   -0.0044 C.ar    1  LIG1        0.0926
     24 O          -7.3441   -1.5237   -0.0038 O.2     1  LIG1       -0.4629
     25 H          -9.4140   -1.6558   -0.0048 H       1  LIG1        0.1029
     26 H          -6.2500   -4.6152   -0.0034 H       1  LIG1        0.0655
     27 H          -8.9686   -4.3713   -0.0049 H       1  LIG1        0.0649
@<TRIPOS>BOND
     1    27    22    1
     2    25    23    1
     3    22    23   ar
     4    22    21   ar
     5    23    24   ar
     6    24    20   ar
     7    21    26    1
     8    21    20   ar
     9    20    13    1
    10    14    11    1
    11    13    11   ar
    12    13    16   ar
    13    11    10   ar
    14    19    16    1
    15    16    15   ar
    16    10    18    1
    17    10    12   ar
    18    15    12   ar
    19    15    17    1
    20    12     4    1
    21     6     5    1
    22     4     5   ar
    23     4     3   ar
    24     5     1   ar
    25     7     1    1
    26     1     2   ar
    27     3     9    1
    28     3     2   ar
    29     2     8    1
