@<TRIPOS>MOLECULE
mol_data/opt/b3lyp/geoms/mol2/134.out
 20 21 0 0 0
SMALL
GASTEIGER

@<TRIPOS>ATOM
      1 C           1.2340   -0.2400   -0.0006 C.ar    1  LIG1        0.0022
      2 C           0.7973    1.0686   -0.0001 C.ar    1  LIG1       -0.0438
      3 C          -0.6200    1.0383    0.0003 C.ar    1  LIG1       -0.0364
      4 C          -1.0284   -0.2909    0.0004 C.ar    1  LIG1        0.0465
      5 N           0.1279   -1.0498   -0.0001 N.ar    1  LIG1       -0.3607
      6 H           0.1579   -2.0555   -0.0005 H       1  LIG1        0.1653
      7 H           2.2305   -0.6560   -0.0011 H       1  LIG1        0.0807
      8 H           1.4263    1.9473   -0.0002 H       1  LIG1        0.0633
      9 H          -1.2743    1.8980    0.0007 H       1  LIG1        0.0639
     10 C          -3.5076   -0.0566    0.0015 C.ar    1  LIG1       -0.0526
     11 C          -4.7889   -0.5978    0.0021 C.ar    1  LIG1       -0.0611
     12 C          -2.3665   -0.8825    0.0010 C.ar    1  LIG1       -0.0017
     13 C          -4.9751   -1.9822    0.0022 C.ar    1  LIG1       -0.0617
     14 H          -5.6484    0.0666    0.0025 H       1  LIG1        0.0618
     15 C          -2.5728   -2.2752    0.0012 C.ar    1  LIG1       -0.0526
     16 C          -3.8568   -2.8158    0.0017 C.ar    1  LIG1       -0.0611
     17 H          -1.7280   -2.9587    0.0008 H       1  LIG1        0.0624
     18 H          -5.9755   -2.4037    0.0026 H       1  LIG1        0.0618
     19 H          -3.3863    1.0217    0.0014 H       1  LIG1        0.0624
     20 H          -3.9814   -3.8950    0.0018 H       1  LIG1        0.0618
@<TRIPOS>BOND
     1     7     1    1
     2     1     2   ar
     3     1     5   ar
     4     6     5    1
     5     8     2    1
     6     2     3   ar
     7     5     4   ar
     8     3     4   ar
     9     3     9    1
    10     4    12    1
    11    17    15    1
    12    12    15   ar
    13    12    10   ar
    14    15    16   ar
    15    19    10    1
    16    10    11   ar
    17    16    20    1
    18    16    13   ar
    19    11    13   ar
    20    11    14    1
    21    13    18    1
