@<TRIPOS>MOLECULE
mol_data/opt/b3lyp/geoms/mol2/13412-8-.out
 33 36 0 0 0
SMALL
GASTEIGER

@<TRIPOS>ATOM
      1 C           1.4030   -0.2972   -0.0020 C.ar    1  LIG1        0.0022
      2 C           0.9949    1.0220   -0.0008 C.ar    1  LIG1       -0.0438
      3 C          -0.4206    1.0236    0.0001 C.ar    1  LIG1       -0.0364
      4 C          -0.8586   -0.2983    0.0003 C.ar    1  LIG1        0.0465
      5 N           0.2814   -1.0830   -0.0009 N.ar    1  LIG1       -0.3607
      6 H           0.2916   -2.0892   -0.0013 H       1  LIG1        0.1653
      7 H           2.3905   -0.7338   -0.0031 H       1  LIG1        0.0807
      8 H           1.6437    1.8859   -0.0010 H       1  LIG1        0.0633
      9 H          -1.0559    1.8972    0.0009 H       1  LIG1        0.0639
     10 C          -3.3305   -0.0037    0.0024 C.ar    1  LIG1       -0.0520
     11 C          -4.6215   -0.5060    0.0034 C.ar    1  LIG1       -0.0505
     12 C          -2.2055   -0.8545    0.0014 C.ar    1  LIG1       -0.0017
     13 C          -4.8554   -1.8947    0.0035 C.ar    1  LIG1        0.0173
     14 H          -5.4658    0.1745    0.0042 H       1  LIG1        0.0625
     15 C          -2.4507   -2.2431    0.0015 C.ar    1  LIG1       -0.0520
     16 C          -3.7410   -2.7517    0.0025 C.ar    1  LIG1       -0.0505
     17 H          -1.6262   -2.9503    0.0008 H       1  LIG1        0.0624
     18 H          -3.1866    1.0714    0.0023 H       1  LIG1        0.0624
     19 H          -3.8844   -3.8278    0.0026 H       1  LIG1        0.0625
     20 C          -6.2054   -2.4280    0.0046 C.ar    1  LIG1        0.1358
     21 C          -6.7219   -3.7102    0.0053 C.ar    1  LIG1       -0.0151
     22 C          -8.1303   -3.5842    0.0063 C.ar    1  LIG1       -0.0120
     23 C          -8.4010   -2.2349    0.0063 C.ar    1  LIG1        0.1760
     24 O          -7.2299   -1.5295    0.0053 O.2     1  LIG1       -0.4516
     25 H          -6.1552   -4.6292    0.0050 H       1  LIG1        0.0656
     26 H          -8.8704   -4.3701    0.0070 H       1  LIG1        0.0657
     27 C          -9.6447   -1.5053    0.0072 C.ar    1  LIG1        0.2381
     28 N         -10.7771   -2.2537    0.0079 N.ar    1  LIG1       -0.1226
     29 C         -11.8791   -0.2707    0.0089 C.ar    1  LIG1        0.1605
     30 N          -9.6092   -0.1513    0.0072 N.ar    1  LIG1       -0.1226
     31 N         -11.9248   -1.6126    0.0087 N.ar    1  LIG1       -0.1338
     32 N         -10.7697    0.4778    0.0080 N.ar    1  LIG1       -0.1338
     33 H         -12.8287    0.2534    0.0091 H       1  LIG1        0.1085
@<TRIPOS>BOND
     1     7     1    1
     2     1     5   ar
     3     1     2   ar
     4     6     5    1
     5     8     2    1
     6     5     4   ar
     7     2     3   ar
     8     3     4   ar
     9     3     9    1
    10     4    12    1
    11    17    15    1
    12    12    15   ar
    13    12    10   ar
    14    15    16   ar
    15    18    10    1
    16    10    11   ar
    17    16    19    1
    18    16    13   ar
    19    11    13   ar
    20    11    14    1
    21    13    20    1
    22    20    24   ar
    23    20    21   ar
    24    25    21    1
    25    24    23   ar
    26    21    22   ar
    27    23    22   ar
    28    23    27    1
    29    22    26    1
    30    27    30   ar
    31    27    28   ar
    32    30    32   ar
    33    28    31   ar
    34    32    29   ar
    35    31    29   ar
    36    29    33    1
