@<TRIPOS>MOLECULE
mol_data/opt/b3lyp/geoms/mol2/1341312-.out
 35 38 0 0 0
SMALL
GASTEIGER

@<TRIPOS>ATOM
      1 C           1.3729   -0.0873   -0.0020 C.ar    1  LIG1        0.0022
      2 C           0.9058    1.2109   -0.0016 C.ar    1  LIG1       -0.0438
      3 C          -0.5101    1.1490   -0.0003 C.ar    1  LIG1       -0.0364
      4 C          -0.8881   -0.1903    0.0001 C.ar    1  LIG1        0.0465
      5 N           0.2854   -0.9227   -0.0010 N.ar    1  LIG1       -0.3607
      6 H           0.3389   -1.9273   -0.0013 H       1  LIG1        0.1653
      7 H           2.3785   -0.4803   -0.0029 H       1  LIG1        0.0807
      8 H           1.5148    2.1035   -0.0022 H       1  LIG1        0.0633
      9 H          -1.1841    1.9933    0.0004 H       1  LIG1        0.0639
     10 C          -3.3749   -0.0141    0.0023 C.ar    1  LIG1       -0.0520
     11 C          -4.6400   -0.5765    0.0035 C.ar    1  LIG1       -0.0520
     12 C          -2.2101   -0.8092    0.0013 C.ar    1  LIG1       -0.0017
     13 C          -4.8287   -1.9742    0.0038 C.ar    1  LIG1       -0.0017
     14 H          -5.5044    0.0793    0.0042 H       1  LIG1        0.0624
     15 C          -2.3978   -2.2032    0.0017 C.ar    1  LIG1       -0.0520
     16 C          -3.6676   -2.7684    0.0029 C.ar    1  LIG1       -0.0520
     17 H          -1.5448   -2.8764    0.0010 H       1  LIG1        0.0624
     18 H          -3.2825    1.0669    0.0020 H       1  LIG1        0.0624
     19 H          -3.7388   -3.8527    0.0030 H       1  LIG1        0.0624
     20 C          -6.1711   -2.5427    0.0051 C.ar    1  LIG1        0.0470
     21 C          -7.4216   -1.9266    0.0054 C.ar    1  LIG1       -0.0357
     22 C          -8.4124   -2.9304    0.0067 C.ar    1  LIG1       -0.0328
     23 C          -7.7637   -4.1603    0.0072 C.ar    1  LIG1        0.0825
     24 N          -6.4100   -3.9035    0.0063 N.ar    1  LIG1       -0.3518
     25 H          -5.6980   -4.6143    0.0060 H       1  LIG1        0.1660
     26 H          -7.5980   -0.8610    0.0047 H       1  LIG1        0.0639
     27 H          -9.4834   -2.7935    0.0073 H       1  LIG1        0.0640
     28 C          -8.2918   -5.4990    0.0086 C.ar    1  LIG1        0.1509
     29 C          -7.7244   -6.7503    0.0104 C.ar    1  LIG1       -0.0144
     30 C          -8.8049   -7.6878    0.0111 C.ar    1  LIG1       -0.0233
     31 C          -9.9488   -6.9512    0.0098 C.ar    1  LIG1        0.0926
     32 O          -9.6563   -5.6173    0.0083 O.2     1  LIG1       -0.4615
     33 H         -10.9977   -7.2010    0.0098 H       1  LIG1        0.1029
     34 H          -6.6690   -6.9830    0.0111 H       1  LIG1        0.0656
     35 H          -8.7342   -8.7658    0.0124 H       1  LIG1        0.0649
@<TRIPOS>BOND
     1     7     1    1
     2     8     2    1
     3     1     2   ar
     4     1     5   ar
     5     2     3   ar
     6     6     5    1
     7     5     4   ar
     8     3     4   ar
     9     3     9    1
    10     4    12    1
    11    17    15    1
    12    12    15   ar
    13    12    10   ar
    14    15    16   ar
    15    18    10    1
    16    10    11   ar
    17    16    19    1
    18    16    13   ar
    19    11    13   ar
    20    11    14    1
    21    13    20    1
    22    26    21    1
    23    20    21   ar
    24    20    24   ar
    25    21    22   ar
    26    25    24    1
    27    24    23   ar
    28    22    23   ar
    29    22    27    1
    30    23    28    1
    31    32    28   ar
    32    32    31   ar
    33    28    29   ar
    34    33    31    1
    35    31    30   ar
    36    29    30   ar
    37    29    34    1
    38    30    35    1
