@<TRIPOS>MOLECULE
mol_data/opt/b3lyp/geoms/mol2/13413.out
 28 30 0 0 0
SMALL
GASTEIGER

@<TRIPOS>ATOM
      1 C           1.3237   -0.1715   -0.0014 C.ar    1  LIG1        0.0022
      2 C           0.8702    1.1313   -0.0013 C.ar    1  LIG1       -0.0438
      3 C          -0.5466    1.0841    0.0002 C.ar    1  LIG1       -0.0364
      4 C          -0.9386   -0.2507    0.0003 C.ar    1  LIG1        0.0465
      5 N           0.2272   -0.9953   -0.0007 N.ar    1  LIG1       -0.3607
      6 H           0.2696   -2.0005   -0.0011 H       1  LIG1        0.1653
      7 H           2.3252   -0.5751   -0.0022 H       1  LIG1        0.0807
      8 H           1.4885    2.0177   -0.0019 H       1  LIG1        0.0633
      9 H          -1.2118    1.9354    0.0009 H       1  LIG1        0.0639
     10 C          -3.4246   -0.0537    0.0024 C.ar    1  LIG1       -0.0520
     11 C          -4.6946   -0.6064    0.0034 C.ar    1  LIG1       -0.0520
     12 C          -2.2666   -0.8577    0.0014 C.ar    1  LIG1       -0.0017
     13 C          -4.8953   -2.0019    0.0036 C.ar    1  LIG1       -0.0017
     14 H          -5.5537    0.0563    0.0042 H       1  LIG1        0.0624
     15 C          -2.4660   -2.2498    0.0016 C.ar    1  LIG1       -0.0520
     16 C          -3.7407   -2.8046    0.0026 C.ar    1  LIG1       -0.0520
     17 H          -1.6185   -2.9302    0.0009 H       1  LIG1        0.0624
     18 H          -3.3241    1.0267    0.0023 H       1  LIG1        0.0624
     19 H          -3.8203   -3.8884    0.0026 H       1  LIG1        0.0624
     20 C          -6.2445   -2.5601    0.0047 C.ar    1  LIG1        0.0465
     21 C          -7.4885   -1.9372    0.0049 C.ar    1  LIG1       -0.0364
     22 C          -8.4886   -2.9420    0.0064 C.ar    1  LIG1       -0.0438
     23 C          -7.8441   -4.1617    0.0064 C.ar    1  LIG1        0.0022
     24 N          -6.4941   -3.9207    0.0057 N.ar    1  LIG1       -0.3607
     25 H          -5.7872   -4.6366    0.0056 H       1  LIG1        0.1653
     26 H          -8.2312   -5.1697    0.0071 H       1  LIG1        0.0807
     27 H          -7.6583   -0.8703    0.0043 H       1  LIG1        0.0639
     28 H          -9.5586   -2.7904    0.0071 H       1  LIG1        0.0633
@<TRIPOS>BOND
     1     7     1    1
     2     8     2    1
     3     1     2   ar
     4     1     5   ar
     5     2     3   ar
     6     6     5    1
     7     5     4   ar
     8     3     4   ar
     9     3     9    1
    10     4    12    1
    11    17    15    1
    12    12    15   ar
    13    12    10   ar
    14    15    16   ar
    15    18    10    1
    16    10    11   ar
    17    19    16    1
    18    16    13   ar
    19    11    13   ar
    20    11    14    1
    21    13    20    1
    22    27    21    1
    23    20    21   ar
    24    20    24   ar
    25    21    22   ar
    26    25    24    1
    27    24    23   ar
    28    23    22   ar
    29    23    26    1
    30    22    28    1
