@<TRIPOS>MOLECULE
mol_data/opt/b3lyp/geoms/mol2/1344.out
 30 32 0 0 0
SMALL
GASTEIGER

@<TRIPOS>ATOM
      1 C           1.3555   -0.1607   -0.0020 C.ar    1  LIG1        0.0022
      2 C           0.9055    1.1441   -0.0017 C.ar    1  LIG1       -0.0438
      3 C          -0.5108    1.1003   -0.0000 C.ar    1  LIG1       -0.0364
      4 C          -0.9059   -0.2338    0.0002 C.ar    1  LIG1        0.0465
      5 N           0.2580   -0.9814   -0.0011 N.ar    1  LIG1       -0.3607
      6 H           0.2976   -1.9868   -0.0015 H       1  LIG1        0.1653
      7 H           2.3561   -0.5663   -0.0030 H       1  LIG1        0.0807
      8 H           1.5263    2.0286   -0.0024 H       1  LIG1        0.0633
      9 H          -1.1742    1.9530    0.0009 H       1  LIG1        0.0639
     10 C          -3.3902   -0.0338    0.0028 C.ar    1  LIG1       -0.0521
     11 C          -4.6617   -0.5881    0.0041 C.ar    1  LIG1       -0.0534
     12 C          -2.2346   -0.8372    0.0015 C.ar    1  LIG1       -0.0017
     13 C          -4.8731   -1.9812    0.0042 C.ar    1  LIG1       -0.0178
     14 H          -5.5048    0.0928    0.0050 H       1  LIG1        0.0624
     15 C          -2.4390   -2.2287    0.0017 C.ar    1  LIG1       -0.0521
     16 C          -3.7147   -2.7792    0.0030 C.ar    1  LIG1       -0.0534
     17 H          -1.5941   -2.9123    0.0008 H       1  LIG1        0.0624
     18 H          -3.2909    1.0467    0.0028 H       1  LIG1        0.0624
     19 H          -3.7941   -3.8599    0.0029 H       1  LIG1        0.0624
     20 C          -7.3942   -1.7652    0.0061 C.ar    1  LIG1       -0.0540
     21 C          -8.6730   -2.3170    0.0074 C.ar    1  LIG1       -0.0612
     22 C          -6.2404   -2.5730    0.0056 C.ar    1  LIG1       -0.0179
     23 C          -8.8474   -3.7007    0.0082 C.ar    1  LIG1       -0.0617
     24 H          -9.5370   -1.6584    0.0078 H       1  LIG1        0.0618
     25 C          -6.4419   -3.9671    0.0064 C.ar    1  LIG1       -0.0540
     26 C          -7.7195   -4.5213    0.0076 C.ar    1  LIG1       -0.0612
     27 H          -5.5940   -4.6421    0.0061 H       1  LIG1        0.0624
     28 H          -9.8439   -4.1318    0.0092 H       1  LIG1        0.0618
     29 H          -7.3053   -0.6849    0.0055 H       1  LIG1        0.0624
     30 H          -7.8313   -5.6018    0.0082 H       1  LIG1        0.0618
@<TRIPOS>BOND
     1     7     1    1
     2     8     2    1
     3     1     2   ar
     4     1     5   ar
     5     2     3   ar
     6     6     5    1
     7     5     4   ar
     8     3     4   ar
     9     3     9    1
    10     4    12    1
    11    17    15    1
    12    12    15   ar
    13    12    10   ar
    14    15    16   ar
    15    18    10    1
    16    10    11   ar
    17    19    16    1
    18    16    13   ar
    19    11    13   ar
    20    11    14    1
    21    13    22    1
    22    29    20    1
    23    22    20   ar
    24    22    25   ar
    25    27    25    1
    26    20    21   ar
    27    25    26   ar
    28    21    24    1
    29    21    23   ar
    30    26    23   ar
    31    26    30    1
    32    23    28    1
