@<TRIPOS>MOLECULE
mol_data/opt/b3lyp/geoms/mol2/13454-.out
 37 40 0 0 0
SMALL
GASTEIGER

@<TRIPOS>ATOM
      1 C           1.4281   -0.1081   -0.0015 C.ar    1  LIG1        0.0022
      2 C           0.9830    1.1983   -0.0011 C.ar    1  LIG1       -0.0438
      3 C          -0.4331    1.1600    0.0002 C.ar    1  LIG1       -0.0364
      4 C          -0.8335   -0.1732    0.0003 C.ar    1  LIG1        0.0465
      5 N           0.3276   -0.9251   -0.0007 N.ar    1  LIG1       -0.3607
      6 H           0.3646   -1.9306   -0.0011 H       1  LIG1        0.1653
      7 H           2.4270   -0.5176   -0.0023 H       1  LIG1        0.0807
      8 H           1.6071    2.0802   -0.0015 H       1  LIG1        0.0633
      9 H          -1.0930    2.0154    0.0009 H       1  LIG1        0.0639
     10 C          -3.3153    0.0463    0.0022 C.ar    1  LIG1       -0.0520
     11 C          -4.5902   -0.4950    0.0031 C.ar    1  LIG1       -0.0529
     12 C          -2.1650   -0.7690    0.0013 C.ar    1  LIG1       -0.0017
     13 C          -4.8000   -1.8897    0.0032 C.ar    1  LIG1       -0.0113
     14 H          -5.4403    0.1791    0.0039 H       1  LIG1        0.0624
     15 C          -2.3752   -2.1605    0.0015 C.ar    1  LIG1       -0.0520
     16 C          -3.6531   -2.7039    0.0024 C.ar    1  LIG1       -0.0529
     17 H          -1.5336   -2.8476    0.0009 H       1  LIG1        0.0624
     18 H          -3.2044    1.1255    0.0021 H       1  LIG1        0.0624
     19 H          -3.7575   -3.7849    0.0024 H       1  LIG1        0.0624
     20 C          -6.1519   -2.4486    0.0042 C.ar    1  LIG1        0.0199
     21 C          -7.3635   -1.7893    0.0041 C.ar    1  LIG1       -0.0463
     22 C          -8.4891   -2.6483    0.0052 C.ar    1  LIG1       -0.0463
     23 C          -8.1748   -3.9905    0.0062 C.ar    1  LIG1        0.0199
     24 S          -6.4295   -4.1824    0.0058 S.2     1  LIG1       -0.0883
     25 H          -7.4513   -0.7095    0.0031 H       1  LIG1        0.0629
     26 H          -9.5071   -2.2775    0.0053 H       1  LIG1        0.0629
     27 C          -8.5834   -6.4680    0.0079 C.ar    1  LIG1       -0.0535
     28 C          -9.4486   -7.5589    0.0091 C.ar    1  LIG1       -0.0612
     29 C          -9.0744   -5.1487    0.0075 C.ar    1  LIG1       -0.0113
     30 C         -10.8302   -7.3644    0.0100 C.ar    1  LIG1       -0.0617
     31 H          -9.0395   -8.5650    0.0094 H       1  LIG1        0.0618
     32 C         -10.4723   -4.9705    0.0084 C.ar    1  LIG1       -0.0535
     33 C         -11.3348   -6.0621    0.0096 C.ar    1  LIG1       -0.0612
     34 H         -10.8894   -3.9691    0.0081 H       1  LIG1        0.0624
     35 H         -11.5051   -8.2149    0.0109 H       1  LIG1        0.0618
     36 H          -7.5118   -6.6448    0.0072 H       1  LIG1        0.0624
     37 H         -12.4080   -5.8941    0.0102 H       1  LIG1        0.0618
@<TRIPOS>BOND
     1     7     1    1
     2     8     2    1
     3     1     2   ar
     4     1     5   ar
     5     6     5    1
     6     2     3   ar
     7     5     4   ar
     8     3     4   ar
     9     3     9    1
    10     4    12    1
    11    17    15    1
    12    12    15   ar
    13    12    10   ar
    14    15    16   ar
    15    18    10    1
    16    10    11   ar
    17    19    16    1
    18    16    13   ar
    19    25    21    1
    20    11    13   ar
    21    11    14    1
    22    13    20    1
    23    21    20   ar
    24    21    22   ar
    25    20    24   ar
    26    22    26    1
    27    22    23   ar
    28    24    23   ar
    29    23    29    1
    30    36    27    1
    31    29    27   ar
    32    29    32   ar
    33    27    28   ar
    34    34    32    1
    35    32    33   ar
    36    28    31    1
    37    28    30   ar
    38    33    30   ar
    39    33    37    1
    40    30    35    1
