@<TRIPOS>MOLECULE
mol_data/opt/b3lyp/geoms/mol2/1345-.out
 27 29 0 0 0
SMALL
GASTEIGER

@<TRIPOS>ATOM
      1 C           1.3211   -0.1720   -0.0019 C.ar    1  LIG1        0.0022
      2 C           0.8665    1.1310   -0.0007 C.ar    1  LIG1       -0.0438
      3 C          -0.5494    1.0825   -0.0000 C.ar    1  LIG1       -0.0364
      4 C          -0.9401   -0.2532    0.0003 C.ar    1  LIG1        0.0465
      5 N           0.2264   -0.9968   -0.0007 N.ar    1  LIG1       -0.3607
      6 H           0.2704   -2.0020   -0.0010 H       1  LIG1        0.1653
      7 H           2.3231   -0.5743   -0.0030 H       1  LIG1        0.0807
      8 H           1.4842    2.0176   -0.0008 H       1  LIG1        0.0633
      9 H          -1.2154    1.9330    0.0006 H       1  LIG1        0.0639
     10 C          -3.4236   -0.0554    0.0022 C.ar    1  LIG1       -0.0520
     11 C          -4.6940   -0.6106    0.0032 C.ar    1  LIG1       -0.0529
     12 C          -2.2675   -0.8596    0.0014 C.ar    1  LIG1       -0.0017
     13 C          -4.8919   -2.0047    0.0035 C.ar    1  LIG1       -0.0113
     14 H          -5.5512    0.0566    0.0039 H       1  LIG1        0.0624
     15 C          -2.4659   -2.2538    0.0017 C.ar    1  LIG1       -0.0520
     16 C          -3.7378   -2.8097    0.0027 C.ar    1  LIG1       -0.0529
     17 H          -1.6177   -2.9330    0.0011 H       1  LIG1        0.0624
     18 H          -3.3239    1.0249    0.0020 H       1  LIG1        0.0624
     19 H          -3.8326   -3.8904    0.0028 H       1  LIG1        0.0624
     20 C          -6.2299   -2.6032    0.0046 C.ar    1  LIG1        0.0193
     21 C          -6.5832   -3.9360    0.0059 C.ar    1  LIG1       -0.0469
     22 C          -7.9885   -4.1622    0.0067 C.ar    1  LIG1       -0.0541
     23 C          -8.7130   -3.0030    0.0062 C.ar    1  LIG1       -0.0237
     24 S          -7.6808   -1.6103    0.0045 S.2     1  LIG1       -0.0967
     25 H          -9.7866   -2.8781    0.0066 H       1  LIG1        0.0693
     26 H          -5.8581   -4.7411    0.0063 H       1  LIG1        0.0629
     27 H          -8.4392   -5.1481    0.0078 H       1  LIG1        0.0623
@<TRIPOS>BOND
     1     7     1    1
     2     1     2   ar
     3     1     5   ar
     4     6     5    1
     5     8     2    1
     6     2     3   ar
     7     5     4   ar
     8     3     4   ar
     9     3     9    1
    10     4    12    1
    11    17    15    1
    12    12    15   ar
    13    12    10   ar
    14    15    16   ar
    15    18    10    1
    16    10    11   ar
    17    16    19    1
    18    16    13   ar
    19    11    13   ar
    20    11    14    1
    21    13    20    1
    22    24    20   ar
    23    24    23   ar
    24    20    21   ar
    25    21    26    1
    26    21    22   ar
    27    23    25    1
    28    23    22   ar
    29    22    27    1
