@<TRIPOS>MOLECULE
mol_data/opt/b3lyp/geoms/mol2/1348-.out
 26 28 0 0 0
SMALL
GASTEIGER

@<TRIPOS>ATOM
      1 C           1.2874   -0.2060   -0.0011 C.ar    1  LIG1        0.0022
      2 C           0.8426    1.1022   -0.0012 C.ar    1  LIG1       -0.0438
      3 C          -0.5713    1.0639    0.0002 C.ar    1  LIG1       -0.0364
      4 C          -0.9720   -0.2705    0.0004 C.ar    1  LIG1        0.0465
      5 N           0.1900   -1.0227   -0.0005 N.ar    1  LIG1       -0.3607
      6 H           0.2282   -2.0283   -0.0007 H       1  LIG1        0.1653
      7 H           2.2872   -0.6140   -0.0017 H       1  LIG1        0.0807
      8 H           1.4673    1.9838   -0.0019 H       1  LIG1        0.0633
      9 H          -1.2311    1.9193    0.0007 H       1  LIG1        0.0639
     10 C          -3.4496   -0.0442    0.0022 C.ar    1  LIG1       -0.0520
     11 C          -4.7242   -0.5854    0.0031 C.ar    1  LIG1       -0.0503
     12 C          -2.3010   -0.8647    0.0014 C.ar    1  LIG1       -0.0017
     13 C          -4.9118   -1.9799    0.0034 C.ar    1  LIG1        0.0227
     14 H          -5.5927    0.0629    0.0037 H       1  LIG1        0.0625
     15 C          -2.5034   -2.2608    0.0017 C.ar    1  LIG1       -0.0520
     16 C          -3.7775   -2.8086    0.0027 C.ar    1  LIG1       -0.0503
     17 H          -1.6575   -2.9421    0.0012 H       1  LIG1        0.0624
     18 H          -3.3359    1.0343    0.0020 H       1  LIG1        0.0624
     19 H          -3.9100   -3.8842    0.0029 H       1  LIG1        0.0625
     20 C          -6.2613   -2.5572    0.0044 C.ar    1  LIG1        0.2033
     21 N          -6.3770   -3.9064    0.0048 N.ar    1  LIG1       -0.1258
     22 C          -8.6190   -3.5665    0.0061 C.ar    1  LIG1        0.1605
     23 N          -7.3173   -1.7095    0.0048 N.ar    1  LIG1       -0.1258
     24 N          -7.5894   -4.4230    0.0057 N.ar    1  LIG1       -0.1339
     25 N          -8.5278   -2.2304    0.0057 N.ar    1  LIG1       -0.1339
     26 H          -9.6164   -3.9934    0.0071 H       1  LIG1        0.1085
@<TRIPOS>BOND
     1     8     2    1
     2     7     1    1
     3     2     1   ar
     4     2     3   ar
     5     1     5   ar
     6     6     5    1
     7     5     4   ar
     8     3     4   ar
     9     3     9    1
    10     4    12    1
    11    17    15    1
    12    12    15   ar
    13    12    10   ar
    14    15    16   ar
    15    18    10    1
    16    10    11   ar
    17    16    19    1
    18    16    13   ar
    19    11    13   ar
    20    11    14    1
    21    13    20    1
    22    20    23   ar
    23    20    21   ar
    24    23    25   ar
    25    21    24   ar
    26    24    22   ar
    27    25    22   ar
    28    22    26    1
