@<TRIPOS>MOLECULE
mol_data/opt/b3lyp/geoms/mol2/1348-8.out
 32 35 0 0 0
SMALL
GASTEIGER

@<TRIPOS>ATOM
      1 C           1.3275   -0.1796   -0.0022 C.ar    1  LIG1        0.0022
      2 C           0.8787    1.1281   -0.0013 C.ar    1  LIG1       -0.0438
      3 C          -0.5340    1.0856   -0.0004 C.ar    1  LIG1       -0.0364
      4 C          -0.9310   -0.2510    0.0001 C.ar    1  LIG1        0.0465
      5 N           0.2337   -0.9997   -0.0009 N.ar    1  LIG1       -0.3607
      6 H           0.2761   -2.0053   -0.0010 H       1  LIG1        0.1653
      7 H           2.3287   -0.5839   -0.0032 H       1  LIG1        0.0807
      8 H           1.5010    2.0112   -0.0017 H       1  LIG1        0.0633
      9 H          -1.1962    1.9389    0.0002 H       1  LIG1        0.0639
     10 C          -3.4079   -0.0283    0.0022 C.ar    1  LIG1       -0.0520
     11 C          -4.6802   -0.5716    0.0034 C.ar    1  LIG1       -0.0503
     12 C          -2.2568   -0.8473    0.0014 C.ar    1  LIG1       -0.0017
     13 C          -4.8641   -1.9683    0.0039 C.ar    1  LIG1        0.0227
     14 H          -5.5505    0.0743    0.0040 H       1  LIG1        0.0625
     15 C          -2.4555   -2.2451    0.0019 C.ar    1  LIG1       -0.0520
     16 C          -3.7268   -2.7957    0.0031 C.ar    1  LIG1       -0.0503
     17 H          -1.6076   -2.9237    0.0014 H       1  LIG1        0.0624
     18 H          -3.2961    1.0503    0.0018 H       1  LIG1        0.0624
     19 H          -3.8573   -3.8715    0.0035 H       1  LIG1        0.0625
     20 C          -6.2065   -2.5467    0.0051 C.ar    1  LIG1        0.2034
     21 N          -6.3236   -3.8979    0.0057 N.ar    1  LIG1       -0.1251
     22 C          -8.5725   -3.5675    0.0073 C.ar    1  LIG1        0.2435
     23 N          -7.2696   -1.7046    0.0057 N.ar    1  LIG1       -0.1251
     24 N          -7.5281   -4.4164    0.0068 N.ar    1  LIG1       -0.1218
     25 N          -8.4733   -2.2255    0.0068 N.ar    1  LIG1       -0.1218
     26 C          -9.9385   -4.1572    0.0086 C.ar    1  LIG1        0.2434
     27 N         -10.9806   -3.3040    0.0090 N.ar    1  LIG1       -0.1224
     28 C         -12.2764   -5.1667    0.0105 C.ar    1  LIG1        0.1605
     29 N         -10.0321   -5.5008    0.0092 N.ar    1  LIG1       -0.1224
     30 N         -12.1921   -3.8302    0.0102 N.ar    1  LIG1       -0.1338
     31 N         -11.2459   -6.0217    0.0103 N.ar    1  LIG1       -0.1338
     32 H         -13.2727   -5.5968    0.0121 H       1  LIG1        0.1085
@<TRIPOS>BOND
     1     7     1    1
     2     1     2   ar
     3     1     5   ar
     4     8     2    1
     5     2     3   ar
     6     6     5    1
     7     5     4   ar
     8     3     4   ar
     9     3     9    1
    10     4    12    1
    11    17    15    1
    12    12    15   ar
    13    12    10   ar
    14    18    10    1
    15    15    16   ar
    16    10    11   ar
    17    16    19    1
    18    16    13   ar
    19    11    13   ar
    20    11    14    1
    21    13    20    1
    22    20    23   ar
    23    20    21   ar
    24    23    25   ar
    25    21    24   ar
    26    24    22   ar
    27    25    22   ar
    28    22    26    1
    29    26    27   ar
    30    26    29   ar
    31    27    30   ar
    32    29    31   ar
    33    30    28   ar
    34    31    28   ar
    35    28    32    1
