@<TRIPOS>MOLECULE
mol_data/opt/b3lyp/geoms/mol2/135-4.out
 27 29 0 0 0
SMALL
GASTEIGER

@<TRIPOS>ATOM
      1 C           1.3430   -0.2529   -0.0012 C.ar    1  LIG1        0.0022
      2 C           0.9073    1.0566   -0.0002 C.ar    1  LIG1       -0.0438
      3 C          -0.5096    1.0312   -0.0000 C.ar    1  LIG1       -0.0359
      4 C          -0.9157   -0.2992    0.0001 C.ar    1  LIG1        0.0531
      5 N           0.2368   -1.0638   -0.0004 N.ar    1  LIG1       -0.3603
      6 H           0.2591   -2.0701   -0.0008 H       1  LIG1        0.1653
      7 H           2.3392   -0.6692   -0.0019 H       1  LIG1        0.0807
      8 H           1.5385    1.9335   -0.0000 H       1  LIG1        0.0633
      9 H          -1.1704    1.8865    0.0004 H       1  LIG1        0.0639
     10 C          -2.2312   -0.8974    0.0007 C.ar    1  LIG1        0.0360
     11 C          -2.5878   -2.2304    0.0013 C.ar    1  LIG1       -0.0449
     12 C          -3.9891   -2.4461    0.0017 C.ar    1  LIG1       -0.0463
     13 C          -4.7393   -1.2908    0.0014 C.ar    1  LIG1        0.0200
     14 S          -3.6669    0.1052    0.0005 S.2     1  LIG1       -0.0868
     15 H          -1.8703   -3.0441    0.0016 H       1  LIG1        0.0630
     16 H          -4.4267   -3.4372    0.0023 H       1  LIG1        0.0629
     17 C          -6.8052    0.1344    0.0027 C.ar    1  LIG1       -0.0535
     18 C          -8.1911    0.2697    0.0029 C.ar    1  LIG1       -0.0612
     19 C          -6.1969   -1.1352    0.0017 C.ar    1  LIG1       -0.0113
     20 C          -9.0114   -0.8589    0.0023 C.ar    1  LIG1       -0.0617
     21 H          -8.6303    1.2631    0.0037 H       1  LIG1        0.0618
     22 C          -7.0404   -2.2643    0.0011 C.ar    1  LIG1       -0.0535
     23 C          -8.4248   -2.1264    0.0014 C.ar    1  LIG1       -0.0612
     24 H          -6.6097   -3.2601    0.0002 H       1  LIG1        0.0624
     25 H         -10.0919   -0.7534    0.0026 H       1  LIG1        0.0618
     26 H          -6.1892    1.0290    0.0032 H       1  LIG1        0.0624
     27 H          -9.0492   -3.0152    0.0009 H       1  LIG1        0.0618
@<TRIPOS>BOND
     1     7     1    1
     2     1     5   ar
     3     1     2   ar
     4     6     5    1
     5     5     4   ar
     6     2     3   ar
     7     2     8    1
     8     3     4   ar
     9     3     9    1
    10     4    10    1
    11    24    22    1
    12    14    10   ar
    13    14    13   ar
    14    10    11   ar
    15    27    23    1
    16    22    23   ar
    17    22    19   ar
    18    11    15    1
    19    11    12   ar
    20    13    12   ar
    21    13    19    1
    22    23    20   ar
    23    12    16    1
    24    19    17   ar
    25    20    25    1
    26    20    18   ar
    27    17    18   ar
    28    17    26    1
    29    18    21    1
