@<TRIPOS>MOLECULE
mol_data/opt/b3lyp/geoms/mol2/135-8-.out
 23 25 0 0 0
SMALL
GASTEIGER

@<TRIPOS>ATOM
      1 C           1.2687   -0.2742   -0.0000 C.ar    1  LIG1        0.0022
      2 C           0.8407    1.0402   -0.0002 C.ar    1  LIG1       -0.0438
      3 C          -0.5732    1.0229    0.0004 C.ar    1  LIG1       -0.0359
      4 C          -0.9875   -0.3070    0.0002 C.ar    1  LIG1        0.0531
      5 N           0.1616   -1.0786   -0.0001 N.ar    1  LIG1       -0.3603
      6 H           0.1809   -2.0852   -0.0005 H       1  LIG1        0.1653
      7 H           2.2633   -0.6944   -0.0001 H       1  LIG1        0.0807
      8 H           1.4776    1.9128   -0.0005 H       1  LIG1        0.0633
      9 H          -1.2293    1.8821    0.0008 H       1  LIG1        0.0639
     10 C          -2.3051   -0.8916    0.0004 C.ar    1  LIG1        0.0361
     11 C          -2.6580   -2.2345    0.0007 C.ar    1  LIG1       -0.0448
     12 C          -4.0514   -2.4481    0.0008 C.ar    1  LIG1       -0.0432
     13 C          -4.7798   -1.2757    0.0006 C.ar    1  LIG1        0.0604
     14 S          -3.7279    0.1250    0.0004 S.2     1  LIG1       -0.0836
     15 H          -1.9380   -3.0454    0.0009 H       1  LIG1        0.0630
     16 H          -4.5283   -3.4204    0.0010 H       1  LIG1        0.0630
     17 C          -6.2145   -1.1253    0.0007 C.ar    1  LIG1        0.2098
     18 N          -6.9709   -2.2527    0.0008 N.ar    1  LIG1       -0.1253
     19 C          -8.7578   -0.8501    0.0007 C.ar    1  LIG1        0.1605
     20 N          -6.7156    0.1343    0.0006 N.ar    1  LIG1       -0.1253
     21 N          -8.2783   -2.1033    0.0009 N.ar    1  LIG1       -0.1339
     22 N          -8.0255    0.2710    0.0006 N.ar    1  LIG1       -0.1339
     23 H          -9.8364   -0.7356    0.0009 H       1  LIG1        0.1085
@<TRIPOS>BOND
     1     6     5    1
     2     8     2    1
     3     2     1   ar
     4     2     3   ar
     5     7     1    1
     6     5     1   ar
     7     5     4   ar
     8     4     3   ar
     9     4    10    1
    10    14    10   ar
    11    14    13   ar
    12     3     9    1
    13    10    11   ar
    14    20    22   ar
    15    20    17   ar
    16    22    19   ar
    17    13    17    1
    18    13    12   ar
    19    17    18   ar
    20    19    21   ar
    21    19    23    1
    22    11    12   ar
    23    11    15    1
    24    12    16    1
    25    18    21   ar
