@<TRIPOS>MOLECULE
mol_data/opt/b3lyp/geoms/mol2/135-13-.out
 25 27 0 0 0
SMALL
GASTEIGER

@<TRIPOS>ATOM
      1 C           1.3213   -0.2728   -0.0003 C.ar    1  LIG1        0.0022
      2 C           0.8923    1.0384    0.0003 C.ar    1  LIG1       -0.0438
      3 C          -0.5255    1.0205    0.0002 C.ar    1  LIG1       -0.0359
      4 C          -0.9386   -0.3076    0.0002 C.ar    1  LIG1        0.0531
      5 N           0.2098   -1.0781    0.0000 N.ar    1  LIG1       -0.3603
      6 H           0.2264   -2.0844   -0.0003 H       1  LIG1        0.1653
      7 H           2.3150   -0.6947   -0.0006 H       1  LIG1        0.0807
      8 H           1.5280    1.9121    0.0005 H       1  LIG1        0.0633
      9 H          -1.1814    1.8797    0.0004 H       1  LIG1        0.0639
     10 C          -2.2568   -0.8996    0.0004 C.ar    1  LIG1        0.0361
     11 C          -2.6297   -2.2268    0.0009 C.ar    1  LIG1       -0.0449
     12 C          -4.0330   -2.4361    0.0009 C.ar    1  LIG1       -0.0449
     13 C          -4.7696   -1.2720    0.0004 C.ar    1  LIG1        0.0361
     14 S          -3.6894    0.1174   -0.0001 S.2     1  LIG1       -0.0853
     15 H          -1.9177   -3.0456    0.0013 H       1  LIG1        0.0630
     16 H          -4.4899   -3.4186    0.0013 H       1  LIG1        0.0630
     17 C          -6.2070   -1.1172    0.0004 C.ar    1  LIG1        0.0531
     18 C          -7.2163   -2.0757    0.0003 C.ar    1  LIG1       -0.0359
     19 C          -8.4614   -1.3989    0.0005 C.ar    1  LIG1       -0.0438
     20 C          -8.1967   -0.0444   -0.0000 C.ar    1  LIG1        0.0022
     21 N          -6.8337    0.1153    0.0002 N.ar    1  LIG1       -0.3603
     22 H          -6.3592    1.0042    0.0004 H       1  LIG1        0.1653
     23 H          -8.8579    0.8088   -0.0002 H       1  LIG1        0.0807
     24 H          -7.0625   -3.1451    0.0003 H       1  LIG1        0.0639
     25 H          -9.4427   -1.8515    0.0007 H       1  LIG1        0.0633
@<TRIPOS>BOND
     1     7     1    1
     2     1     5   ar
     3     1     2   ar
     4     6     5    1
     5    23    20    1
     6    14    10   ar
     7    14    13   ar
     8    20    21   ar
     9    20    19   ar
    10     5     4   ar
    11     3     4   ar
    12     3     2   ar
    13     3     9    1
    14    21    17   ar
    15    21    22    1
    16     4    10    1
    17     2     8    1
    18    18    24    1
    19    18    17   ar
    20    18    19   ar
    21    17    13    1
    22    10    11   ar
    23    13    12   ar
    24    19    25    1
    25    12    11   ar
    26    12    16    1
    27    11    15    1
