@<TRIPOS>MOLECULE
mol_data/opt/b3lyp/geoms/mol2/135-5-13.out
 32 35 0 0 0
SMALL
GASTEIGER

@<TRIPOS>ATOM
      1 C           1.4089   -0.2875   -0.0004 C.ar    1  LIG1        0.0022
      2 C           0.9728    1.0219   -0.0004 C.ar    1  LIG1       -0.0438
      3 C          -0.4441    0.9966   -0.0000 C.ar    1  LIG1       -0.0359
      4 C          -0.8502   -0.3341    0.0001 C.ar    1  LIG1        0.0531
      5 N           0.3026   -1.0987   -0.0001 N.ar    1  LIG1       -0.3603
      6 H           0.3250   -2.1049   -0.0004 H       1  LIG1        0.1653
      7 H           2.4050   -0.7037   -0.0007 H       1  LIG1        0.0807
      8 H           1.6038    1.8989   -0.0006 H       1  LIG1        0.0633
      9 H          -1.1049    1.8521    0.0001 H       1  LIG1        0.0639
     10 C          -2.1651   -0.9311    0.0005 C.ar    1  LIG1        0.0361
     11 C          -2.5256   -2.2643    0.0011 C.ar    1  LIG1       -0.0449
     12 C          -3.9246   -2.4813    0.0013 C.ar    1  LIG1       -0.0458
     13 C          -4.6707   -1.3191    0.0009 C.ar    1  LIG1        0.0265
     14 S          -3.6002    0.0762    0.0001 S.2     1  LIG1       -0.0863
     15 H          -1.8081   -3.0781    0.0015 H       1  LIG1        0.0630
     16 H          -4.3726   -3.4680    0.0019 H       1  LIG1        0.0629
     17 C          -6.1099   -1.1847    0.0010 C.ar    1  LIG1        0.0265
     18 C          -7.0583   -2.1886    0.0009 C.ar    1  LIG1       -0.0458
     19 C          -8.3929   -1.7164    0.0011 C.ar    1  LIG1       -0.0449
     20 C          -8.5003   -0.3395    0.0012 C.ar    1  LIG1        0.0361
     21 S          -6.9035    0.3847    0.0012 S.2     1  LIG1       -0.0863
     22 H          -6.8007   -3.2413    0.0007 H       1  LIG1        0.0629
     23 H          -9.2487   -2.3832    0.0011 H       1  LIG1        0.0630
     24 C          -9.6819    0.4906    0.0014 C.ar    1  LIG1        0.0531
     25 C          -9.8347    1.8735    0.0020 C.ar    1  LIG1       -0.0359
     26 C         -11.2223    2.1607    0.0019 C.ar    1  LIG1       -0.0438
     27 C         -11.8933    0.9547    0.0012 C.ar    1  LIG1        0.0022
     28 N         -10.9563   -0.0473    0.0010 N.ar    1  LIG1       -0.3603
     29 H         -11.1647   -1.0320    0.0002 H       1  LIG1        0.1653
     30 H         -12.9493    0.7301    0.0009 H       1  LIG1        0.0807
     31 H          -9.0268    2.5919    0.0025 H       1  LIG1        0.0639
     32 H         -11.6801    3.1394    0.0023 H       1  LIG1        0.0633
@<TRIPOS>BOND
     1     7     1    1
     2     8     2    1
     3     1     2   ar
     4     1     5   ar
     5     2     3   ar
     6     6     5    1
     7     5     4   ar
     8     3     4   ar
     9     3     9    1
    10     4    10    1
    11    14    10   ar
    12    14    13   ar
    13    29    28    1
    14    10    11   ar
    15    22    18    1
    16    30    27    1
    17    13    17    1
    18    13    12   ar
    19    18    17   ar
    20    18    19   ar
    21    28    27   ar
    22    28    24   ar
    23    17    21   ar
    24    19    23    1
    25    19    20   ar
    26    11    12   ar
    27    11    15    1
    28    27    26   ar
    29    21    20   ar
    30    20    24    1
    31    12    16    1
    32    24    25   ar
    33    26    25   ar
    34    26    32    1
    35    25    31    1
