@<TRIPOS>MOLECULE
mol_data/opt/b3lyp/geoms/mol2/135-12-.out
 24 26 0 0 0
SMALL
GASTEIGER

@<TRIPOS>ATOM
      1 C           1.2950   -0.2812   -0.0005 C.ar    1  LIG1        0.0022
      2 C           0.8704    1.0319    0.0002 C.ar    1  LIG1       -0.0438
      3 C          -0.5468    1.0188    0.0002 C.ar    1  LIG1       -0.0359
      4 C          -0.9644   -0.3081    0.0002 C.ar    1  LIG1        0.0531
      5 N           0.1816   -1.0826   -0.0001 N.ar    1  LIG1       -0.3603
      6 H           0.1953   -2.0890   -0.0005 H       1  LIG1        0.1653
      7 H           2.2874   -0.7060   -0.0009 H       1  LIG1        0.0807
      8 H           1.5090    1.9034    0.0004 H       1  LIG1        0.0633
      9 H          -1.2000    1.8800    0.0005 H       1  LIG1        0.0639
     10 C          -2.2856   -0.8937    0.0005 C.ar    1  LIG1        0.0361
     11 C          -2.6524   -2.2253    0.0009 C.ar    1  LIG1       -0.0448
     12 C          -4.0543   -2.4319    0.0010 C.ar    1  LIG1       -0.0433
     13 C          -4.7812   -1.2611    0.0007 C.ar    1  LIG1        0.0550
     14 S          -3.7104    0.1284    0.0001 S.2     1  LIG1       -0.0837
     15 H          -1.9406   -3.0440    0.0012 H       1  LIG1        0.0630
     16 H          -4.5156   -3.4128    0.0014 H       1  LIG1        0.0630
     17 C          -6.2121   -1.0944    0.0007 C.ar    1  LIG1        0.1413
     18 C          -7.2683   -1.9734    0.0007 C.ar    1  LIG1       -0.0154
     19 C          -8.4574   -1.1814    0.0007 C.ar    1  LIG1       -0.0233
     20 C          -8.0529    0.1188    0.0008 C.ar    1  LIG1        0.0926
     21 O          -6.6903    0.1906    0.0007 O.2     1  LIG1       -0.4624
     22 H          -8.5728    1.0635    0.0008 H       1  LIG1        0.1029
     23 H          -7.2018   -3.0513    0.0006 H       1  LIG1        0.0655
     24 H          -9.4779   -1.5360    0.0007 H       1  LIG1        0.0649
@<TRIPOS>BOND
     1     7     1    1
     2     1     5   ar
     3     1     2   ar
     4     6     5    1
     5     5     4   ar
     6    14    10   ar
     7    14    13   ar
     8     2     3   ar
     9     2     8    1
    10     4     3   ar
    11     4    10    1
    12     3     9    1
    13    10    11   ar
    14    23    18    1
    15    18    17   ar
    16    18    19   ar
    17    13    17    1
    18    13    12   ar
    19    17    21   ar
    20    19    24    1
    21    19    20   ar
    22    21    20   ar
    23    20    22    1
    24    11    12   ar
    25    11    15    1
    26    12    16    1
