@<TRIPOS>MOLECULE
mol_data/opt/b3lyp/geoms/mol2/135-5-.out
 24 26 0 0 0
SMALL
GASTEIGER

@<TRIPOS>ATOM
      1 C           1.3121   -0.2609   -0.0007 C.ar    1  LIG1        0.0022
      2 C           0.8763    1.0486    0.0001 C.ar    1  LIG1       -0.0438
      3 C          -0.5405    1.0234    0.0000 C.ar    1  LIG1       -0.0359
      4 C          -0.9466   -0.3073    0.0002 C.ar    1  LIG1        0.0531
      5 N           0.2060   -1.0720   -0.0001 N.ar    1  LIG1       -0.3603
      6 H           0.2286   -2.0783   -0.0004 H       1  LIG1        0.1653
      7 H           2.3083   -0.6771   -0.0012 H       1  LIG1        0.0807
      8 H           1.5074    1.9255    0.0003 H       1  LIG1        0.0633
      9 H          -1.2009    1.8791    0.0003 H       1  LIG1        0.0639
     10 C          -2.2617   -0.9048    0.0005 C.ar    1  LIG1        0.0361
     11 C          -2.6207   -2.2380    0.0011 C.ar    1  LIG1       -0.0449
     12 C          -4.0205   -2.4548    0.0013 C.ar    1  LIG1       -0.0458
     13 C          -4.7657   -1.2940    0.0009 C.ar    1  LIG1        0.0265
     14 S          -3.6966    0.1016    0.0001 S.2     1  LIG1       -0.0863
     15 H          -1.9031   -3.0516    0.0015 H       1  LIG1        0.0630
     16 H          -4.4685   -3.4415    0.0019 H       1  LIG1        0.0629
     17 C          -6.2090   -1.1614    0.0010 C.ar    1  LIG1        0.0259
     18 C          -7.1522   -2.1701    0.0008 C.ar    1  LIG1       -0.0464
     19 C          -8.4930   -1.6965    0.0010 C.ar    1  LIG1       -0.0541
     20 C          -8.5787   -0.3314    0.0013 C.ar    1  LIG1       -0.0237
     21 S          -7.0069    0.4030    0.0014 S.2     1  LIG1       -0.0961
     22 H          -9.4625    0.2905    0.0015 H       1  LIG1        0.0693
     23 H          -6.8893   -3.2213    0.0005 H       1  LIG1        0.0629
     24 H          -9.3599   -2.3474    0.0009 H       1  LIG1        0.0623
@<TRIPOS>BOND
     1     7     1    1
     2     1     5   ar
     3     1     2   ar
     4     6     5    1
     5     5     4   ar
     6     3     2   ar
     7     3     4   ar
     8     3     9    1
     9     2     8    1
    10    14    10   ar
    11    14    13   ar
    12     4    10    1
    13    10    11   ar
    14    23    18    1
    15    18    17   ar
    16    18    19   ar
    17    13    17    1
    18    13    12   ar
    19    24    19    1
    20    17    21   ar
    21    19    20   ar
    22    11    12   ar
    23    11    15    1
    24    12    16    1
    25    20    21   ar
    26    20    22    1
