@<TRIPOS>MOLECULE
mol_data/opt/b3lyp/geoms/mol2/135-.out
 17 18 0 0 0
SMALL
GASTEIGER

@<TRIPOS>ATOM
      1 C           1.2171   -0.2674   -0.0003 C.ar    1  LIG1        0.0022
      2 C           0.7829    1.0422    0.0001 C.ar    1  LIG1       -0.0438
      3 C          -0.6348    1.0178    0.0002 C.ar    1  LIG1       -0.0359
      4 C          -1.0418   -0.3112    0.0002 C.ar    1  LIG1        0.0531
      5 N           0.1089   -1.0769   -0.0000 N.ar    1  LIG1       -0.3603
      6 H           0.1290   -2.0832   -0.0004 H       1  LIG1        0.1653
      7 H           2.2127   -0.6855   -0.0005 H       1  LIG1        0.0807
      8 H           1.4152    1.9192    0.0003 H       1  LIG1        0.0633
      9 H          -1.2948    1.8739    0.0004 H       1  LIG1        0.0639
     10 C          -2.3605   -0.9100    0.0004 C.ar    1  LIG1        0.0354
     11 C          -2.7172   -2.2421    0.0008 C.ar    1  LIG1       -0.0455
     12 C          -4.1262   -2.4568    0.0009 C.ar    1  LIG1       -0.0541
     13 C          -4.8417   -1.2935    0.0005 C.ar    1  LIG1       -0.0237
     14 S          -3.7969    0.0957    0.0000 S.2     1  LIG1       -0.0952
     15 H          -5.9144   -1.1596    0.0006 H       1  LIG1        0.0693
     16 H          -1.9982   -3.0545    0.0011 H       1  LIG1        0.0629
     17 H          -4.5851   -3.4393    0.0012 H       1  LIG1        0.0623
@<TRIPOS>BOND
     1     7     1    1
     2     6     5    1
     3     1     5   ar
     4     1     2   ar
     5     5     4   ar
     6    14    10   ar
     7    14    13   ar
     8     2     3   ar
     9     2     8    1
    10     3     4   ar
    11     3     9    1
    12     4    10    1
    13    10    11   ar
    14    13    15    1
    15    13    12   ar
    16    11    12   ar
    17    11    16    1
    18    12    17    1
