@<TRIPOS>MOLECULE
mol_data/opt/b3lyp/geoms/mol2/135-13-12-.out
 32 35 0 0 0
SMALL
GASTEIGER

@<TRIPOS>ATOM
      1 C           1.3798   -0.3145    0.0001 C.ar    1  LIG1        0.0022
      2 C           0.9565    0.9987   -0.0000 C.ar    1  LIG1       -0.0438
      3 C          -0.4611    0.9870    0.0001 C.ar    1  LIG1       -0.0359
      4 C          -0.8800   -0.3395    0.0003 C.ar    1  LIG1        0.0531
      5 N           0.2651   -1.1150    0.0003 N.ar    1  LIG1       -0.3603
      6 H           0.2773   -2.1215    0.0001 H       1  LIG1        0.1653
      7 H           2.3717   -0.7406    0.0001 H       1  LIG1        0.0807
      8 H           1.5959    1.8695   -0.0001 H       1  LIG1        0.0633
      9 H          -1.1133    1.8491    0.0001 H       1  LIG1        0.0639
     10 C          -2.2005   -0.9250    0.0004 C.ar    1  LIG1        0.0361
     11 C          -2.5787   -2.2519    0.0010 C.ar    1  LIG1       -0.0449
     12 C          -3.9814   -2.4553    0.0010 C.ar    1  LIG1       -0.0449
     13 C          -4.7135   -1.2865    0.0004 C.ar    1  LIG1        0.0361
     14 S          -3.6280    0.0985   -0.0003 S.2     1  LIG1       -0.0853
     15 H          -1.8701   -3.0734    0.0016 H       1  LIG1        0.0630
     16 H          -4.4422   -3.4360    0.0014 H       1  LIG1        0.0630
     17 C          -6.1470   -1.1276    0.0002 C.ar    1  LIG1        0.0537
     18 C          -7.1594   -2.0890    0.0003 C.ar    1  LIG1       -0.0352
     19 C          -8.3996   -1.4193   -0.0000 C.ar    1  LIG1       -0.0328
     20 C          -8.1403   -0.0514   -0.0002 C.ar    1  LIG1        0.0825
     21 N          -6.7717    0.1020   -0.0002 N.ar    1  LIG1       -0.3514
     22 H          -6.3159    1.0016   -0.0001 H       1  LIG1        0.1660
     23 H          -7.0057   -3.1584    0.0005 H       1  LIG1        0.0639
     24 H          -9.3802   -1.8729   -0.0000 H       1  LIG1        0.0640
     25 C          -9.0191    1.0873   -0.0005 C.ar    1  LIG1        0.1509
     26 C         -10.3821    1.2445   -0.0005 C.ar    1  LIG1       -0.0144
     27 C         -10.6287    2.6535   -0.0009 C.ar    1  LIG1       -0.0233
     28 C          -9.4111    3.2602   -0.0011 C.ar    1  LIG1        0.0926
     29 O          -8.4152    2.3217   -0.0009 O.2     1  LIG1       -0.4615
     30 H          -9.0873    4.2887   -0.0014 H       1  LIG1        0.1029
     31 H         -11.1155    0.4518   -0.0003 H       1  LIG1        0.0656
     32 H         -11.5898    3.1470   -0.0010 H       1  LIG1        0.0649
@<TRIPOS>BOND
     1    30    28    1
     2    28    27   ar
     3    28    29   ar
     4    32    27    1
     5    27    26   ar
     6    29    25   ar
     7    25    26   ar
     8    25    20    1
     9    26    31    1
    10    14    13   ar
    11    14    10   ar
    12    20    21   ar
    13    20    19   ar
    14    21    22    1
    15    21    17   ar
    16     8     2    1
    17    24    19    1
    18    19    18   ar
    19     2     3   ar
    20     2     1   ar
    21     7     1    1
    22     3     9    1
    23     3     4   ar
    24     6     5    1
    25     1     5   ar
    26    17    18   ar
    27    17    13    1
    28     4     5   ar
    29     4    10    1
    30    18    23    1
    31    13    12   ar
    32    10    11   ar
    33    12    11   ar
    34    12    16    1
    35    11    15    1
