@<TRIPOS>MOLECULE
mol_data/opt/b3lyp/geoms/mol2/135-8-4-.out
 33 36 0 0 0
SMALL
GASTEIGER

@<TRIPOS>ATOM
      1 C           1.3545   -0.2777   -0.0000 C.ar    1  LIG1        0.0022
      2 C           0.9266    1.0364    0.0008 C.ar    1  LIG1       -0.0438
      3 C          -0.4877    1.0193    0.0005 C.ar    1  LIG1       -0.0359
      4 C          -0.9022   -0.3104    0.0004 C.ar    1  LIG1        0.0531
      5 N           0.2469   -1.0820    0.0002 N.ar    1  LIG1       -0.3603
      6 H           0.2654   -2.0886   -0.0002 H       1  LIG1        0.1653
      7 H           2.3490   -0.6981   -0.0003 H       1  LIG1        0.0807
      8 H           1.5635    1.9090    0.0012 H       1  LIG1        0.0633
      9 H          -1.1438    1.8784    0.0008 H       1  LIG1        0.0639
     10 C          -2.2198   -0.8959    0.0004 C.ar    1  LIG1        0.0361
     11 C          -2.5725   -2.2381    0.0007 C.ar    1  LIG1       -0.0448
     12 C          -3.9665   -2.4529    0.0006 C.ar    1  LIG1       -0.0432
     13 C          -4.6961   -1.2816    0.0003 C.ar    1  LIG1        0.0604
     14 S          -3.6445    0.1197   -0.0000 S.2     1  LIG1       -0.0836
     15 H          -1.8529   -3.0492    0.0010 H       1  LIG1        0.0630
     16 H          -4.4418   -3.4259    0.0008 H       1  LIG1        0.0630
     17 C          -6.1310   -1.1320    0.0002 C.ar    1  LIG1        0.2099
     18 N          -6.8905   -2.2558    0.0003 N.ar    1  LIG1       -0.1247
     19 C          -8.7039   -0.8568   -0.0001 C.ar    1  LIG1        0.2034
     20 N          -6.6388    0.1230   -0.0001 N.ar    1  LIG1       -0.1247
     21 N          -8.1920   -2.1097    0.0002 N.ar    1  LIG1       -0.1252
     22 N          -7.9427    0.2587   -0.0002 N.ar    1  LIG1       -0.1252
     23 C         -11.0031   -1.8346   -0.0002 C.ar    1  LIG1       -0.0509
     24 C         -12.3870   -1.6839   -0.0003 C.ar    1  LIG1       -0.0611
     25 C         -10.1704   -0.7028   -0.0002 C.ar    1  LIG1        0.0226
     26 C         -12.9567   -0.4085   -0.0004 C.ar    1  LIG1       -0.0617
     27 H         -13.0231   -2.5641   -0.0002 H       1  LIG1        0.0618
     28 C         -10.7485    0.5778   -0.0003 C.ar    1  LIG1       -0.0509
     29 C         -12.1332    0.7199   -0.0004 C.ar    1  LIG1       -0.0611
     30 H         -10.1018    1.4475   -0.0004 H       1  LIG1        0.0625
     31 H         -14.0368   -0.2946   -0.0005 H       1  LIG1        0.0618
     32 H         -10.5527   -2.8203   -0.0000 H       1  LIG1        0.0625
     33 H         -12.5712    1.7135   -0.0005 H       1  LIG1        0.0618
@<TRIPOS>BOND
     1    33    29    1
     2    31    26    1
     3    29    26   ar
     4    29    28   ar
     5    26    24   ar
     6    30    28    1
     7    28    25   ar
     8     7     1    1
     9    24    27    1
    10    24    23   ar
    11    22    20   ar
    12    22    19   ar
    13     6     5    1
    14    25    23   ar
    15    25    19    1
    16    23    32    1
    17    20    17   ar
    18    19    21   ar
    19    14    13   ar
    20    14    10   ar
    21     1     5   ar
    22     1     2   ar
    23    17    13    1
    24    17    18   ar
    25    21    18   ar
    26     5     4   ar
    27    13    12   ar
    28     4    10    1
    29     4     3   ar
    30    10    11   ar
    31     3     9    1
    32     3     2   ar
    33    12    11   ar
    34    12    16    1
    35    11    15    1
    36     2     8    1
