@<TRIPOS>MOLECULE
mol_data/opt/b3lyp/geoms/mol2/135-4-8.out
 33 36 0 0 0
SMALL
GASTEIGER

@<TRIPOS>ATOM
      1 C           1.4138   -0.2892    0.0007 C.ar    1  LIG1        0.0022
      2 C           0.9917    1.0258    0.0009 C.ar    1  LIG1       -0.0438
      3 C          -0.4241    1.0150    0.0002 C.ar    1  LIG1       -0.0359
      4 C          -0.8440   -0.3120    0.0005 C.ar    1  LIG1        0.0531
      5 N           0.3010   -1.0887    0.0009 N.ar    1  LIG1       -0.3603
      6 H           0.3144   -2.0953    0.0009 H       1  LIG1        0.1653
      7 H           2.4060   -0.7147    0.0008 H       1  LIG1        0.0807
      8 H           1.6321    1.8958    0.0012 H       1  LIG1        0.0633
      9 H          -1.0760    1.8772   -0.0001 H       1  LIG1        0.0639
     10 C          -2.1646   -0.8944    0.0004 C.ar    1  LIG1        0.0360
     11 C          -2.5343   -2.2264    0.0011 C.ar    1  LIG1       -0.0449
     12 C          -3.9344   -2.4276    0.0007 C.ar    1  LIG1       -0.0463
     13 C          -4.6740   -1.2626   -0.0004 C.ar    1  LIG1        0.0200
     14 S          -3.5877    0.1232   -0.0010 S.2     1  LIG1       -0.0868
     15 H          -1.8248   -3.0468    0.0020 H       1  LIG1        0.0630
     16 H          -4.3824   -3.4140    0.0013 H       1  LIG1        0.0629
     17 C          -6.9797   -2.2199   -0.0015 C.ar    1  LIG1       -0.0529
     18 C          -8.3573   -2.0759   -0.0021 C.ar    1  LIG1       -0.0503
     19 C          -6.1238   -1.0966   -0.0010 C.ar    1  LIG1       -0.0113
     20 C          -8.9447   -0.7981   -0.0022 C.ar    1  LIG1        0.0227
     21 H          -8.9978   -2.9503   -0.0025 H       1  LIG1        0.0625
     22 C          -6.7262    0.1787   -0.0012 C.ar    1  LIG1       -0.0529
     23 C          -8.1046    0.3281   -0.0018 C.ar    1  LIG1       -0.0503
     24 H          -6.1053    1.0694   -0.0007 H       1  LIG1        0.0624
     25 H          -6.5595   -3.2197   -0.0016 H       1  LIG1        0.0624
     26 H          -8.5469    1.3174   -0.0018 H       1  LIG1        0.0625
     27 C         -10.4057   -0.6446   -0.0028 C.ar    1  LIG1        0.2033
     28 N         -10.9145    0.6099   -0.0031 N.ar    1  LIG1       -0.1258
     29 C         -12.9562   -0.3772   -0.0041 C.ar    1  LIG1        0.1605
     30 N         -11.1637   -1.7664   -0.0031 N.ar    1  LIG1       -0.1258
     31 N         -12.2254    0.7453   -0.0037 N.ar    1  LIG1       -0.1339
     32 N         -12.4743   -1.6266   -0.0036 N.ar    1  LIG1       -0.1339
     33 H         -14.0351   -0.2639   -0.0040 H       1  LIG1        0.1085
@<TRIPOS>BOND
     1    29    33    1
     2    29    31   ar
     3    29    32   ar
     4    31    28   ar
     5    32    30   ar
     6    28    27   ar
     7    30    27   ar
     8    27    20    1
     9    21    18    1
    10    20    18   ar
    11    20    23   ar
    12    18    17   ar
    13    26    23    1
    14    23    22   ar
    15    25    17    1
    16    17    19   ar
    17    22    19   ar
    18    22    24    1
    19    19    13    1
    20    14    13   ar
    21    14    10   ar
    22    13    12   ar
    23     9     3    1
    24     3     4   ar
    25     3     2   ar
    26    10     4    1
    27    10    11   ar
    28     4     5   ar
    29    12    11   ar
    30    12    16    1
    31     1     7    1
    32     1     2   ar
    33     1     5   ar
    34     2     8    1
    35     6     5    1
    36    11    15    1
