@<TRIPOS>MOLECULE
mol_data/opt/b3lyp/geoms/mol2/135-58.out
 30 33 0 0 0
SMALL
GASTEIGER

@<TRIPOS>ATOM
      1 C           1.3787   -0.2490   -0.0005 C.ar    1  LIG1        0.0022
      2 C           0.9491    1.0638    0.0001 C.ar    1  LIG1       -0.0438
      3 C          -0.4661    1.0448    0.0001 C.ar    1  LIG1       -0.0359
      4 C          -0.8784   -0.2850    0.0001 C.ar    1  LIG1        0.0531
      5 N           0.2712   -1.0552   -0.0001 N.ar    1  LIG1       -0.3603
      6 H           0.2912   -2.0617   -0.0003 H       1  LIG1        0.1653
      7 H           2.3734   -0.6687   -0.0009 H       1  LIG1        0.0807
      8 H           1.5845    1.9374    0.0003 H       1  LIG1        0.0633
      9 H          -1.1231    1.9031    0.0002 H       1  LIG1        0.0639
     10 C          -2.1953   -0.8731    0.0004 C.ar    1  LIG1        0.0361
     11 C          -2.5591   -2.2078    0.0010 C.ar    1  LIG1       -0.0449
     12 C          -3.9567   -2.4174    0.0010 C.ar    1  LIG1       -0.0458
     13 C          -4.6975   -1.2519    0.0006 C.ar    1  LIG1        0.0265
     14 S          -3.6230    0.1424   -0.0001 S.2     1  LIG1       -0.0863
     15 H          -1.8451   -3.0239    0.0014 H       1  LIG1        0.0630
     16 H          -4.4099   -3.4026    0.0015 H       1  LIG1        0.0629
     17 C          -6.1289   -1.0851    0.0005 C.ar    1  LIG1        0.0266
     18 C          -6.8592    0.0956    0.0002 C.ar    1  LIG1       -0.0457
     19 C          -8.2533   -0.1068    0.0003 C.ar    1  LIG1       -0.0432
     20 C          -8.6084   -1.4413    0.0007 C.ar    1  LIG1        0.0604
     21 S          -7.1962   -2.4761    0.0009 S.2     1  LIG1       -0.0845
     22 H          -6.3963    1.0757   -0.0001 H       1  LIG1        0.0629
     23 H          -8.9928    0.6841    0.0000 H       1  LIG1        0.0630
     24 C          -9.9374   -2.0036    0.0008 C.ar    1  LIG1        0.2098
     25 N         -10.9893   -1.1454    0.0007 N.ar    1  LIG1       -0.1253
     26 C         -12.2901   -3.0078    0.0009 C.ar    1  LIG1        0.1605
     27 N         -10.0498   -3.3543    0.0012 N.ar    1  LIG1       -0.1253
     28 N         -12.1964   -1.6691    0.0008 N.ar    1  LIG1       -0.1339
     29 N         -11.2630   -3.8669    0.0013 N.ar    1  LIG1       -0.1339
     30 H         -13.2886   -3.4313    0.0015 H       1  LIG1        0.1085
@<TRIPOS>BOND
     1     7     1    1
     2     1     5   ar
     3     1     2   ar
     4     6     5    1
     5    22    18    1
     6    14    10   ar
     7    14    13   ar
     8     5     4   ar
     9    23    19    1
    10     3     2   ar
    11     3     4   ar
    12     3     9    1
    13     2     8    1
    14     4    10    1
    15    18    19   ar
    16    18    17   ar
    17    19    20   ar
    18    10    11   ar
    19    17    13    1
    20    17    21   ar
    21    13    12   ar
    22    20    24    1
    23    20    21   ar
    24    25    28   ar
    25    25    24   ar
    26    28    26   ar
    27    24    27   ar
    28    26    29   ar
    29    26    30    1
    30    11    12   ar
    31    11    15    1
    32    12    16    1
    33    27    29   ar
