@<TRIPOS>MOLECULE
mol_data/opt/b3lyp/geoms/mol2/135.out
 17 18 0 0 0
SMALL
GASTEIGER

@<TRIPOS>ATOM
      1 C           1.2010   -0.2798    0.0000 C.ar    1  LIG1        0.0022
      2 C           0.7960    1.0395    0.0004 C.ar    1  LIG1       -0.0438
      3 C          -0.6215    1.0482    0.0002 C.ar    1  LIG1       -0.0359
      4 C          -1.0585   -0.2722    0.0000 C.ar    1  LIG1        0.0531
      5 N           0.0745   -1.0634   -0.0000 N.ar    1  LIG1       -0.3603
      6 H           0.0752   -2.0712   -0.0005 H       1  LIG1        0.1653
      7 H           2.1869   -0.7204   -0.0001 H       1  LIG1        0.0807
      8 H           1.4479    1.9019    0.0007 H       1  LIG1        0.0633
      9 H          -1.2617    1.9185    0.0004 H       1  LIG1        0.0639
     10 C          -2.4017   -0.8148   -0.0001 C.ar    1  LIG1        0.0354
     11 C          -3.5986   -0.1319   -0.0007 C.ar    1  LIG1       -0.0455
     12 C          -4.7413   -0.9820   -0.0006 C.ar    1  LIG1       -0.0541
     13 C          -4.4250   -2.3109    0.0001 C.ar    1  LIG1       -0.0237
     14 S          -2.7019   -2.5462    0.0008 S.2     1  LIG1       -0.0952
     15 H          -5.0843   -3.1674    0.0003 H       1  LIG1        0.0693
     16 H          -3.6541    0.9502   -0.0014 H       1  LIG1        0.0629
     17 H          -5.7623   -0.6164   -0.0011 H       1  LIG1        0.0623
@<TRIPOS>BOND
     1    16    11    1
     2    17    12    1
     3    11    12   ar
     4    11    10   ar
     5    12    13   ar
     6     6     5    1
     7     7     1    1
     8    10     4    1
     9    10    14   ar
    10     5     1   ar
    11     5     4   ar
    12     1     2   ar
    13     4     3   ar
    14    13    15    1
    15    13    14   ar
    16     3     9    1
    17     3     2   ar
    18     2     8    1
