@<TRIPOS>MOLECULE
mol_data/opt/b3lyp/geoms/mol2/13513-13.out
 33 36 0 0 0
SMALL
GASTEIGER

@<TRIPOS>ATOM
      1 C           1.3693   -0.1797    0.0001 C.ar    1  LIG1        0.0022
      2 C           0.9625    1.1390    0.0005 C.ar    1  LIG1       -0.0438
      3 C          -0.4545    1.1471    0.0006 C.ar    1  LIG1       -0.0359
      4 C          -0.8913   -0.1747    0.0001 C.ar    1  LIG1        0.0531
      5 N           0.2434   -0.9647   -0.0001 N.ar    1  LIG1       -0.3603
      6 H           0.2451   -1.9723   -0.0008 H       1  LIG1        0.1653
      7 H           2.3552   -0.6192   -0.0001 H       1  LIG1        0.0807
      8 H           1.6135    2.0015    0.0008 H       1  LIG1        0.0633
      9 H          -1.0953    2.0171    0.0010 H       1  LIG1        0.0639
     10 C          -2.2311   -0.7166   -0.0000 C.ar    1  LIG1        0.0361
     11 C          -3.4301   -0.0373   -0.0006 C.ar    1  LIG1       -0.0449
     12 C          -4.5690   -0.8819   -0.0006 C.ar    1  LIG1       -0.0449
     13 C          -4.2726   -2.2297   -0.0001 C.ar    1  LIG1        0.0361
     14 S          -2.5288   -2.4514    0.0005 S.2     1  LIG1       -0.0853
     15 H          -3.4900    1.0446   -0.0010 H       1  LIG1        0.0630
     16 H          -5.5825   -0.4950   -0.0010 H       1  LIG1        0.0630
     17 C          -5.1558   -3.3689    0.0000 C.ar    1  LIG1        0.0536
     18 C          -4.8956   -4.7362    0.0001 C.ar    1  LIG1       -0.0353
     19 C          -6.1331   -5.4169    0.0002 C.ar    1  LIG1       -0.0344
     20 C          -7.1476   -4.4628    0.0002 C.ar    1  LIG1        0.0633
     21 N          -6.5318   -3.2307    0.0001 N.ar    1  LIG1       -0.3526
     22 H          -7.0220   -2.3517    0.0004 H       1  LIG1        0.1660
     23 H          -3.9134   -5.1872    0.0001 H       1  LIG1        0.0639
     24 H          -6.2683   -6.4897    0.0002 H       1  LIG1        0.0639
     25 C          -8.5859   -4.5949    0.0003 C.ar    1  LIG1        0.0629
     26 C          -9.6001   -3.6432   -0.0001 C.ar    1  LIG1       -0.0350
     27 C         -10.8429   -4.3296    0.0003 C.ar    1  LIG1       -0.0438
     28 C         -10.5681   -5.6805    0.0010 C.ar    1  LIG1        0.0022
     29 N          -9.2026   -5.8298    0.0010 N.ar    1  LIG1       -0.3595
     30 H          -8.7153   -6.7107    0.0013 H       1  LIG1        0.1654
     31 H         -11.2231   -6.5385    0.0014 H       1  LIG1        0.0807
     32 H          -9.4651   -2.5702   -0.0008 H       1  LIG1        0.0639
     33 H         -11.8270   -3.8834    0.0001 H       1  LIG1        0.0633
@<TRIPOS>BOND
     1    15    11    1
     2    16    12    1
     3     6     5    1
     4    32    26    1
     5    12    11   ar
     6    12    13   ar
     7    11    10   ar
     8    26    27   ar
     9    26    25   ar
    10     5     1   ar
    11     5     4   ar
    12     7     1    1
    13    13    17    1
    14    13    14   ar
    15    10     4    1
    16    10    14   ar
    17    17    21   ar
    18    17    18   ar
    19    21    20   ar
    20    21    22    1
    21    23    18    1
    22     1     2   ar
    23    33    27    1
    24     4     3   ar
    25    18    19   ar
    26    20    19   ar
    27    20    25    1
    28    19    24    1
    29    27    28   ar
    30    25    29   ar
    31     2     3   ar
    32     2     8    1
    33     3     9    1
    34    28    29   ar
    35    28    31    1
    36    29    30    1
