@<TRIPOS>MOLECULE
mol_data/opt/b3lyp/geoms/mol2/13513-.out
 25 27 0 0 0
SMALL
GASTEIGER

@<TRIPOS>ATOM
      1 C           1.2801   -0.2083   -0.0002 C.ar    1  LIG1        0.0022
      2 C           0.8707    1.1096    0.0006 C.ar    1  LIG1       -0.0438
      3 C          -0.5464    1.1149    0.0004 C.ar    1  LIG1       -0.0359
      4 C          -0.9803   -0.2077    0.0001 C.ar    1  LIG1        0.0531
      5 N           0.1560   -0.9954   -0.0001 N.ar    1  LIG1       -0.3603
      6 H           0.1599   -2.0031   -0.0007 H       1  LIG1        0.1653
      7 H           2.2670   -0.6457   -0.0005 H       1  LIG1        0.0807
      8 H           1.5199    1.9735    0.0011 H       1  LIG1        0.0633
      9 H          -1.1891    1.9834    0.0007 H       1  LIG1        0.0639
     10 C          -2.3192   -0.7533   -0.0001 C.ar    1  LIG1        0.0361
     11 C          -3.5198   -0.0780   -0.0008 C.ar    1  LIG1       -0.0449
     12 C          -4.6559   -0.9278   -0.0007 C.ar    1  LIG1       -0.0449
     13 C          -4.3546   -2.2731    0.0000 C.ar    1  LIG1        0.0361
     14 S          -2.6110   -2.4889    0.0007 S.2     1  LIG1       -0.0853
     15 H          -3.5836    1.0038   -0.0014 H       1  LIG1        0.0630
     16 H          -5.6711   -0.5447   -0.0012 H       1  LIG1        0.0630
     17 C          -5.2343   -3.4196    0.0003 C.ar    1  LIG1        0.0531
     18 C          -4.9679   -4.7846    0.0005 C.ar    1  LIG1       -0.0359
     19 C          -6.2076   -5.4729    0.0009 C.ar    1  LIG1       -0.0438
     20 C          -7.2072   -4.5222    0.0003 C.ar    1  LIG1        0.0022
     21 N          -6.6107   -3.2860    0.0002 N.ar    1  LIG1       -0.3603
     22 H          -7.1027   -2.4079    0.0003 H       1  LIG1        0.1653
     23 H          -8.2821   -4.6221    0.0002 H       1  LIG1        0.0807
     24 H          -3.9830   -5.2300    0.0005 H       1  LIG1        0.0639
     25 H          -6.3527   -6.5436    0.0014 H       1  LIG1        0.0633
@<TRIPOS>BOND
     1    15    11    1
     2    16    12    1
     3    11    12   ar
     4    11    10   ar
     5     6     5    1
     6    12    13   ar
     7     7     1    1
     8     1     5   ar
     9     1     2   ar
    10     5     4   ar
    11    10     4    1
    12    10    14   ar
    13    13    17    1
    14    13    14   ar
    15     4     3   ar
    16    23    20    1
    17    21    17   ar
    18    21    22    1
    19    21    20   ar
    20    17    18   ar
    21    20    19   ar
    22     3     2   ar
    23     3     9    1
    24    18    24    1
    25    18    19   ar
    26     2     8    1
    27    19    25    1
