@<TRIPOS>MOLECULE
mol_data/opt/b3lyp/geoms/mol2/13512.out
 24 26 0 0 0
SMALL
GASTEIGER

@<TRIPOS>ATOM
      1 C           1.2637   -0.1953   -0.0003 C.ar    1  LIG1        0.0022
      2 C           0.8395    1.1184    0.0005 C.ar    1  LIG1       -0.0438
      3 C          -0.5771    1.1074    0.0002 C.ar    1  LIG1       -0.0359
      4 C          -0.9960   -0.2203    0.0000 C.ar    1  LIG1        0.0531
      5 N           0.1493   -0.9952   -0.0001 N.ar    1  LIG1       -0.3603
      6 H           0.1650   -2.0028   -0.0006 H       1  LIG1        0.1653
      7 H           2.2555   -0.6211   -0.0006 H       1  LIG1        0.0807
      8 H           1.4789    1.9894    0.0008 H       1  LIG1        0.0633
      9 H          -1.2296    1.9686    0.0005 H       1  LIG1        0.0639
     10 C          -2.3283   -0.7803   -0.0000 C.ar    1  LIG1        0.0361
     11 C          -3.5354   -0.1107   -0.0007 C.ar    1  LIG1       -0.0448
     12 C          -4.6631   -0.9669   -0.0006 C.ar    1  LIG1       -0.0433
     13 C          -4.3426   -2.3076    0.0002 C.ar    1  LIG1        0.0550
     14 S          -2.6002   -2.5161    0.0009 S.2     1  LIG1       -0.0837
     15 H          -3.6061    0.9705   -0.0014 H       1  LIG1        0.0630
     16 H          -5.6863   -0.6090   -0.0011 H       1  LIG1        0.0630
     17 C          -5.2244   -3.4459    0.0006 C.ar    1  LIG1        0.1413
     18 C          -6.5915   -3.5841    0.0007 C.ar    1  LIG1       -0.0154
     19 C          -6.8589   -4.9877    0.0010 C.ar    1  LIG1       -0.0233
     20 C          -5.6478   -5.6099    0.0012 C.ar    1  LIG1        0.0926
     21 O          -4.6416   -4.6873    0.0009 O.2     1  LIG1       -0.4624
     22 H          -5.3378   -6.6426    0.0015 H       1  LIG1        0.1029
     23 H          -7.3142   -2.7817    0.0005 H       1  LIG1        0.0655
     24 H          -7.8268   -5.4675    0.0012 H       1  LIG1        0.0649
@<TRIPOS>BOND
     1    15    11    1
     2    16    12    1
     3    11    12   ar
     4    11    10   ar
     5     6     5    1
     6     7     1    1
     7    12    13   ar
     8     1     5   ar
     9     1     2   ar
    10     5     4   ar
    11    10     4    1
    12    10    14   ar
    13     4     3   ar
    14    13    17    1
    15    13    14   ar
    16     3     2   ar
    17     3     9    1
    18     2     8    1
    19    23    18    1
    20    17    18   ar
    21    17    21   ar
    22    18    19   ar
    23    21    20   ar
    24    19    24    1
    25    19    20   ar
    26    20    22    1
