@<TRIPOS>MOLECULE
mol_data/opt/b3lyp/geoms/mol2/13512-.out
 24 26 0 0 0
SMALL
GASTEIGER

@<TRIPOS>ATOM
      1 C           1.2637   -0.2241   -0.0003 C.ar    1  LIG1        0.0022
      2 C           0.8526    1.0937    0.0005 C.ar    1  LIG1       -0.0438
      3 C          -0.5640    1.0969    0.0002 C.ar    1  LIG1       -0.0359
      4 C          -0.9961   -0.2265    0.0000 C.ar    1  LIG1        0.0531
      5 N           0.1413   -1.0129   -0.0001 N.ar    1  LIG1       -0.3603
      6 H           0.1474   -2.0205   -0.0007 H       1  LIG1        0.1653
      7 H           2.2512   -0.6599   -0.0007 H       1  LIG1        0.0807
      8 H           1.5006    1.9583    0.0009 H       1  LIG1        0.0633
      9 H          -1.2080    1.9644    0.0005 H       1  LIG1        0.0639
     10 C          -2.3344   -0.7713   -0.0000 C.ar    1  LIG1        0.0361
     11 C          -3.5357   -0.0934   -0.0007 C.ar    1  LIG1       -0.0448
     12 C          -4.6727   -0.9391   -0.0005 C.ar    1  LIG1       -0.0433
     13 C          -4.3650   -2.2816    0.0003 C.ar    1  LIG1        0.0550
     14 S          -2.6246   -2.5070    0.0010 S.2     1  LIG1       -0.0837
     15 H          -3.5956    0.9884   -0.0014 H       1  LIG1        0.0630
     16 H          -5.6952   -0.5821   -0.0010 H       1  LIG1        0.0630
     17 C          -5.2613   -3.4089    0.0006 C.ar    1  LIG1        0.1413
     18 C          -5.0853   -4.7709    0.0011 C.ar    1  LIG1       -0.0154
     19 C          -6.3912   -5.3515    0.0012 C.ar    1  LIG1       -0.0233
     20 C          -7.2707   -4.3125    0.0009 C.ar    1  LIG1        0.0926
     21 O          -6.6031   -3.1222    0.0005 O.2     1  LIG1       -0.4624
     22 H          -8.3471   -4.2459    0.0008 H       1  LIG1        0.1029
     23 H          -4.1394   -5.2929    0.0013 H       1  LIG1        0.0655
     24 H          -6.6391   -6.4029    0.0016 H       1  LIG1        0.0649
@<TRIPOS>BOND
     1    15    11    1
     2    16    12    1
     3    11    12   ar
     4    11    10   ar
     5     6     5    1
     6     7     1    1
     7    12    13   ar
     8     1     5   ar
     9     1     2   ar
    10     5     4   ar
    11    10     4    1
    12    10    14   ar
    13     4     3   ar
    14     3     2   ar
    15     3     9    1
    16    13    17    1
    17    13    14   ar
    18     2     8    1
    19    21    17   ar
    20    21    20   ar
    21    17    18   ar
    22    22    20    1
    23    20    19   ar
    24    18    19   ar
    25    18    23    1
    26    19    24    1
