@<TRIPOS>MOLECULE
mol_data/opt/b3lyp/geoms/mol2/13512-4-.out
 34 37 0 0 0
SMALL
GASTEIGER

@<TRIPOS>ATOM
      1 C           1.4121   -0.2561    0.0003 C.ar    1  LIG1        0.0022
      2 C           1.0288    1.0701    0.0003 C.ar    1  LIG1       -0.0438
      3 C          -0.3872    1.1033    0.0004 C.ar    1  LIG1       -0.0359
      4 C          -0.8471   -0.2111    0.0002 C.ar    1  LIG1        0.0531
      5 N           0.2736   -1.0212    0.0001 N.ar    1  LIG1       -0.3603
      6 H           0.2589   -2.0288   -0.0003 H       1  LIG1        0.1653
      7 H           2.3903   -0.7124    0.0003 H       1  LIG1        0.0807
      8 H           1.6949    1.9208    0.0004 H       1  LIG1        0.0633
      9 H          -1.0127    1.9842    0.0006 H       1  LIG1        0.0639
     10 C          -2.1961   -0.7268    0.0000 C.ar    1  LIG1        0.0361
     11 C          -3.3824   -0.0217   -0.0007 C.ar    1  LIG1       -0.0448
     12 C          -4.5375   -0.8406   -0.0006 C.ar    1  LIG1       -0.0433
     13 C          -4.2606   -2.1912    0.0002 C.ar    1  LIG1        0.0550
     14 S          -2.5246   -2.4553    0.0009 S.2     1  LIG1       -0.0837
     15 H          -3.4174    1.0612   -0.0014 H       1  LIG1        0.0630
     16 H          -5.5513   -0.4600   -0.0011 H       1  LIG1        0.0630
     17 C          -5.1798   -3.2954    0.0004 C.ar    1  LIG1        0.1422
     18 C          -5.0321   -4.6632    0.0008 C.ar    1  LIG1       -0.0147
     19 C          -6.3415   -5.2145    0.0008 C.ar    1  LIG1       -0.0152
     20 C          -7.2241   -4.1609    0.0005 C.ar    1  LIG1        0.1357
     21 O          -6.5142   -2.9852    0.0002 O.2     1  LIG1       -0.4543
     22 H          -4.0968   -5.2040    0.0010 H       1  LIG1        0.0656
     23 H          -6.5981   -6.2636    0.0011 H       1  LIG1        0.0656
     24 C          -9.4683   -5.2290    0.0003 C.ar    1  LIG1       -0.0511
     25 C         -10.8564   -5.1412    0.0002 C.ar    1  LIG1       -0.0611
     26 C          -8.6758   -4.0653    0.0004 C.ar    1  LIG1        0.0173
     27 C         -11.4861   -3.8938    0.0003 C.ar    1  LIG1       -0.0617
     28 H         -11.4504   -6.0506    0.0001 H       1  LIG1        0.0618
     29 C          -9.3193   -2.8141    0.0004 C.ar    1  LIG1       -0.0511
     30 C         -10.7095   -2.7338    0.0003 C.ar    1  LIG1       -0.0611
     31 H          -8.7209   -1.9101    0.0005 H       1  LIG1        0.0625
     32 H         -12.5699   -3.8279    0.0002 H       1  LIG1        0.0618
     33 H          -8.9929   -6.2049    0.0002 H       1  LIG1        0.0625
     34 H         -11.1885   -1.7589    0.0004 H       1  LIG1        0.0618
@<TRIPOS>BOND
     1    15    11    1
     2    16    12    1
     3    11    12   ar
     4    11    10   ar
     5    12    13   ar
     6     6     5    1
     7    10     4    1
     8    10    14   ar
     9     5     4   ar
    10     5     1   ar
    11    28    25    1
    12     4     3   ar
    13    13    17    1
    14    13    14   ar
    15    32    27    1
    16    33    24    1
    17    25    27   ar
    18    25    24   ar
    19    21    17   ar
    20    21    20   ar
    21    27    30   ar
    22    24    26   ar
    23     1     7    1
    24     1     2   ar
    25     2     3   ar
    26     2     8    1
    27    30    34    1
    28    30    29   ar
    29     3     9    1
    30    26    29   ar
    31    26    20    1
    32    29    31    1
    33    17    18   ar
    34    20    19   ar
    35    18    19   ar
    36    18    22    1
    37    19    23    1
