@<TRIPOS>MOLECULE
mol_data/opt/b3lyp/geoms/mol2/1354.out
 27 29 0 0 0
SMALL
GASTEIGER

@<TRIPOS>ATOM
      1 C           1.3032   -0.1547   -0.0004 C.ar    1  LIG1        0.0022
      2 C           0.8784    1.1589    0.0001 C.ar    1  LIG1       -0.0438
      3 C          -0.5380    1.1470   -0.0003 C.ar    1  LIG1       -0.0359
      4 C          -0.9560   -0.1810   -0.0000 C.ar    1  LIG1        0.0531
      5 N           0.1896   -0.9552    0.0001 N.ar    1  LIG1       -0.3603
      6 H           0.2051   -1.9628   -0.0000 H       1  LIG1        0.1653
      7 H           2.2955   -0.5799   -0.0006 H       1  LIG1        0.0807
      8 H           1.5174    2.0302    0.0003 H       1  LIG1        0.0633
      9 H          -1.1911    2.0076   -0.0004 H       1  LIG1        0.0639
     10 C          -2.2884   -0.7406    0.0001 C.ar    1  LIG1        0.0360
     11 C          -3.4955   -0.0739   -0.0009 C.ar    1  LIG1       -0.0449
     12 C          -4.6212   -0.9338   -0.0004 C.ar    1  LIG1       -0.0463
     13 C          -4.3159   -2.2775    0.0009 C.ar    1  LIG1        0.0200
     14 S          -2.5653   -2.4734    0.0017 S.2     1  LIG1       -0.0868
     15 H          -3.5687    1.0071   -0.0020 H       1  LIG1        0.0630
     16 H          -5.6388   -0.5616   -0.0012 H       1  LIG1        0.0629
     17 C          -6.6130   -3.2555    0.0024 C.ar    1  LIG1       -0.0535
     18 C          -7.4760   -4.3465    0.0030 C.ar    1  LIG1       -0.0612
     19 C          -5.2147   -3.4342    0.0016 C.ar    1  LIG1       -0.0113
     20 C          -6.9729   -5.6495    0.0030 C.ar    1  LIG1       -0.0617
     21 H          -8.5490   -4.1773    0.0036 H       1  LIG1        0.0618
     22 C          -4.7252   -4.7541    0.0016 C.ar    1  LIG1       -0.0535
     23 C          -5.5914   -5.8444    0.0023 C.ar    1  LIG1       -0.0612
     24 H          -3.6538   -4.9331    0.0010 H       1  LIG1        0.0624
     25 H          -7.6482   -6.4995    0.0036 H       1  LIG1        0.0618
     26 H          -7.0290   -2.2536    0.0025 H       1  LIG1        0.0624
     27 H          -5.1828   -6.8508    0.0023 H       1  LIG1        0.0618
@<TRIPOS>BOND
     1    15    11    1
     2    16    12    1
     3    11    12   ar
     4    11    10   ar
     5     7     1    1
     6     1     2   ar
     7     1     5   ar
     8     9     3    1
     9    12    13   ar
    10     3     4   ar
    11     3     2   ar
    12     6     5    1
    13     4    10    1
    14     4     5   ar
    15    10    14   ar
    16     2     8    1
    17    13    19    1
    18    13    14   ar
    19    24    22    1
    20    22    19   ar
    21    22    23   ar
    22    19    17   ar
    23    27    23    1
    24    23    20   ar
    25    17    26    1
    26    17    18   ar
    27    20    18   ar
    28    20    25    1
    29    18    21    1
