@<TRIPOS>MOLECULE
mol_data/opt/b3lyp/geoms/mol2/1358.out
 23 25 0 0 0
SMALL
GASTEIGER

@<TRIPOS>ATOM
      1 C           1.2464   -0.2201   -0.0002 C.ar    1  LIG1        0.0022
      2 C           0.8232    1.0962    0.0004 C.ar    1  LIG1       -0.0438
      3 C          -0.5903    1.0851    0.0001 C.ar    1  LIG1       -0.0359
      4 C          -1.0098   -0.2445    0.0000 C.ar    1  LIG1        0.0531
      5 N           0.1362   -1.0199   -0.0001 N.ar    1  LIG1       -0.3603
      6 H           0.1540   -2.0279   -0.0004 H       1  LIG1        0.1653
      7 H           2.2392   -0.6443   -0.0005 H       1  LIG1        0.0807
      8 H           1.4637    1.9662    0.0007 H       1  LIG1        0.0633
      9 H          -1.2428    1.9462    0.0003 H       1  LIG1        0.0639
     10 C          -2.3397   -0.7990   -0.0000 C.ar    1  LIG1        0.0361
     11 C          -3.5435   -0.1081   -0.0006 C.ar    1  LIG1       -0.0448
     12 C          -4.6721   -0.9506   -0.0004 C.ar    1  LIG1       -0.0432
     13 C          -4.3544   -2.2948    0.0003 C.ar    1  LIG1        0.0604
     14 S          -2.6177   -2.5283    0.0008 S.2     1  LIG1       -0.0836
     15 H          -3.6002    0.9735   -0.0012 H       1  LIG1        0.0630
     16 H          -5.6991   -0.6070   -0.0009 H       1  LIG1        0.0630
     17 C          -5.2502   -3.4235    0.0006 C.ar    1  LIG1        0.2098
     18 N          -6.5855   -3.1747    0.0002 N.ar    1  LIG1       -0.1253
     19 C          -6.8339   -5.4332    0.0010 C.ar    1  LIG1        0.1605
     20 N          -4.7014   -4.6635    0.0012 N.ar    1  LIG1       -0.1253
     21 N          -7.3930   -4.2131    0.0005 N.ar    1  LIG1       -0.1339
     22 N          -5.5206   -5.6946    0.0015 N.ar    1  LIG1       -0.1339
     23 H          -7.5072   -6.2834    0.0015 H       1  LIG1        0.1085
@<TRIPOS>BOND
     1    15    11    1
     2    16    12    1
     3    11    12   ar
     4    11    10   ar
     5     7     1    1
     6     6     5    1
     7    12    13   ar
     8     1     5   ar
     9     1     2   ar
    10     5     4   ar
    11    10     4    1
    12    10    14   ar
    13     4     3   ar
    14     3     9    1
    15     3     2   ar
    16    18    21   ar
    17    18    17   ar
    18    13    17    1
    19    13    14   ar
    20     2     8    1
    21    21    19   ar
    22    17    20   ar
    23    19    22   ar
    24    19    23    1
    25    20    22   ar
