@<TRIPOS>MOLECULE
mol_data/opt/b3lyp/geoms/mol2/138-1312.out
 31 34 0 0 0
SMALL
GASTEIGER

@<TRIPOS>ATOM
      1 C           1.2126   -0.3165   -0.0004 C.ar    1  LIG1        0.0023
      2 C           0.8491    1.0221   -0.0002 C.ar    1  LIG1       -0.0437
      3 C          -0.5628    1.0779   -0.0003 C.ar    1  LIG1       -0.0333
      4 C          -1.0283   -0.2334    0.0000 C.ar    1  LIG1        0.0875
      5 N           0.0725   -1.0643    0.0001 N.ar    1  LIG1       -0.3582
      6 H          -0.0040   -2.0704    0.0002 H       1  LIG1        0.1654
      7 H           2.1874   -0.7810   -0.0005 H       1  LIG1        0.0807
      8 H           1.5308    1.8604   -0.0003 H       1  LIG1        0.0633
      9 H          -1.1900    1.9566   -0.0004 H       1  LIG1        0.0640
     10 C          -2.3624   -0.7788    0.0003 C.ar    1  LIG1        0.2194
     11 N          -2.4853   -2.1258    0.0005 N.ar    1  LIG1       -0.1237
     12 C          -4.7419   -1.7749    0.0007 C.ar    1  LIG1        0.2194
     13 N          -3.4138    0.0836    0.0002 N.ar    1  LIG1       -0.1237
     14 N          -3.6962   -2.6341    0.0008 N.ar    1  LIG1       -0.1237
     15 N          -4.6183   -0.4205    0.0004 N.ar    1  LIG1       -0.1237
     16 C          -6.0658   -2.3393    0.0011 C.ar    1  LIG1        0.0880
     17 C          -7.3256   -1.7411    0.0011 C.ar    1  LIG1       -0.0325
     18 C          -8.2821   -2.7713    0.0014 C.ar    1  LIG1       -0.0327
     19 C          -7.5931   -3.9892    0.0016 C.ar    1  LIG1        0.0826
     20 N          -6.2549   -3.7029    0.0014 N.ar    1  LIG1       -0.3492
     21 H          -5.5025   -4.3760    0.0015 H       1  LIG1        0.1661
     22 H          -7.5036   -0.6764    0.0008 H       1  LIG1        0.0640
     23 H          -9.3566   -2.6592    0.0015 H       1  LIG1        0.0640
     24 C          -8.0749   -5.3453    0.0020 C.ar    1  LIG1        0.1509
     25 C          -9.3237   -5.9126    0.0020 C.ar    1  LIG1       -0.0144
     26 C          -9.1263   -7.3282    0.0026 C.ar    1  LIG1       -0.0233
     27 C          -7.7799   -7.5296    0.0026 C.ar    1  LIG1        0.0926
     28 O          -7.1210   -6.3331    0.0024 O.2     1  LIG1       -0.4615
     29 H          -7.1560   -8.4091    0.0029 H       1  LIG1        0.1029
     30 H         -10.2649   -5.3831    0.0018 H       1  LIG1        0.0656
     31 H          -9.8889   -8.0933    0.0028 H       1  LIG1        0.0649
@<TRIPOS>BOND
     1     7     1    1
     2     9     3    1
     3     1     2   ar
     4     1     5   ar
     5     3     2   ar
     6     3     4   ar
     7     8     2    1
     8     4     5   ar
     9     4    10    1
    10     5     6    1
    11    13    10   ar
    12    13    15   ar
    13    10    11   ar
    14    15    12   ar
    15    11    14   ar
    16    12    14   ar
    17    12    16    1
    18    22    17    1
    19    17    16   ar
    20    17    18   ar
    21    16    20   ar
    22    18    23    1
    23    18    19   ar
    24    20    21    1
    25    20    19   ar
    26    19    24    1
    27    30    25    1
    28    24    25   ar
    29    24    28   ar
    30    25    26   ar
    31    28    27   ar
    32    26    27   ar
    33    26    31    1
    34    27    29    1
