@<TRIPOS>MOLECULE
mol_data/opt/b3lyp/geoms/mol2/138-13.out
 24 26 0 0 0
SMALL
GASTEIGER

@<TRIPOS>ATOM
      1 C           1.1923   -0.3258   -0.0004 C.ar    1  LIG1        0.0023
      2 C           0.8226    1.0111    0.0001 C.ar    1  LIG1       -0.0437
      3 C          -0.5896    1.0600   -0.0001 C.ar    1  LIG1       -0.0333
      4 C          -1.0488   -0.2533    0.0000 C.ar    1  LIG1        0.0875
      5 N           0.0557   -1.0791   -0.0002 N.ar    1  LIG1       -0.3582
      6 H          -0.0159   -2.0856   -0.0003 H       1  LIG1        0.1654
      7 H           2.1693   -0.7859   -0.0005 H       1  LIG1        0.0807
      8 H           1.5004    1.8530    0.0004 H       1  LIG1        0.0633
      9 H          -1.2208    1.9356    0.0000 H       1  LIG1        0.0640
     10 C          -2.3808   -0.8048    0.0002 C.ar    1  LIG1        0.2194
     11 N          -2.4972   -2.1523    0.0002 N.ar    1  LIG1       -0.1237
     12 C          -4.7568   -1.8126    0.0006 C.ar    1  LIG1        0.2194
     13 N          -3.4359    0.0519    0.0003 N.ar    1  LIG1       -0.1237
     14 N          -3.7066   -2.6652    0.0004 N.ar    1  LIG1       -0.1237
     15 N          -4.6389   -0.4584    0.0006 N.ar    1  LIG1       -0.1237
     16 C          -6.0790   -2.3865    0.0009 C.ar    1  LIG1        0.0875
     17 C          -7.3424   -1.8034    0.0011 C.ar    1  LIG1       -0.0333
     18 C          -8.2891   -2.8522    0.0010 C.ar    1  LIG1       -0.0437
     19 C          -7.5853   -4.0476    0.0014 C.ar    1  LIG1        0.0023
     20 N          -6.2538   -3.7546    0.0011 N.ar    1  LIG1       -0.3582
     21 H          -5.4806   -4.4030    0.0010 H       1  LIG1        0.1654
     22 H          -7.9341   -5.0696    0.0017 H       1  LIG1        0.0807
     23 H          -7.5328   -0.7407    0.0011 H       1  LIG1        0.0640
     24 H          -9.3653   -2.7541    0.0009 H       1  LIG1        0.0633
@<TRIPOS>BOND
     1     7     1    1
     2     1     5   ar
     3     1     2   ar
     4     6     5    1
     5     5     4   ar
     6     3     4   ar
     7     3     9    1
     8     3     2   ar
     9     4    10    1
    10     2     8    1
    11    11    10   ar
    12    11    14   ar
    13    10    13   ar
    14    13    15   ar
    15    14    12   ar
    16    15    12   ar
    17    12    16    1
    18    24    18    1
    19    16    20   ar
    20    16    17   ar
    21    18    17   ar
    22    18    19   ar
    23    21    20    1
    24    20    19   ar
    25    23    17    1
    26    19    22    1
