@<TRIPOS>MOLECULE
mol_data/opt/b3lyp/geoms/mol2/138-125.out
 30 33 0 0 0
SMALL
GASTEIGER

@<TRIPOS>ATOM
      1 C           1.2277   -0.1422   -0.0002 C.ar    1  LIG1        0.0023
      2 C           0.7973    1.1773    0.0003 C.ar    1  LIG1       -0.0437
      3 C          -0.6148    1.1618    0.0001 C.ar    1  LIG1       -0.0333
      4 C          -1.0136   -0.1720    0.0001 C.ar    1  LIG1        0.0875
      5 N           0.1279   -0.9464    0.0000 N.ar    1  LIG1       -0.3582
      6 H           0.1013   -1.9554   -0.0000 H       1  LIG1        0.1654
      7 H           2.2249   -0.5565   -0.0005 H       1  LIG1        0.0807
      8 H           1.4362    2.0484    0.0006 H       1  LIG1        0.0633
      9 H          -1.2855    2.0078    0.0001 H       1  LIG1        0.0640
     10 C          -2.3162   -0.7851    0.0002 C.ar    1  LIG1        0.2194
     11 N          -2.3666   -2.1378    0.0002 N.ar    1  LIG1       -0.1236
     12 C          -4.6302   -1.9145    0.0004 C.ar    1  LIG1        0.2381
     13 N          -3.4119    0.0191    0.0003 N.ar    1  LIG1       -0.1236
     14 N          -3.5448   -2.7189    0.0003 N.ar    1  LIG1       -0.1220
     15 N          -4.5841   -0.5565    0.0004 N.ar    1  LIG1       -0.1220
     16 C          -5.9475   -2.5054    0.0005 C.ar    1  LIG1        0.1760
     17 C          -7.2028   -1.9429    0.0006 C.ar    1  LIG1       -0.0120
     18 C          -8.1268   -3.0157    0.0006 C.ar    1  LIG1       -0.0146
     19 C          -7.3816   -4.1775    0.0005 C.ar    1  LIG1        0.1424
     20 O          -6.0531   -3.8697    0.0004 O.2     1  LIG1       -0.4511
     21 H          -7.4119   -0.8840    0.0007 H       1  LIG1        0.0657
     22 H          -9.2046   -2.9494    0.0007 H       1  LIG1        0.0656
     23 C          -7.7350   -5.5729    0.0006 C.ar    1  LIG1        0.0544
     24 C          -8.9988   -6.1282    0.0003 C.ar    1  LIG1       -0.0440
     25 C          -8.9837   -7.5488    0.0004 C.ar    1  LIG1       -0.0540
     26 C          -7.7150   -8.0652    0.0007 C.ar    1  LIG1       -0.0236
     27 S          -6.5081   -6.8225    0.0009 S.2     1  LIG1       -0.0936
     28 H          -7.4147   -9.1037    0.0008 H       1  LIG1        0.0693
     29 H          -9.9053   -5.5339    0.0000 H       1  LIG1        0.0630
     30 H          -9.8780   -8.1609    0.0002 H       1  LIG1        0.0623
@<TRIPOS>BOND
     1     7     1    1
     2     1     5   ar
     3     1     2   ar
     4     6     5    1
     5     5     4   ar
     6    29    24    1
     7     3     4   ar
     8     3     9    1
     9     3     2   ar
    10     4    10    1
    11    11    10   ar
    12    11    14   ar
    13    30    25    1
    14    10    13   ar
    15    14    12   ar
    16    13    15   ar
    17    24    25   ar
    18    24    23   ar
    19     2     8    1
    20    12    15   ar
    21    12    16    1
    22    25    26   ar
    23    20    16   ar
    24    20    19   ar
    25    16    17   ar
    26    19    23    1
    27    19    18   ar
    28    23    27   ar
    29    17    18   ar
    30    17    21    1
    31    18    22    1
    32    26    28    1
    33    26    27   ar
