@<TRIPOS>MOLECULE
mol_data/opt/b3lyp/geoms/mol2/138-13-.out
 24 26 0 0 0
SMALL
GASTEIGER

@<TRIPOS>ATOM
      1 C           1.1894   -0.2910   -0.0001 C.ar    1  LIG1        0.0023
      2 C           0.8035    1.0415    0.0005 C.ar    1  LIG1       -0.0437
      3 C          -0.6091    1.0732    0.0001 C.ar    1  LIG1       -0.0333
      4 C          -1.0522   -0.2458    0.0001 C.ar    1  LIG1        0.0875
      5 N           0.0623   -1.0578    0.0000 N.ar    1  LIG1       -0.3582
      6 H           0.0014   -2.0652   -0.0001 H       1  LIG1        0.1654
      7 H           2.1719   -0.7391   -0.0001 H       1  LIG1        0.0807
      8 H           1.4710    1.8916    0.0008 H       1  LIG1        0.0633
      9 H          -1.2505    1.9414    0.0001 H       1  LIG1        0.0640
     10 C          -2.3760   -0.8169    0.0001 C.ar    1  LIG1        0.2194
     11 N          -2.4654   -2.1710    0.0001 N.ar    1  LIG1       -0.1237
     12 C          -4.7250   -1.8868    0.0002 C.ar    1  LIG1        0.2194
     13 N          -3.4449    0.0150    0.0002 N.ar    1  LIG1       -0.1237
     14 N          -3.6557   -2.7184    0.0001 N.ar    1  LIG1       -0.1237
     15 N          -4.6351   -0.5324    0.0002 N.ar    1  LIG1       -0.1237
     16 C          -6.0486   -2.4579    0.0002 C.ar    1  LIG1        0.0875
     17 C          -6.4915   -3.7771    0.0003 C.ar    1  LIG1       -0.0333
     18 C          -7.9040   -3.7458    0.0007 C.ar    1  LIG1       -0.0437
     19 C          -8.2902   -2.4132    0.0001 C.ar    1  LIG1        0.0023
     20 N          -7.1635   -1.6463    0.0001 N.ar    1  LIG1       -0.3582
     21 H          -7.1028   -0.6388    0.0001 H       1  LIG1        0.1654
     22 H          -9.2728   -1.9654   -0.0000 H       1  LIG1        0.0807
     23 H          -5.8498   -4.6453    0.0003 H       1  LIG1        0.0640
     24 H          -8.5713   -4.5959    0.0010 H       1  LIG1        0.0633
@<TRIPOS>BOND
     1     6     5    1
     2     7     1    1
     3     1     5   ar
     4     1     2   ar
     5    22    19    1
     6     5     4   ar
     7    21    20    1
     8    20    19   ar
     9    20    16   ar
    10     3     4   ar
    11     3     9    1
    12     3     2   ar
    13     4    10    1
    14    11    14   ar
    15    11    10   ar
    16    14    12   ar
    17    19    18   ar
    18    10    13   ar
    19    13    15   ar
    20    16    12    1
    21    16    17   ar
    22    12    15   ar
    23    17    23    1
    24    17    18   ar
    25     2     8    1
    26    18    24    1
