@<TRIPOS>MOLECULE
mol_data/opt/b3lyp/geoms/mol2/138-5-5-.out
 30 33 0 0 0
SMALL
GASTEIGER

@<TRIPOS>ATOM
      1 C           1.2684   -0.2847   -0.0005 C.ar    1  LIG1        0.0023
      2 C           0.8803    1.0478   -0.0001 C.ar    1  LIG1       -0.0437
      3 C          -0.5314    1.0775   -0.0003 C.ar    1  LIG1       -0.0333
      4 C          -0.9727   -0.2428    0.0000 C.ar    1  LIG1        0.0875
      5 N           0.1436   -1.0534    0.0000 N.ar    1  LIG1       -0.3582
      6 H           0.0857   -2.0610    0.0001 H       1  LIG1        0.1654
      7 H           2.2519   -0.7307   -0.0006 H       1  LIG1        0.0807
      8 H           1.5466    1.8982    0.0000 H       1  LIG1        0.0633
      9 H          -1.1746    1.9446   -0.0004 H       1  LIG1        0.0640
     10 C          -2.2949   -0.8124    0.0003 C.ar    1  LIG1        0.2194
     11 N          -2.3877   -2.1658    0.0005 N.ar    1  LIG1       -0.1237
     12 C          -4.6474   -1.8724    0.0007 C.ar    1  LIG1        0.2099
     13 N          -3.3634    0.0226    0.0002 N.ar    1  LIG1       -0.1237
     14 N          -3.5812   -2.7069    0.0007 N.ar    1  LIG1       -0.1246
     15 N          -4.5536   -0.5194    0.0005 N.ar    1  LIG1       -0.1246
     16 C          -5.9702   -2.4557    0.0010 C.ar    1  LIG1        0.0604
     17 C          -6.3092   -3.7936    0.0013 C.ar    1  LIG1       -0.0432
     18 C          -7.7026   -4.0127    0.0016 C.ar    1  LIG1       -0.0457
     19 C          -8.4460   -2.8427    0.0014 C.ar    1  LIG1        0.0266
     20 S          -7.3949   -1.4423    0.0009 S.2     1  LIG1       -0.0845
     21 H          -5.5611   -4.5764    0.0014 H       1  LIG1        0.0630
     22 H          -8.1522   -4.9983    0.0019 H       1  LIG1        0.0629
     23 C          -9.8902   -2.7227    0.0016 C.ar    1  LIG1        0.0259
     24 C         -10.8207   -3.7439    0.0013 C.ar    1  LIG1       -0.0464
     25 C         -12.1660   -3.2872    0.0016 C.ar    1  LIG1       -0.0541
     26 C         -12.2647   -1.9220    0.0021 C.ar    1  LIG1       -0.0237
     27 S         -10.7051   -1.1682    0.0022 S.2     1  LIG1       -0.0961
     28 H         -13.1562   -1.3109    0.0024 H       1  LIG1        0.0693
     29 H         -10.5450   -4.7917    0.0009 H       1  LIG1        0.0629
     30 H         -13.0258   -3.9469    0.0015 H       1  LIG1        0.0623
@<TRIPOS>BOND
     1     7     1    1
     2     1     2   ar
     3     1     5   ar
     4     9     3    1
     5     3     2   ar
     6     3     4   ar
     7     2     8    1
     8     4     5   ar
     9     4    10    1
    10     5     6    1
    11    13    10   ar
    12    13    15   ar
    13    10    11   ar
    14    15    12   ar
    15    11    14   ar
    16    14    12   ar
    17    12    16    1
    18    29    24    1
    19    20    16   ar
    20    20    19   ar
    21    16    17   ar
    22    17    21    1
    23    17    18   ar
    24    24    23   ar
    25    24    25   ar
    26    19    18   ar
    27    19    23    1
    28    30    25    1
    29    18    22    1
    30    23    27   ar
    31    25    26   ar
    32    26    27   ar
    33    26    28    1
