@<TRIPOS>MOLECULE
mol_data/opt/b3lyp/geoms/mol2/138-5-4.out
 33 36 0 0 0
SMALL
GASTEIGER

@<TRIPOS>ATOM
      1 C           1.2960   -0.2796   -0.0008 C.ar    1  LIG1        0.0023
      2 C           0.9089    1.0532   -0.0003 C.ar    1  LIG1       -0.0437
      3 C          -0.5027    1.0841   -0.0005 C.ar    1  LIG1       -0.0333
      4 C          -0.9451   -0.2359   -0.0001 C.ar    1  LIG1        0.0875
      5 N           0.1706   -1.0474   -0.0002 N.ar    1  LIG1       -0.3582
      6 H           0.1119   -2.0549   -0.0001 H       1  LIG1        0.1654
      7 H           2.2791   -0.7263   -0.0011 H       1  LIG1        0.0807
      8 H           1.5760    1.9031   -0.0002 H       1  LIG1        0.0633
      9 H          -1.1453    1.9517   -0.0005 H       1  LIG1        0.0640
     10 C          -2.2677   -0.8045    0.0002 C.ar    1  LIG1        0.2194
     11 N          -2.3615   -2.1577    0.0004 N.ar    1  LIG1       -0.1237
     12 C          -4.6211   -1.8626    0.0009 C.ar    1  LIG1        0.2099
     13 N          -3.3355    0.0312    0.0003 N.ar    1  LIG1       -0.1237
     14 N          -3.5557   -2.6975    0.0008 N.ar    1  LIG1       -0.1246
     15 N          -4.5265   -0.5101    0.0006 N.ar    1  LIG1       -0.1246
     16 C          -5.9450   -2.4473    0.0013 C.ar    1  LIG1        0.0604
     17 C          -6.2799   -3.7851    0.0016 C.ar    1  LIG1       -0.0432
     18 C          -7.6750   -4.0044    0.0020 C.ar    1  LIG1       -0.0462
     19 C          -8.4244   -2.8410    0.0019 C.ar    1  LIG1        0.0200
     20 S          -7.3714   -1.4398    0.0014 S.2     1  LIG1       -0.0850
     21 H          -5.5314   -4.5675    0.0016 H       1  LIG1        0.0630
     22 H          -8.1131   -4.9947    0.0024 H       1  LIG1        0.0629
     23 C         -10.5034   -1.4341    0.0035 C.ar    1  LIG1       -0.0535
     24 C         -11.8900   -1.3120    0.0038 C.ar    1  LIG1       -0.0612
     25 C          -9.8854   -2.6988    0.0023 C.ar    1  LIG1       -0.0113
     26 C         -12.6982   -2.4497    0.0029 C.ar    1  LIG1       -0.0617
     27 H         -12.3394   -0.3235    0.0047 H       1  LIG1        0.0618
     28 C         -10.7158   -3.8367    0.0013 C.ar    1  LIG1       -0.0535
     29 C         -12.1015   -3.7122    0.0017 C.ar    1  LIG1       -0.0612
     30 H         -10.2758   -4.8281    0.0003 H       1  LIG1        0.0624
     31 H         -13.7797   -2.3544    0.0031 H       1  LIG1        0.0618
     32 H          -9.8953   -0.5343    0.0043 H       1  LIG1        0.0624
     33 H         -12.7182   -4.6062    0.0009 H       1  LIG1        0.0618
@<TRIPOS>BOND
     1     7     1    1
     2     1     2   ar
     3     1     5   ar
     4     9     3    1
     5     3     2   ar
     6     3     4   ar
     7     2     8    1
     8     5     4   ar
     9     5     6    1
    10     4    10    1
    11    10    13   ar
    12    10    11   ar
    13    13    15   ar
    14    30    28    1
    15    11    14   ar
    16    15    12   ar
    17    14    12   ar
    18    12    16    1
    19    33    29    1
    20    16    20   ar
    21    16    17   ar
    22    28    29   ar
    23    28    25   ar
    24    20    19   ar
    25    17    21    1
    26    17    18   ar
    27    29    26   ar
    28    19    18   ar
    29    19    25    1
    30    18    22    1
    31    25    23   ar
    32    26    31    1
    33    26    24   ar
    34    23    24   ar
    35    23    32    1
    36    24    27    1
