@<TRIPOS>MOLECULE
mol_data/opt/b3lyp/geoms/mol2/138.out
 16 17 0 0 0
SMALL
GASTEIGER

@<TRIPOS>ATOM
      1 C           1.1503   -0.3124    0.0000 C.ar    1  LIG1        0.0023
      2 C           0.7626    1.0210    0.0001 C.ar    1  LIG1       -0.0437
      3 C          -0.6483    1.0502    0.0001 C.ar    1  LIG1       -0.0333
      4 C          -1.0892   -0.2704    0.0001 C.ar    1  LIG1        0.0875
      5 N           0.0272   -1.0812    0.0000 N.ar    1  LIG1       -0.3582
      6 H          -0.0296   -2.0890   -0.0001 H       1  LIG1        0.1654
      7 H           2.1341   -0.7577    0.0000 H       1  LIG1        0.0807
      8 H           1.4287    1.8716    0.0002 H       1  LIG1        0.0633
      9 H          -1.2919    1.9170    0.0002 H       1  LIG1        0.0640
     10 C          -2.4109   -0.8396    0.0001 C.ar    1  LIG1        0.2193
     11 N          -3.4765    0.0011    0.0001 N.ar    1  LIG1       -0.1243
     12 C          -4.7448   -1.8856    0.0003 C.ar    1  LIG1        0.1605
     13 N          -2.4999   -2.1930    0.0001 N.ar    1  LIG1       -0.1243
     14 N          -4.6733   -0.5448    0.0002 N.ar    1  LIG1       -0.1338
     15 N          -3.7046   -2.7278    0.0002 N.ar    1  LIG1       -0.1338
     16 H          -5.7360   -2.3252    0.0003 H       1  LIG1        0.1085
@<TRIPOS>BOND
     1     6     5    1
     2     7     1    1
     3     5     1   ar
     4     5     4   ar
     5     1     2   ar
     6     4     3   ar
     7     4    10    1
     8    13    10   ar
     9    13    15   ar
    10     3     2   ar
    11     3     9    1
    12    10    11   ar
    13     2     8    1
    14    11    14   ar
    15    15    12   ar
    16    14    12   ar
    17    12    16    1
