@<TRIPOS>MOLECULE
mol_data/opt/b3lyp/geoms/mol2/13812-13.out
 31 34 0 0 0
SMALL
GASTEIGER

@<TRIPOS>ATOM
      1 C           1.2935   -0.4447    0.0001 C.ar    1  LIG1        0.0023
      2 C           0.9801    0.9070   -0.0003 C.ar    1  LIG1       -0.0437
      3 C          -0.4283    1.0154    0.0003 C.ar    1  LIG1       -0.0333
      4 C          -0.9424   -0.2779    0.0001 C.ar    1  LIG1        0.0875
      5 N           0.1268   -1.1493   -0.0000 N.ar    1  LIG1       -0.3582
      6 H           0.0117   -2.1518   -0.0002 H       1  LIG1        0.1654
      7 H           2.2505   -0.9451    0.0001 H       1  LIG1        0.0807
      8 H           1.6927    1.7191   -0.0006 H       1  LIG1        0.0633
      9 H          -1.0226    1.9168    0.0005 H       1  LIG1        0.0640
     10 C          -2.2949   -0.7745    0.0002 C.ar    1  LIG1        0.2194
     11 N          -3.3158    0.1165    0.0004 N.ar    1  LIG1       -0.1236
     12 C          -4.6991   -1.7000    0.0004 C.ar    1  LIG1        0.2381
     13 N          -2.4598   -2.1215    0.0000 N.ar    1  LIG1       -0.1236
     14 N          -4.5395   -0.3528    0.0005 N.ar    1  LIG1       -0.1220
     15 N          -3.6806   -2.5938    0.0002 N.ar    1  LIG1       -0.1220
     16 C          -6.0337   -2.2470    0.0006 C.ar    1  LIG1        0.1760
     17 C          -6.4931   -3.5430    0.0006 C.ar    1  LIG1       -0.0120
     18 C          -7.9078   -3.4705    0.0008 C.ar    1  LIG1       -0.0137
     19 C          -8.2332   -2.1275    0.0010 C.ar    1  LIG1        0.1519
     20 O          -7.0952   -1.3805    0.0008 O.2     1  LIG1       -0.4501
     21 H          -5.8721   -4.4259    0.0004 H       1  LIG1        0.0657
     22 H          -8.5968   -4.3031    0.0008 H       1  LIG1        0.0656
     23 C          -9.4749   -1.4062    0.0012 C.ar    1  LIG1        0.0821
     24 C          -9.7239   -0.0385    0.0013 C.ar    1  LIG1       -0.0334
     25 C         -11.1283    0.1409    0.0020 C.ar    1  LIG1       -0.0437
     26 C         -11.7078   -1.1135    0.0013 C.ar    1  LIG1        0.0023
     27 N         -10.7014   -2.0438    0.0013 N.ar    1  LIG1       -0.3583
     28 H         -10.8355   -3.0417    0.0011 H       1  LIG1        0.1654
     29 H         -12.7445   -1.4148    0.0013 H       1  LIG1        0.0807
     30 H          -8.9627    0.7276    0.0013 H       1  LIG1        0.0640
     31 H         -11.6597    1.0816    0.0025 H       1  LIG1        0.0633
@<TRIPOS>BOND
     1     8     2    1
     2     2     1   ar
     3     2     3   ar
     4     6     5    1
     5     5     4   ar
     6     5     1   ar
     7    13    10   ar
     8    13    15   ar
     9     4    10    1
    10     4     3   ar
    11     1     7    1
    12    10    11   ar
    13    15    12   ar
    14     3     9    1
    15    11    14   ar
    16    21    17    1
    17    12    14   ar
    18    12    16    1
    19    17    16   ar
    20    17    18   ar
    21    16    20   ar
    22    18    22    1
    23    18    19   ar
    24    20    19   ar
    25    19    23    1
    26    28    27    1
    27    23    24   ar
    28    23    27   ar
    29    30    24    1
    30    24    25   ar
    31    29    26    1
    32    26    27   ar
    33    26    25   ar
    34    25    31    1
