@<TRIPOS>MOLECULE
mol_data/opt/b3lyp/geoms/mol2/13812-13-.out
 31 34 0 0 0
SMALL
GASTEIGER

@<TRIPOS>ATOM
      1 C           1.2797   -0.4204    0.0004 C.ar    1  LIG1        0.0023
      2 C           0.9547    0.9285   -0.0003 C.ar    1  LIG1       -0.0437
      3 C          -0.4547    1.0247    0.0002 C.ar    1  LIG1       -0.0333
      4 C          -0.9576   -0.2730    0.0001 C.ar    1  LIG1        0.0875
      5 N           0.1192   -1.1350    0.0002 N.ar    1  LIG1       -0.3582
      6 H           0.0129   -2.1386    0.0002 H       1  LIG1        0.1654
      7 H           2.2409   -0.9125    0.0005 H       1  LIG1        0.0807
      8 H           1.6603    1.7467   -0.0006 H       1  LIG1        0.0633
      9 H          -1.0565    1.9210    0.0002 H       1  LIG1        0.0640
     10 C          -2.3057   -0.7815    0.0002 C.ar    1  LIG1        0.2194
     11 N          -3.3348    0.0996    0.0001 N.ar    1  LIG1       -0.1236
     12 C          -4.7013   -1.7308    0.0003 C.ar    1  LIG1        0.2381
     13 N          -2.4582   -2.1304    0.0002 N.ar    1  LIG1       -0.1236
     14 N          -4.5541   -0.3816    0.0002 N.ar    1  LIG1       -0.1220
     15 N          -3.6737   -2.6151    0.0003 N.ar    1  LIG1       -0.1220
     16 C          -6.0309   -2.2852    0.0005 C.ar    1  LIG1        0.1760
     17 C          -6.4956   -3.5800    0.0006 C.ar    1  LIG1       -0.0120
     18 C          -7.9103   -3.5087    0.0007 C.ar    1  LIG1       -0.0137
     19 C          -8.2354   -2.1677    0.0006 C.ar    1  LIG1        0.1519
     20 O          -7.0945   -1.4177    0.0005 O.2     1  LIG1       -0.4501
     21 H          -5.8757   -4.4638    0.0006 H       1  LIG1        0.0657
     22 H          -8.6077   -4.3330    0.0008 H       1  LIG1        0.0656
     23 C          -9.4701   -1.4355    0.0007 C.ar    1  LIG1        0.0821
     24 C         -10.7972   -1.8542    0.0011 C.ar    1  LIG1       -0.0334
     25 C         -11.6083   -0.6943    0.0005 C.ar    1  LIG1       -0.0437
     26 C         -10.7653    0.4029    0.0008 C.ar    1  LIG1        0.0023
     27 N          -9.4769   -0.0554    0.0004 N.ar    1  LIG1       -0.3583
     28 H          -8.6394    0.5065    0.0003 H       1  LIG1        0.1654
     29 H         -10.9822    1.4604    0.0008 H       1  LIG1        0.0807
     30 H         -11.1318   -2.8817    0.0014 H       1  LIG1        0.0640
     31 H         -12.6882   -0.6610    0.0004 H       1  LIG1        0.0633
@<TRIPOS>BOND
     1     8     2    1
     2     2     3   ar
     3     2     1   ar
     4     4    10    1
     5     4     3   ar
     6     4     5   ar
     7    11    10   ar
     8    11    14   ar
     9    10    13   ar
    10     3     9    1
    11    13    15   ar
    12     6     5    1
    13     5     1   ar
    14    14    12   ar
    15    15    12   ar
    16    28    27    1
    17    12    16    1
    18     1     7    1
    19    31    25    1
    20    27    23   ar
    21    27    26   ar
    22    16    20   ar
    23    16    17   ar
    24    20    19   ar
    25    25    26   ar
    26    25    24   ar
    27    17    21    1
    28    17    18   ar
    29    19    23    1
    30    19    18   ar
    31    23    24   ar
    32    18    22    1
    33    29    26    1
    34    24    30    1
