@<TRIPOS>MOLECULE
mol_data/opt/b3lyp/geoms/mol2/1381313-.out
 32 35 0 0 0
SMALL
GASTEIGER

@<TRIPOS>ATOM
      1 C           1.2231   -0.3210   -0.0002 C.ar    1  LIG1        0.0023
      2 C           0.8650    1.0188   -0.0007 C.ar    1  LIG1       -0.0437
      3 C          -0.5470    1.0803   -0.0000 C.ar    1  LIG1       -0.0333
      4 C          -1.0178   -0.2289   -0.0000 C.ar    1  LIG1        0.0875
      5 N           0.0796   -1.0641   -0.0002 N.ar    1  LIG1       -0.3582
      6 H          -0.0016   -2.0698   -0.0002 H       1  LIG1        0.1654
      7 H           2.1960   -0.7897   -0.0002 H       1  LIG1        0.0807
      8 H           1.5500    1.8544   -0.0010 H       1  LIG1        0.0633
      9 H          -1.1706    1.9616    0.0002 H       1  LIG1        0.0640
     10 C          -2.3544   -0.7693    0.0002 C.ar    1  LIG1        0.2194
     11 N          -3.4025    0.0976    0.0005 N.ar    1  LIG1       -0.1237
     12 C          -4.7389   -1.7555    0.0008 C.ar    1  LIG1        0.2194
     13 N          -2.4827   -2.1154    0.0002 N.ar    1  LIG1       -0.1237
     14 N          -4.6089   -0.4007    0.0008 N.ar    1  LIG1       -0.1237
     15 N          -3.6957   -2.6190    0.0006 N.ar    1  LIG1       -0.1237
     16 C          -6.0626   -2.3154    0.0012 C.ar    1  LIG1        0.0880
     17 C          -7.3211   -1.7194    0.0014 C.ar    1  LIG1       -0.0326
     18 C          -8.2750   -2.7531    0.0017 C.ar    1  LIG1       -0.0343
     19 C          -7.5898   -3.9757    0.0016 C.ar    1  LIG1        0.0634
     20 N          -6.2530   -3.6818    0.0013 N.ar    1  LIG1       -0.3505
     21 H          -5.4872   -4.3387    0.0009 H       1  LIG1        0.1660
     22 H          -7.5016   -0.6550    0.0014 H       1  LIG1        0.0640
     23 H          -9.3489   -2.6276    0.0021 H       1  LIG1        0.0639
     24 C          -8.0773   -5.3340    0.0018 C.ar    1  LIG1        0.0629
     25 C          -7.4073   -6.5530    0.0028 C.ar    1  LIG1       -0.0350
     26 C          -8.3803   -7.5843    0.0022 C.ar    1  LIG1       -0.0438
     27 C          -9.6213   -6.9807    0.0016 C.ar    1  LIG1        0.0022
     28 N          -9.4277   -5.6230    0.0010 N.ar    1  LIG1       -0.3595
     29 H         -10.1608   -4.9328    0.0002 H       1  LIG1        0.1654
     30 H         -10.6149   -7.4026    0.0012 H       1  LIG1        0.0807
     31 H          -6.3343   -6.6866    0.0037 H       1  LIG1        0.0639
     32 H          -8.1938   -8.6485    0.0026 H       1  LIG1        0.0633
@<TRIPOS>BOND
     1     8     2    1
     2     2     1   ar
     3     2     3   ar
     4     7     1    1
     5     6     5    1
     6     1     5   ar
     7     5     4   ar
     8     3     4   ar
     9     3     9    1
    10     4    10    1
    11    29    28    1
    12    10    13   ar
    13    10    11   ar
    14    13    15   ar
    15    11    14   ar
    16    15    12   ar
    17    14    12   ar
    18    12    16    1
    19    21    20    1
    20    28    27   ar
    21    28    24   ar
    22    16    20   ar
    23    16    17   ar
    24    30    27    1
    25    20    19   ar
    26    17    22    1
    27    17    18   ar
    28    19    18   ar
    29    19    24    1
    30    27    26   ar
    31    18    23    1
    32    24    25   ar
    33    26    32    1
    34    26    25   ar
    35    25    31    1
