@<TRIPOS>MOLECULE
mol_data/opt/b3lyp/geoms/mol2/13812.out
 23 25 0 0 0
SMALL
GASTEIGER

@<TRIPOS>ATOM
      1 C           1.1787   -0.2664    0.0001 C.ar    1  LIG1        0.0023
      2 C           0.7724    1.0608   -0.0002 C.ar    1  LIG1       -0.0437
      3 C          -0.6396    1.0711    0.0002 C.ar    1  LIG1       -0.0333
      4 C          -1.0625   -0.2552    0.0001 C.ar    1  LIG1        0.0875
      5 N           0.0647   -1.0503    0.0000 N.ar    1  LIG1       -0.3582
      6 H           0.0196   -2.0587   -0.0001 H       1  LIG1        0.1654
      7 H           2.1683   -0.6987    0.0001 H       1  LIG1        0.0807
      8 H           1.4271    1.9202   -0.0003 H       1  LIG1        0.0633
      9 H          -1.2949    1.9293    0.0004 H       1  LIG1        0.0640
     10 C          -2.3763   -0.8444    0.0002 C.ar    1  LIG1        0.2194
     11 N          -3.4569   -0.0214    0.0003 N.ar    1  LIG1       -0.1236
     12 C          -4.7095   -1.9326    0.0004 C.ar    1  LIG1        0.2381
     13 N          -2.4504   -2.1961    0.0001 N.ar    1  LIG1       -0.1236
     14 N          -4.6397   -0.5774    0.0004 N.ar    1  LIG1       -0.1220
     15 N          -3.6397   -2.7554    0.0002 N.ar    1  LIG1       -0.1220
     16 C          -6.0406   -2.5032    0.0005 C.ar    1  LIG1        0.1751
     17 C          -7.2829   -1.9183    0.0007 C.ar    1  LIG1       -0.0126
     18 C          -8.2266   -2.9856    0.0008 C.ar    1  LIG1       -0.0232
     19 C          -7.4937   -4.1380    0.0006 C.ar    1  LIG1        0.0927
     20 O          -6.1649   -3.8649    0.0004 O.2     1  LIG1       -0.4597
     21 H          -7.7571   -5.1843    0.0007 H       1  LIG1        0.1029
     22 H          -7.4752   -0.8563    0.0007 H       1  LIG1        0.0656
     23 H          -9.3040   -2.9091    0.0009 H       1  LIG1        0.0649
@<TRIPOS>BOND
     1     8     2    1
     2     2     1   ar
     3     2     3   ar
     4     6     5    1
     5     5     1   ar
     6     5     4   ar
     7    13    10   ar
     8    13    15   ar
     9     7     1    1
    10     4    10    1
    11     4     3   ar
    12    10    11   ar
    13    15    12   ar
    14     3     9    1
    15    11    14   ar
    16    12    14   ar
    17    12    16    1
    18    20    16   ar
    19    20    19   ar
    20    16    17   ar
    21    19    21    1
    22    19    18   ar
    23    17    22    1
    24    17    18   ar
    25    18    23    1
