@<TRIPOS>MOLECULE
mol_data/opt/b3lyp/geoms/mol2/1384.out
 26 28 0 0 0
SMALL
GASTEIGER

@<TRIPOS>ATOM
      1 C           1.2143   -0.2894   -0.0004 C.ar    1  LIG1        0.0023
      2 C           0.8332    1.0453   -0.0006 C.ar    1  LIG1       -0.0437
      3 C          -0.5782    1.0823    0.0001 C.ar    1  LIG1       -0.0333
      4 C          -1.0260   -0.2356    0.0001 C.ar    1  LIG1        0.0875
      5 N           0.0859   -1.0521   -0.0002 N.ar    1  LIG1       -0.3582
      6 H           0.0221   -2.0594   -0.0003 H       1  LIG1        0.1654
      7 H           2.1956   -0.7402   -0.0005 H       1  LIG1        0.0807
      8 H           1.5041    1.8921   -0.0010 H       1  LIG1        0.0633
      9 H          -1.2172    1.9526    0.0003 H       1  LIG1        0.0640
     10 C          -2.3512   -0.7991    0.0004 C.ar    1  LIG1        0.2194
     11 N          -3.4153    0.0409    0.0007 N.ar    1  LIG1       -0.1237
     12 C          -4.7162   -1.8464    0.0011 C.ar    1  LIG1        0.2034
     13 N          -2.4518   -2.1496    0.0004 N.ar    1  LIG1       -0.1237
     14 N          -4.6094   -0.4964    0.0011 N.ar    1  LIG1       -0.1252
     15 N          -3.6532   -2.6780    0.0008 N.ar    1  LIG1       -0.1252
     16 C          -7.2035   -1.6104    0.0021 C.ar    1  LIG1       -0.0509
     17 C          -8.4775   -2.1718    0.0025 C.ar    1  LIG1       -0.0611
     18 C          -6.0679   -2.4375    0.0016 C.ar    1  LIG1        0.0226
     19 C          -8.6356   -3.5595    0.0024 C.ar    1  LIG1       -0.0617
     20 H          -9.3494   -1.5246    0.0029 H       1  LIG1        0.0618
     21 C          -6.2325   -3.8328    0.0015 C.ar    1  LIG1       -0.0509
     22 C          -7.5098   -4.3864    0.0019 C.ar    1  LIG1       -0.0611
     23 H          -5.3541   -4.4676    0.0011 H       1  LIG1        0.0625
     24 H          -9.6308   -3.9946    0.0028 H       1  LIG1        0.0618
     25 H          -7.0718   -0.5347    0.0021 H       1  LIG1        0.0625
     26 H          -7.6274   -5.4660    0.0019 H       1  LIG1        0.0618
@<TRIPOS>BOND
     1     8     2    1
     2     2     1   ar
     3     2     3   ar
     4     7     1    1
     5     1     5   ar
     6     6     5    1
     7     5     4   ar
     8     3     4   ar
     9     3     9    1
    10     4    10    1
    11    13    10   ar
    12    13    15   ar
    13    10    11   ar
    14    11    14   ar
    15    15    12   ar
    16    14    12   ar
    17    23    21    1
    18    12    18    1
    19    21    18   ar
    20    21    22   ar
    21    18    16   ar
    22    26    22    1
    23    22    19   ar
    24    16    25    1
    25    16    17   ar
    26    19    17   ar
    27    19    24    1
    28    17    20    1
