@<TRIPOS>MOLECULE
mol_data/opt/b3lyp/geoms/mol2/1384-5-.out
 33 36 0 0 0
SMALL
GASTEIGER

@<TRIPOS>ATOM
      1 C           1.2873   -0.2870    0.0006 C.ar    1  LIG1        0.0023
      2 C           0.9181    1.0510    0.0016 C.ar    1  LIG1       -0.0437
      3 C          -0.4930    1.1005    0.0008 C.ar    1  LIG1       -0.0333
      4 C          -0.9526   -0.2135    0.0004 C.ar    1  LIG1        0.0875
      5 N           0.1521   -1.0397    0.0004 N.ar    1  LIG1       -0.3582
      6 H           0.0795   -2.0463   -0.0000 H       1  LIG1        0.1654
      7 H           2.2646   -0.7465    0.0005 H       1  LIG1        0.0807
      8 H           1.5964    1.8919    0.0024 H       1  LIG1        0.0633
      9 H          -1.1242    1.9764    0.0009 H       1  LIG1        0.0640
     10 C          -2.2824   -0.7654   -0.0000 C.ar    1  LIG1        0.2194
     11 N          -3.3396    0.0840    0.0000 N.ar    1  LIG1       -0.1237
     12 C          -4.6568   -1.7922   -0.0008 C.ar    1  LIG1        0.2034
     13 N          -2.3949   -2.1151   -0.0004 N.ar    1  LIG1       -0.1237
     14 N          -4.5381   -0.4421   -0.0004 N.ar    1  LIG1       -0.1252
     15 N          -3.6002   -2.6336   -0.0009 N.ar    1  LIG1       -0.1252
     16 C          -6.1956   -3.7629   -0.0017 C.ar    1  LIG1       -0.0503
     17 C          -7.4714   -4.3055   -0.0021 C.ar    1  LIG1       -0.0529
     18 C          -6.0091   -2.3697   -0.0012 C.ar    1  LIG1        0.0227
     19 C          -8.6180   -3.4847   -0.0019 C.ar    1  LIG1       -0.0113
     20 H          -7.5794   -5.3846   -0.0026 H       1  LIG1        0.0624
     21 C          -7.1435   -1.5416   -0.0010 C.ar    1  LIG1       -0.0503
     22 C          -8.4178   -2.0905   -0.0014 C.ar    1  LIG1       -0.0529
     23 H          -7.0120   -0.4660   -0.0006 H       1  LIG1        0.0625
     24 H          -5.3272   -4.4114   -0.0019 H       1  LIG1        0.0625
     25 H          -9.2731   -1.4213   -0.0012 H       1  LIG1        0.0624
     26 C          -9.9600   -4.0728   -0.0023 C.ar    1  LIG1        0.0193
     27 C         -10.3200   -5.4044   -0.0021 C.ar    1  LIG1       -0.0469
     28 C         -11.7254   -5.6224   -0.0025 C.ar    1  LIG1       -0.0541
     29 C         -12.4419   -4.4572   -0.0031 C.ar    1  LIG1       -0.0237
     30 S         -11.4043   -3.0712   -0.0031 S.2     1  LIG1       -0.0967
     31 H         -13.5149   -4.3264   -0.0035 H       1  LIG1        0.0693
     32 H          -9.5993   -6.2132   -0.0015 H       1  LIG1        0.0629
     33 H         -12.1826   -6.6050   -0.0024 H       1  LIG1        0.0623
@<TRIPOS>BOND
     1    31    29    1
     2    30    29   ar
     3    30    26   ar
     4    29    28   ar
     5    20    17    1
     6    28    33    1
     7    28    27   ar
     8    26    27   ar
     9    26    19    1
    10    17    19   ar
    11    17    16   ar
    12    27    32    1
    13    19    22   ar
    14    24    16    1
    15    16    18   ar
    16    22    25    1
    17    22    21   ar
    18    18    21   ar
    19    18    12    1
    20    21    23    1
    21    15    12   ar
    22    15    13   ar
    23    12    14   ar
    24    13    10   ar
    25    14    11   ar
    26    10    11   ar
    27    10     4    1
    28     6     5    1
    29     5     4   ar
    30     5     1   ar
    31     4     3   ar
    32     7     1    1
    33     1     2   ar
    34     3     9    1
    35     3     2   ar
    36     2     8    1
