@<TRIPOS>MOLECULE
mol_data/opt/b3lyp/geoms/mol2/1385-13-.out
 31 34 0 0 0
SMALL
GASTEIGER

@<TRIPOS>ATOM
      1 C           1.2769   -0.2924   -0.0001 C.ar    1  LIG1        0.0023
      2 C           0.8923    1.0407    0.0001 C.ar    1  LIG1       -0.0437
      3 C          -0.5198    1.0742   -0.0002 C.ar    1  LIG1       -0.0333
      4 C          -0.9646   -0.2446    0.0001 C.ar    1  LIG1        0.0875
      5 N           0.1494   -1.0580    0.0003 N.ar    1  LIG1       -0.3582
      6 H           0.0882   -2.0653    0.0004 H       1  LIG1        0.1654
      7 H           2.2590   -0.7413   -0.0001 H       1  LIG1        0.0807
      8 H           1.5608    1.8894    0.0001 H       1  LIG1        0.0633
      9 H          -1.1606    1.9431   -0.0004 H       1  LIG1        0.0640
     10 C          -2.2888   -0.8118    0.0002 C.ar    1  LIG1        0.2194
     11 N          -3.3557    0.0244    0.0001 N.ar    1  LIG1       -0.1237
     12 C          -4.6438   -1.8691    0.0005 C.ar    1  LIG1        0.2099
     13 N          -2.3839   -2.1651    0.0005 N.ar    1  LIG1       -0.1237
     14 N          -4.5472   -0.5153    0.0002 N.ar    1  LIG1       -0.1246
     15 N          -3.5773   -2.7054    0.0006 N.ar    1  LIG1       -0.1246
     16 C          -5.9651   -2.4484    0.0007 C.ar    1  LIG1        0.0604
     17 C          -6.3178   -3.7828    0.0010 C.ar    1  LIG1       -0.0432
     18 C          -7.7121   -3.9954    0.0012 C.ar    1  LIG1       -0.0448
     19 C          -8.4495   -2.8216    0.0009 C.ar    1  LIG1        0.0361
     20 S          -7.3885   -1.4260    0.0005 S.2     1  LIG1       -0.0836
     21 H          -5.5744   -4.5705    0.0012 H       1  LIG1        0.0630
     22 H          -8.1700   -4.9772    0.0014 H       1  LIG1        0.0630
     23 C          -9.8849   -2.6825    0.0010 C.ar    1  LIG1        0.0531
     24 C         -10.8837   -3.6544    0.0009 C.ar    1  LIG1       -0.0359
     25 C         -12.1347   -2.9943    0.0012 C.ar    1  LIG1       -0.0438
     26 C         -11.8845   -1.6350    0.0009 C.ar    1  LIG1        0.0022
     27 N         -10.5268   -1.4571    0.0010 N.ar    1  LIG1       -0.3603
     28 H         -10.0639   -0.5617    0.0012 H       1  LIG1        0.1653
     29 H         -12.5574   -0.7910    0.0008 H       1  LIG1        0.0807
     30 H         -10.7167   -4.7219    0.0009 H       1  LIG1        0.0639
     31 H         -13.1107   -3.4574    0.0014 H       1  LIG1        0.0633
@<TRIPOS>BOND
     1     9     3    1
     2     3     2   ar
     3     3     4   ar
     4     7     1    1
     5     1     2   ar
     6     1     5   ar
     7    11    14   ar
     8    11    10   ar
     9     2     8    1
    10     4    10    1
    11     4     5   ar
    12    14    12   ar
    13    10    13   ar
    14     5     6    1
    15    20    16   ar
    16    20    19   ar
    17    13    15   ar
    18    12    15   ar
    19    12    16    1
    20    16    17   ar
    21    29    26    1
    22    26    27   ar
    23    26    25   ar
    24    30    24    1
    25    19    23    1
    26    19    18   ar
    27    24    23   ar
    28    24    25   ar
    29    23    27   ar
    30    27    28    1
    31    17    18   ar
    32    17    21    1
    33    18    22    1
    34    25    31    1
