@<TRIPOS>MOLECULE
mol_data/opt/b3lyp/geoms/mol2/1385-.out
 23 25 0 0 0
SMALL
GASTEIGER

@<TRIPOS>ATOM
      1 C           1.1965   -0.2929    0.0000 C.ar    1  LIG1        0.0023
      2 C           0.8082    1.0397   -0.0003 C.ar    1  LIG1       -0.0437
      3 C          -0.6035    1.0693    0.0001 C.ar    1  LIG1       -0.0333
      4 C          -1.0443   -0.2512    0.0001 C.ar    1  LIG1        0.0875
      5 N           0.0720   -1.0616    0.0000 N.ar    1  LIG1       -0.3582
      6 H           0.0140   -2.0692    0.0000 H       1  LIG1        0.1654
      7 H           2.1801   -0.7385    0.0000 H       1  LIG1        0.0807
      8 H           1.4744    1.8902   -0.0006 H       1  LIG1        0.0633
      9 H          -1.2471    1.9362    0.0002 H       1  LIG1        0.0640
     10 C          -2.3664   -0.8216    0.0003 C.ar    1  LIG1        0.2194
     11 N          -3.4352    0.0128    0.0003 N.ar    1  LIG1       -0.1237
     12 C          -4.7178   -1.8827    0.0006 C.ar    1  LIG1        0.2099
     13 N          -2.4582   -2.1744    0.0003 N.ar    1  LIG1       -0.1237
     14 N          -4.6253   -0.5310    0.0005 N.ar    1  LIG1       -0.1246
     15 N          -3.6526   -2.7157    0.0005 N.ar    1  LIG1       -0.1246
     16 C          -6.0440   -2.4697    0.0009 C.ar    1  LIG1        0.0598
     17 C          -6.3754   -3.8078    0.0010 C.ar    1  LIG1       -0.0438
     18 C          -7.7779   -4.0283    0.0012 C.ar    1  LIG1       -0.0540
     19 C          -8.4940   -2.8583    0.0012 C.ar    1  LIG1       -0.0236
     20 S          -7.4729   -1.4617    0.0010 S.2     1  LIG1       -0.0934
     21 H          -9.5686   -2.7363    0.0013 H       1  LIG1        0.0693
     22 H          -5.6237   -4.5872    0.0010 H       1  LIG1        0.0630
     23 H          -8.2363   -5.0102    0.0013 H       1  LIG1        0.0623
@<TRIPOS>BOND
     1     8     2    1
     2     2     1   ar
     3     2     3   ar
     4     1     7    1
     5     1     5   ar
     6     6     5    1
     7     5     4   ar
     8     3     4   ar
     9     3     9    1
    10     4    10    1
    11    10    13   ar
    12    10    11   ar
    13    13    15   ar
    14    11    14   ar
    15    15    12   ar
    16    14    12   ar
    17    12    16    1
    18    16    20   ar
    19    16    17   ar
    20    20    19   ar
    21    22    17    1
    22    17    18   ar
    23    19    18   ar
    24    19    21    1
    25    18    23    1
