@<TRIPOS>MOLECULE
mol_data/opt/b3lyp/geoms/mol2/1388-12-.out
 29 32 0 0 0
SMALL
GASTEIGER

@<TRIPOS>ATOM
      1 C           1.2104   -0.3638   -0.0003 C.ar    1  LIG1        0.0023
      2 C           0.8573    0.9807    0.0001 C.ar    1  LIG1       -0.0437
      3 C          -0.5504    1.0472    0.0000 C.ar    1  LIG1       -0.0333
      4 C          -1.0264   -0.2634    0.0001 C.ar    1  LIG1        0.0875
      5 N           0.0694   -1.1032   -0.0000 N.ar    1  LIG1       -0.3582
      6 H          -0.0140   -2.1093   -0.0000 H       1  LIG1        0.1654
      7 H           2.1829   -0.8335   -0.0004 H       1  LIG1        0.0807
      8 H           1.5463    1.8125    0.0002 H       1  LIG1        0.0633
      9 H          -1.1720    1.9300    0.0001 H       1  LIG1        0.0640
     10 C          -2.3588   -0.7953    0.0002 C.ar    1  LIG1        0.2194
     11 N          -3.4056    0.0704    0.0003 N.ar    1  LIG1       -0.1236
     12 C          -4.7321   -1.7849    0.0005 C.ar    1  LIG1        0.2435
     13 N          -2.4878   -2.1463    0.0002 N.ar    1  LIG1       -0.1236
     14 N          -4.6113   -0.4393    0.0004 N.ar    1  LIG1       -0.1218
     15 N          -3.6992   -2.6489    0.0003 N.ar    1  LIG1       -0.1218
     16 C          -6.1023   -2.3513    0.0007 C.ar    1  LIG1        0.2435
     17 N          -6.2213   -3.6963    0.0008 N.ar    1  LIG1       -0.1217
     18 C          -8.4732   -3.3331    0.0010 C.ar    1  LIG1        0.2381
     19 N          -7.1363   -1.4888    0.0007 N.ar    1  LIG1       -0.1217
     20 N          -7.4309   -4.1994    0.0010 N.ar    1  LIG1       -0.1219
     21 N          -8.3534   -1.9863    0.0009 N.ar    1  LIG1       -0.1219
     22 C          -9.7923   -3.9215    0.0011 C.ar    1  LIG1        0.1751
     23 C         -10.2044   -5.2330    0.0013 C.ar    1  LIG1       -0.0126
     24 C         -11.6265   -5.2039    0.0014 C.ar    1  LIG1       -0.0232
     25 C         -11.9764   -3.8819    0.0014 C.ar    1  LIG1        0.0927
     26 O         -10.8782   -3.0903    0.0011 O.2     1  LIG1       -0.4597
     27 H         -12.9249   -3.3676    0.0014 H       1  LIG1        0.1029
     28 H          -9.5529   -6.0935    0.0013 H       1  LIG1        0.0656
     29 H         -12.3009   -6.0473    0.0015 H       1  LIG1        0.0649
@<TRIPOS>BOND
     1     7     1    1
     2     1     5   ar
     3     1     2   ar
     4     6     5    1
     5     5     4   ar
     6     3     9    1
     7     3     4   ar
     8     3     2   ar
     9     4    10    1
    10     2     8    1
    11    10    13   ar
    12    10    11   ar
    13    13    15   ar
    14    11    14   ar
    15    15    12   ar
    16    14    12   ar
    17    12    16    1
    18    16    19   ar
    19    16    17   ar
    20    19    21   ar
    21    17    20   ar
    22    21    18   ar
    23    20    18   ar
    24    18    22    1
    25    22    26   ar
    26    22    23   ar
    27    26    25   ar
    28    23    28    1
    29    23    24   ar
    30    25    24   ar
    31    25    27    1
    32    24    29    1
