@<TRIPOS>MOLECULE
mol_data/opt/b3lyp/geoms/mol2/1388.out
 22 24 0 0 0
SMALL
GASTEIGER

@<TRIPOS>ATOM
      1 C           1.1778   -0.3151   -0.0002 C.ar    1  LIG1        0.0023
      2 C           0.7996    1.0234    0.0002 C.ar    1  LIG1       -0.0437
      3 C          -0.6081    1.0635    0.0000 C.ar    1  LIG1       -0.0333
      4 C          -1.0599   -0.2565    0.0001 C.ar    1  LIG1        0.0875
      5 N           0.0519   -1.0758    0.0000 N.ar    1  LIG1       -0.3582
      6 H          -0.0114   -2.0835   -0.0000 H       1  LIG1        0.1654
      7 H           2.1591   -0.7660   -0.0003 H       1  LIG1        0.0807
      8 H           1.4733    1.8677    0.0004 H       1  LIG1        0.0633
      9 H          -1.2461    1.9345    0.0000 H       1  LIG1        0.0640
     10 C          -2.3809   -0.8112    0.0002 C.ar    1  LIG1        0.2194
     11 N          -3.4435    0.0364    0.0002 N.ar    1  LIG1       -0.1236
     12 C          -4.7341   -1.8421    0.0004 C.ar    1  LIG1        0.2435
     13 N          -2.4858   -2.1656    0.0002 N.ar    1  LIG1       -0.1236
     14 N          -4.6392   -0.4957    0.0003 N.ar    1  LIG1       -0.1218
     15 N          -3.6880   -2.6883    0.0003 N.ar    1  LIG1       -0.1218
     16 C          -6.0974   -2.4346    0.0005 C.ar    1  LIG1        0.2434
     17 N          -7.1424   -1.5844    0.0005 N.ar    1  LIG1       -0.1224
     18 C          -8.4330   -3.4510    0.0007 C.ar    1  LIG1        0.1605
     19 N          -6.1877   -3.7789    0.0007 N.ar    1  LIG1       -0.1224
     20 N          -8.3522   -2.1144    0.0007 N.ar    1  LIG1       -0.1338
     21 N          -7.3998   -4.3031    0.0008 N.ar    1  LIG1       -0.1338
     22 H          -9.4281   -3.8840    0.0010 H       1  LIG1        0.1085
@<TRIPOS>BOND
     1     7     1    1
     2     1     5   ar
     3     1     2   ar
     4     6     5    1
     5     5     4   ar
     6     3     9    1
     7     3     4   ar
     8     3     2   ar
     9     4    10    1
    10    10    13   ar
    11    10    11   ar
    12    13    15   ar
    13     2     8    1
    14    11    14   ar
    15    15    12   ar
    16    14    12   ar
    17    12    16    1
    18    17    16   ar
    19    17    20   ar
    20    16    19   ar
    21    20    18   ar
    22    19    21   ar
    23    18    21   ar
    24    18    22    1
