@<TRIPOS>MOLECULE
mol_data/opt/b3lyp/geoms/mol2/13aa13aa13aa13aa.out
 34 37 0 0 0
SMALL
GASTEIGER

@<TRIPOS>ATOM
      1 C           0.9836    0.3296   -1.0898 C.ar    1  LIG1        0.0022
      2 C           0.9230    1.1267    0.0317 C.ar    1  LIG1       -0.0438
      3 C          -0.3151    0.8616    0.6794 C.ar    1  LIG1       -0.0350
      4 C          -0.9891   -0.0934   -0.0643 C.ar    1  LIG1        0.0629
      5 N          -0.1695   -0.4219   -1.1338 N.ar    1  LIG1       -0.3595
      6 H          -0.4751   -0.9507   -1.9355 H       1  LIG1        0.1654
      7 H           1.7443    0.2284   -1.8493 H       1  LIG1        0.0807
      8 H           1.6915    1.8111    0.3622 H       1  LIG1        0.0633
      9 H          -0.6679    1.2860    1.6084 H       1  LIG1        0.0639
     10 C          -2.2834   -0.7180    0.1338 C.ar    1  LIG1        0.0633
     11 C          -3.4843   -0.2033    0.5991 C.ar    1  LIG1       -0.0343
     12 C          -4.4412   -1.2485    0.5941 C.ar    1  LIG1       -0.0343
     13 C          -3.8226   -2.3959    0.1193 C.ar    1  LIG1        0.0634
     14 N          -2.5080   -2.0541   -0.1533 N.ar    1  LIG1       -0.3519
     15 H          -1.8136   -2.6827   -0.5248 H       1  LIG1        0.1660
     16 H          -3.6444    0.8243    0.8921 H       1  LIG1        0.0639
     17 H          -5.4704   -1.1901    0.9179 H       1  LIG1        0.0639
     18 C          -4.3341   -3.7366   -0.0881 C.ar    1  LIG1        0.0634
     19 C          -5.5665   -4.1806   -0.5449 C.ar    1  LIG1       -0.0343
     20 C          -5.5453   -5.5975   -0.5595 C.ar    1  LIG1       -0.0343
     21 C          -4.2979   -6.0131   -0.1181 C.ar    1  LIG1        0.0633
     22 N          -3.5737   -4.8669    0.1643 N.ar    1  LIG1       -0.3519
     23 H          -2.6306   -4.8604    0.5190 H       1  LIG1        0.1660
     24 H          -6.3802   -3.5388   -0.8506 H       1  LIG1        0.0639
     25 H          -6.3524   -6.2576   -0.8430 H       1  LIG1        0.0639
     26 C          -3.7416   -7.3409    0.0619 C.ar    1  LIG1        0.0629
     27 C          -3.8848   -8.4976   -0.6870 C.ar    1  LIG1       -0.0350
     28 C          -3.1241   -9.5221   -0.0590 C.ar    1  LIG1       -0.0438
     29 C          -2.5300   -8.9735    1.0559 C.ar    1  LIG1        0.0022
     30 N          -2.8922   -7.6463    1.1148 N.ar    1  LIG1       -0.3595
     31 H          -2.7556   -7.0531    1.9181 H       1  LIG1        0.1654
     32 H          -1.8811   -9.4079    1.8015 H       1  LIG1        0.0807
     33 H          -4.4464   -8.5747   -1.6069 H       1  LIG1        0.0639
     34 H          -3.0098  -10.5420   -0.3981 H       1  LIG1        0.0633
@<TRIPOS>BOND
     1     6     5    1
     2     7     1    1
     3    33    27    1
     4     5     1   ar
     5     5     4   ar
     6     1     2   ar
     7    24    19    1
     8    25    20    1
     9    27    28   ar
    10    27    26   ar
    11    20    19   ar
    12    20    21   ar
    13    19    18   ar
    14    15    14    1
    15    34    28    1
    16    14    13   ar
    17    14    10   ar
    18    21    26    1
    19    21    22   ar
    20    18    13    1
    21    18    22   ar
    22     4    10    1
    23     4     3   ar
    24    28    29   ar
    25     2     8    1
    26     2     3   ar
    27    26    30   ar
    28    13    12   ar
    29    10    11   ar
    30    22    23    1
    31    12    11   ar
    32    12    17    1
    33    11    16    1
    34     3     9    1
    35    29    30   ar
    36    29    32    1
    37    30    31    1
