@<TRIPOS>MOLECULE
mol_data/opt/b3lyp/geoms/mol2/13aa13aa-.out
 18 19 0 0 0
SMALL
GASTEIGER

@<TRIPOS>ATOM
      1 C           1.2030   -0.2812   -0.0002 C.ar    1  LIG1        0.0022
      2 C           0.7929    1.0341   -0.0001 C.ar    1  LIG1       -0.0438
      3 C          -0.6282    1.0360    0.0001 C.ar    1  LIG1       -0.0350
      4 C          -1.0579   -0.2855    0.0002 C.ar    1  LIG1        0.0629
      5 N           0.0771   -1.0699    0.0001 N.ar    1  LIG1       -0.3595
      6 H           0.0731   -2.0766   -0.0002 H       1  LIG1        0.1654
      7 H           2.1901   -0.7180   -0.0004 H       1  LIG1        0.0807
      8 H           1.4396    1.8999   -0.0001 H       1  LIG1        0.0633
      9 H          -1.2638    1.9112    0.0003 H       1  LIG1        0.0639
     10 C          -2.3841   -0.8668    0.0005 C.ar    1  LIG1        0.0629
     11 C          -2.8137   -2.1882    0.0005 C.ar    1  LIG1       -0.0350
     12 C          -4.2348   -2.1863    0.0007 C.ar    1  LIG1       -0.0438
     13 C          -4.6449   -0.8710    0.0008 C.ar    1  LIG1        0.0022
     14 N          -3.5190   -0.0824    0.0006 N.ar    1  LIG1       -0.3595
     15 H          -3.5150    0.9243    0.0003 H       1  LIG1        0.1654
     16 H          -5.6321   -0.4343    0.0010 H       1  LIG1        0.0807
     17 H          -2.1782   -3.0634    0.0005 H       1  LIG1        0.0639
     18 H          -4.8815   -3.0522    0.0008 H       1  LIG1        0.0633
@<TRIPOS>BOND
     1     7     1    1
     2     6     5    1
     3     1     2   ar
     4     1     5   ar
     5     8     2    1
     6     2     3   ar
     7     5     4   ar
     8     3     4   ar
     9     3     9    1
    10     4    10    1
    11    15    14    1
    12    10    11   ar
    13    10    14   ar
    14    17    11    1
    15    11    12   ar
    16    14    13   ar
    17    12    13   ar
    18    12    18    1
    19    13    16    1
