@<TRIPOS>MOLECULE
mol_data/opt/b3lyp/geoms/mol2/13aa13aa-13aa13aa-.out
 34 37 0 0 0
SMALL
GASTEIGER

@<TRIPOS>ATOM
      1 C           1.3575   -0.2827   -0.0019 C.ar    1  LIG1        0.0022
      2 C           0.9472    1.0328   -0.0017 C.ar    1  LIG1       -0.0438
      3 C          -0.4734    1.0350   -0.0006 C.ar    1  LIG1       -0.0350
      4 C          -0.9033   -0.2873   -0.0002 C.ar    1  LIG1        0.0629
      5 N           0.2322   -1.0720   -0.0010 N.ar    1  LIG1       -0.3595
      6 H           0.2297   -2.0787   -0.0013 H       1  LIG1        0.1654
      7 H           2.3448   -0.7190   -0.0027 H       1  LIG1        0.0807
      8 H           1.5943    1.8985   -0.0022 H       1  LIG1        0.0633
      9 H          -1.1089    1.9100   -0.0001 H       1  LIG1        0.0639
     10 C          -2.2279   -0.8653    0.0008 C.ar    1  LIG1        0.0633
     11 C          -2.6589   -2.1874    0.0012 C.ar    1  LIG1       -0.0343
     12 C          -4.0745   -2.1851    0.0022 C.ar    1  LIG1       -0.0343
     13 C          -4.5007   -0.8610    0.0024 C.ar    1  LIG1        0.0634
     14 N          -3.3622   -0.0805    0.0016 N.ar    1  LIG1       -0.3519
     15 H          -3.3595    0.9261    0.0011 H       1  LIG1        0.1660
     16 H          -2.0258   -3.0641    0.0008 H       1  LIG1        0.0639
     17 H          -4.7106   -3.0595    0.0028 H       1  LIG1        0.0639
     18 C          -5.8214   -0.2803    0.0033 C.ar    1  LIG1        0.0634
     19 C          -6.2477    1.0438    0.0041 C.ar    1  LIG1       -0.0343
     20 C          -7.6632    1.0461    0.0047 C.ar    1  LIG1       -0.0343
     21 C          -8.0942   -0.2761    0.0043 C.ar    1  LIG1        0.0633
     22 N          -6.9599   -1.0608    0.0035 N.ar    1  LIG1       -0.3519
     23 H          -6.9627   -2.0675    0.0025 H       1  LIG1        0.1660
     24 H          -5.6115    1.9182    0.0044 H       1  LIG1        0.0639
     25 H          -8.2964    1.9228    0.0055 H       1  LIG1        0.0639
     26 C          -9.4188   -0.8541    0.0046 C.ar    1  LIG1        0.0629
     27 C          -9.8488   -2.1764    0.0051 C.ar    1  LIG1       -0.0350
     28 C         -11.2693   -2.1742    0.0051 C.ar    1  LIG1       -0.0438
     29 C         -11.6796   -0.8586    0.0046 C.ar    1  LIG1        0.0022
     30 N         -10.5544   -0.0693    0.0043 N.ar    1  LIG1       -0.3595
     31 H         -10.5518    0.9374    0.0035 H       1  LIG1        0.1654
     32 H         -12.6669   -0.4223    0.0044 H       1  LIG1        0.0807
     33 H          -9.2132   -3.0513    0.0056 H       1  LIG1        0.0639
     34 H         -11.9164   -3.0399    0.0056 H       1  LIG1        0.0633
@<TRIPOS>BOND
     1     7     1    1
     2     8     2    1
     3     1     2   ar
     4     1     5   ar
     5     2     3   ar
     6     6     5    1
     7     5     4   ar
     8     3     4   ar
     9     3     9    1
    10     4    10    1
    11    10    11   ar
    12    10    14   ar
    13    16    11    1
    14    15    14    1
    15    11    12   ar
    16    14    13   ar
    17    12    13   ar
    18    12    17    1
    19    13    18    1
    20    23    22    1
    21    18    22   ar
    22    18    19   ar
    23    22    21   ar
    24    31    30    1
    25    19    24    1
    26    19    20   ar
    27    21    26    1
    28    21    20   ar
    29    30    26   ar
    30    30    29   ar
    31    32    29    1
    32    26    27   ar
    33    29    28   ar
    34    20    25    1
    35    27    28   ar
    36    27    33    1
    37    28    34    1
