@<TRIPOS>MOLECULE
mol_data/opt/b3lyp/geoms/mol2/13aa.out
 10 10 0 0 0
SMALL
GASTEIGER

@<TRIPOS>ATOM
      1 C           1.1245   -0.3117   -0.0001 C.ar    1  LIG1        0.0016
      2 C           0.7142    1.0037    0.0004 C.ar    1  LIG1       -0.0444
      3 C          -0.7110    1.0060   -0.0001 C.ar    1  LIG1       -0.0444
      4 C          -1.1255   -0.3081    0.0002 C.ar    1  LIG1        0.0016
      5 N          -0.0018   -1.1009    0.0001 N.ar    1  LIG1       -0.3670
      6 H          -0.0034   -2.1075   -0.0003 H       1  LIG1        0.1648
      7 H          -2.1147   -0.7415    0.0004 H       1  LIG1        0.0807
      8 H           2.1123   -0.7483   -0.0002 H       1  LIG1        0.0807
      9 H           1.3633    1.8677    0.0006 H       1  LIG1        0.0632
     10 H          -1.3573    1.8720   -0.0003 H       1  LIG1        0.0632
@<TRIPOS>BOND
     1     6     5    1
     2    10     3    1
     3     8     1    1
     4     3     4   ar
     5     3     2   ar
     6     1     5   ar
     7     1     2   ar
     8     5     4   ar
     9     4     7    1
    10     2     9    1
