@<TRIPOS>MOLECULE
mol_data/opt/b3lyp/geoms/mol2/13aa6af13hi-12ea-.out
 42 45 0 0 0
SMALL
GASTEIGER

@<TRIPOS>ATOM
      1 C           1.3964   -0.5612   -0.4931 C.ar    1  LIG1        0.0022
      2 C           1.1473    0.7248   -0.0593 C.ar    1  LIG1       -0.0438
      3 C          -0.2503    0.8347    0.1579 C.ar    1  LIG1       -0.0364
      4 C          -0.8302   -0.3907   -0.1441 C.ar    1  LIG1        0.0480
      5 N           0.1995   -1.2307   -0.5285 N.ar    1  LIG1       -0.3606
      6 H           0.0685   -2.1582   -0.8984 H       1  LIG1        0.1653
      7 H           2.3171   -1.0480   -0.7780 H       1  LIG1        0.0807
      8 H           1.8891    1.4957    0.0931 H       1  LIG1        0.0633
      9 H          -0.7792    1.7001    0.5311 H       1  LIG1        0.0639
     10 C          -2.5655   -2.1930    0.0528 C.ar    1  LIG1        0.0377
     11 C          -2.2183   -0.8341   -0.0840 C.ar    1  LIG1        0.0199
     12 C          -3.2795    0.0731   -0.1541 C.ar    1  LIG1       -0.0074
     13 C          -4.6081   -0.3578   -0.0887 C.ar    1  LIG1        0.1448
     14 C          -4.8477   -1.7543    0.0363 C.ar    1  LIG1        0.1301
     15 N          -3.8179   -2.6257    0.1014 N.ar    1  LIG1       -0.2491
     16 H          -3.1013    1.1353   -0.2825 H       1  LIG1        0.0662
     17 H          -1.7958   -2.9566    0.1525 H       1  LIG1        0.0836
     18 O          -5.5579    0.5857   -0.1726 O.3     1  LIG1       -0.5045
     19 H          -6.4818    0.2011   -0.0911 H       1  LIG1        0.2922
     20 C          -6.1668   -2.3961    0.0980 C.ar    1  LIG1        0.0902
     21 C          -7.5032   -1.9772    0.1131 C.ar    1  LIG1        0.0555
     22 C          -8.3444   -3.1202    0.1853 C.ar    1  LIG1       -0.0008
     23 C          -7.4945   -4.2301    0.2011 C.ar    1  LIG1        0.0885
     24 N          -6.2024   -3.7609    0.1586 N.ar    1  LIG1       -0.3487
     25 H          -5.3497   -4.3034    0.1751 H       1  LIG1        0.1661
     26 N          -7.9282   -0.6049    0.0945 N.pl3   1  LIG1       -0.3561
     27 H          -8.5916   -0.4317   -0.6579 H       1  LIG1        0.1424
     28 H          -8.3911   -0.3449    0.9641 H       1  LIG1        0.1424
     29 C          -9.8385   -3.0954    0.2998 C.3     1  LIG1       -0.0358
     30 H         -10.2058   -3.9326    0.8978 H       1  LIG1        0.0279
     31 H         -10.3365   -3.1639   -0.6740 H       1  LIG1        0.0279
     32 H         -10.1726   -2.1678    0.7781 H       1  LIG1        0.0279
     33 C          -7.7416   -5.6466    0.2921 C.ar    1  LIG1        0.1665
     34 C          -8.7578   -6.5022   -0.1072 C.ar    1  LIG1        0.0718
     35 C          -8.3461   -7.8256    0.2983 C.ar    1  LIG1       -0.0078
     36 C          -7.1300   -7.6919    0.8791 C.ar    1  LIG1        0.0939
     37 O          -6.7460   -6.3799    0.8871 O.2     1  LIG1       -0.4602
     38 H          -6.4327   -8.3876    1.3183 H       1  LIG1        0.1030
     39 C          -9.9234   -6.2018   -0.8541 C.1     1  LIG1       -0.0658
     40 C         -10.9233   -6.0004   -1.5074 C.1     1  LIG1       -0.1138
     41 H         -11.7953   -5.8174   -2.0909 H       1  LIG1        0.1232
     42 H          -8.9018   -8.7382    0.1433 H       1  LIG1        0.0661
@<TRIPOS>BOND
     1    41    40    1
     2    40    39    3
     3     6     5    1
     4    39    34    1
     5     7     1    1
     6    31    29    1
     7    27    26    1
     8     5     1   ar
     9     5     4   ar
    10     1     2   ar
    11    16    12    1
    12    18    19    1
    13    18    13    1
    14    12    13   ar
    15    12    11   ar
    16     4    11    1
    17     4     3   ar
    18    34    33   ar
    19    34    35   ar
    20    13    14   ar
    21    11    10   ar
    22     2     8    1
    23     2     3   ar
    24    14    20    1
    25    14    15   ar
    26    10    15   ar
    27    10    17    1
    28    26    21    1
    29    26    28    1
    30    20    21   ar
    31    20    24   ar
    32    21    22   ar
    33    42    35    1
    34     3     9    1
    35    24    25    1
    36    24    23   ar
    37    22    23   ar
    38    22    29    1
    39    23    33    1
    40    33    37   ar
    41    35    36   ar
    42    29    32    1
    43    29    30    1
    44    36    37   ar
    45    36    38    1
