@<TRIPOS>MOLECULE
mol_data/opt/b3lyp/geoms/mol2/13aa13aa-13aa.out
 26 28 0 0 0
SMALL
GASTEIGER

@<TRIPOS>ATOM
      1 C           1.2797   -0.2928   -0.0009 C.ar    1  LIG1        0.0022
      2 C           0.8685    1.0225   -0.0003 C.ar    1  LIG1       -0.0438
      3 C          -0.5520    1.0236    0.0001 C.ar    1  LIG1       -0.0350
      4 C          -0.9811   -0.2988    0.0002 C.ar    1  LIG1        0.0629
      5 N           0.1549   -1.0828   -0.0003 N.ar    1  LIG1       -0.3595
      6 H           0.1527   -2.0894   -0.0007 H       1  LIG1        0.1654
      7 H           2.2673   -0.7285   -0.0015 H       1  LIG1        0.0807
      8 H           1.5148    1.8885   -0.0003 H       1  LIG1        0.0633
      9 H          -1.1885    1.8981    0.0005 H       1  LIG1        0.0639
     10 C          -2.3052   -0.8779    0.0007 C.ar    1  LIG1        0.0633
     11 C          -2.7356   -2.1999    0.0007 C.ar    1  LIG1       -0.0343
     12 C          -4.1516   -2.1976    0.0012 C.ar    1  LIG1       -0.0343
     13 C          -4.5778   -0.8743    0.0015 C.ar    1  LIG1        0.0633
     14 N          -3.4403   -0.0940    0.0012 N.ar    1  LIG1       -0.3519
     15 H          -3.4387    0.9126    0.0009 H       1  LIG1        0.1660
     16 H          -2.1019   -3.0762    0.0005 H       1  LIG1        0.0639
     17 H          -4.7881   -3.0719    0.0015 H       1  LIG1        0.0639
     18 C          -5.9001   -0.2910    0.0021 C.ar    1  LIG1        0.0629
     19 C          -6.3249    1.0328    0.0030 C.ar    1  LIG1       -0.0350
     20 C          -7.7455    1.0362    0.0030 C.ar    1  LIG1       -0.0438
     21 C          -8.1608   -0.2778    0.0026 C.ar    1  LIG1        0.0022
     22 N          -7.0386   -1.0713    0.0019 N.ar    1  LIG1       -0.3595
     23 H          -7.0395   -2.0780    0.0010 H       1  LIG1        0.1654
     24 H          -9.1498   -0.7103    0.0027 H       1  LIG1        0.0807
     25 H          -5.6857    1.9053    0.0035 H       1  LIG1        0.0639
     26 H          -8.3890    1.9042    0.0035 H       1  LIG1        0.0633
@<TRIPOS>BOND
     1     7     1    1
     2     1     5   ar
     3     1     2   ar
     4     6     5    1
     5     5     4   ar
     6     8     2    1
     7     2     3   ar
     8     3     4   ar
     9     3     9    1
    10     4    10    1
    11    16    11    1
    12    10    11   ar
    13    10    14   ar
    14    11    12   ar
    15    15    14    1
    16    23    22    1
    17    14    13   ar
    18    12    17    1
    19    12    13   ar
    20    13    18    1
    21    22    18   ar
    22    22    21   ar
    23    18    19   ar
    24    21    24    1
    25    21    20   ar
    26    19    20   ar
    27    19    25    1
    28    20    26    1
