@<TRIPOS>MOLECULE
mol_data/opt/b3lyp/geoms/mol2/13aa13aa-4aa13aa.out
 36 39 0 0 0
SMALL
GASTEIGER

@<TRIPOS>ATOM
      1 C           1.3970   -0.3233   -0.0026 C.ar    1  LIG1        0.0022
      2 C           0.9893    0.9935   -0.0016 C.ar    1  LIG1       -0.0438
      3 C          -0.4306    0.9986   -0.0002 C.ar    1  LIG1       -0.0350
      4 C          -0.8633   -0.3230   -0.0004 C.ar    1  LIG1        0.0629
      5 N           0.2708   -1.1099   -0.0019 N.ar    1  LIG1       -0.3595
      6 H           0.2659   -2.1166   -0.0026 H       1  LIG1        0.1654
      7 H           2.3835   -0.7614   -0.0037 H       1  LIG1        0.0807
      8 H           1.6381    1.8576   -0.0018 H       1  LIG1        0.0633
      9 H          -1.0642    1.8751    0.0009 H       1  LIG1        0.0639
     10 C          -2.1884   -0.8992    0.0006 C.ar    1  LIG1        0.0633
     11 C          -2.6195   -2.2232    0.0004 C.ar    1  LIG1       -0.0344
     12 C          -4.0317   -2.2180    0.0016 C.ar    1  LIG1       -0.0358
     13 C          -4.4638   -0.8947    0.0025 C.ar    1  LIG1        0.0469
     14 N          -3.3204   -0.1167    0.0019 N.ar    1  LIG1       -0.3530
     15 H          -3.3060    0.8893    0.0017 H       1  LIG1        0.1659
     16 H          -1.9863   -3.0998   -0.0004 H       1  LIG1        0.0639
     17 H          -4.6691   -3.0901    0.0020 H       1  LIG1        0.0639
     18 C          -6.0464    1.0601    0.0060 C.ar    1  LIG1       -0.0520
     19 C          -7.3331    1.5787    0.0073 C.ar    1  LIG1       -0.0520
     20 C          -5.8068   -0.3286    0.0039 C.ar    1  LIG1       -0.0017
     21 C          -8.4657    0.7430    0.0066 C.ar    1  LIG1       -0.0017
     22 H          -7.4633    2.6559    0.0091 H       1  LIG1        0.0624
     23 C          -6.9400   -1.1648    0.0032 C.ar    1  LIG1       -0.0520
     24 C          -8.2262   -0.6454    0.0045 C.ar    1  LIG1       -0.0520
     25 H          -6.8103   -2.2421    0.0014 H       1  LIG1        0.0624
     26 H          -5.2177    1.7629    0.0069 H       1  LIG1        0.0624
     27 H          -9.0550   -1.3484    0.0037 H       1  LIG1        0.0624
     28 C          -9.8108    1.3110    0.0080 C.ar    1  LIG1        0.0465
     29 C         -10.2420    2.6339    0.0092 C.ar    1  LIG1       -0.0364
     30 C         -11.6594    2.6392    0.0103 C.ar    1  LIG1       -0.0438
     31 C         -12.0743    1.3235    0.0096 C.ar    1  LIG1        0.0022
     32 N         -10.9540    0.5324    0.0082 N.ar    1  LIG1       -0.3607
     33 H         -10.9667   -0.4736    0.0074 H       1  LIG1        0.1653
     34 H         -13.0634    0.8904    0.0100 H       1  LIG1        0.0807
     35 H          -9.6025    3.5046    0.0094 H       1  LIG1        0.0639
     36 H         -12.3037    3.5068    0.0114 H       1  LIG1        0.0633
@<TRIPOS>BOND
     1     7     1    1
     2     6     5    1
     3     1     5   ar
     4     1     2   ar
     5     5     4   ar
     6     8     2    1
     7     2     3   ar
     8     4     3   ar
     9     4    10    1
    10    16    11    1
    11     3     9    1
    12    11    10   ar
    13    11    12   ar
    14    10    14   ar
    15    25    23    1
    16    12    17    1
    17    12    13   ar
    18    15    14    1
    19    14    13   ar
    20    13    20    1
    21    23    20   ar
    22    23    24   ar
    23    27    24    1
    24    20    18   ar
    25    24    21   ar
    26    18    26    1
    27    18    19   ar
    28    21    19   ar
    29    21    28    1
    30    19    22    1
    31    33    32    1
    32    28    32   ar
    33    28    29   ar
    34    32    31   ar
    35    29    35    1
    36    29    30   ar
    37    31    34    1
    38    31    30   ar
    39    30    36    1
