@<TRIPOS>MOLECULE
mol_data/opt/b3lyp/geoms/mol2/13aa13aa13aa13aa-.out
 34 37 0 0 0
SMALL
GASTEIGER

@<TRIPOS>ATOM
      1 C           1.2865    0.0690   -0.0016 C.ar    1  LIG1        0.0022
      2 C           0.7777    1.3490   -0.0008 C.ar    1  LIG1       -0.0438
      3 C          -0.6375    1.2465    0.0001 C.ar    1  LIG1       -0.0350
      4 C          -0.9738   -0.1020   -0.0002 C.ar    1  LIG1        0.0629
      5 N           0.2204   -0.8036   -0.0011 N.ar    1  LIG1       -0.3595
      6 H           0.3187   -1.8047   -0.0020 H       1  LIG1        0.1654
      7 H           2.3029   -0.2946   -0.0024 H       1  LIG1        0.0807
      8 H           1.3588    2.2603   -0.0008 H       1  LIG1        0.0633
      9 H          -1.3445    2.0634    0.0009 H       1  LIG1        0.0639
     10 C          -2.2781   -0.7268    0.0005 C.ar    1  LIG1        0.0633
     11 C          -3.5406   -0.1463    0.0010 C.ar    1  LIG1       -0.0343
     12 C          -4.5027   -1.1800    0.0015 C.ar    1  LIG1       -0.0343
     13 C          -3.8324   -2.3978    0.0015 C.ar    1  LIG1        0.0634
     14 N          -2.4782   -2.0983    0.0009 N.ar    1  LIG1       -0.3519
     15 H          -1.7423   -2.7832    0.0001 H       1  LIG1        0.1660
     16 H          -3.7366    0.9161    0.0009 H       1  LIG1        0.0639
     17 H          -5.5765   -1.0609    0.0021 H       1  LIG1        0.0639
     18 C          -4.3590   -3.7417    0.0019 C.ar    1  LIG1        0.0634
     19 C          -5.6801   -4.1765    0.0013 C.ar    1  LIG1       -0.0343
     20 C          -5.6781   -5.5905    0.0022 C.ar    1  LIG1       -0.0343
     21 C          -4.3562   -6.0201    0.0033 C.ar    1  LIG1        0.0633
     22 N          -3.5728   -4.8814    0.0031 N.ar    1  LIG1       -0.3519
     23 H          -2.5674   -4.9094    0.0037 H       1  LIG1        0.1660
     24 H          -6.5479   -3.5332    0.0003 H       1  LIG1        0.0639
     25 H          -6.5534   -6.2259    0.0021 H       1  LIG1        0.0639
     26 C          -3.7708   -7.3407    0.0045 C.ar    1  LIG1        0.0629
     27 C          -2.4457   -7.7637    0.0064 C.ar    1  LIG1       -0.0350
     28 C          -2.4393   -9.1844    0.0068 C.ar    1  LIG1       -0.0438
     29 C          -3.7525   -9.6019    0.0051 C.ar    1  LIG1        0.0022
     30 N          -4.5482   -8.4809    0.0037 N.ar    1  LIG1       -0.3595
     31 H          -5.5550   -8.4837    0.0020 H       1  LIG1        0.1654
     32 H          -4.1832  -10.5917    0.0048 H       1  LIG1        0.0807
     33 H          -1.5729   -7.1245    0.0077 H       1  LIG1        0.0639
     34 H          -1.5701   -9.8266    0.0082 H       1  LIG1        0.0633
@<TRIPOS>BOND
     1     7     1    1
     2     6     5    1
     3     1     5   ar
     4     1     2   ar
     5     5     4   ar
     6     8     2    1
     7     2     3   ar
     8     4     3   ar
     9     4    10    1
    10     3     9    1
    11    15    14    1
    12    24    19    1
    13    10    14   ar
    14    10    11   ar
    15    14    13   ar
    16    16    11    1
    17    11    12   ar
    18    19    18   ar
    19    19    20   ar
    20    13    12   ar
    21    13    18    1
    22    12    17    1
    23    18    22   ar
    24    31    30    1
    25    25    20    1
    26    20    21   ar
    27    22    21   ar
    28    22    23    1
    29    21    26    1
    30    30    26   ar
    31    30    29   ar
    32    26    27   ar
    33    32    29    1
    34    29    28   ar
    35    27    28   ar
    36    27    33    1
    37    28    34    1
