@<TRIPOS>MOLECULE
mol_data/opt/b3lyp/geoms/mol2/13aa13aa-13aa-13aa.out
 34 37 0 0 0
SMALL
GASTEIGER

@<TRIPOS>ATOM
      1 C           1.3752   -0.4242   -0.0014 C.ar    1  LIG1        0.0022
      2 C           0.9970    0.9009   -0.0012 C.ar    1  LIG1       -0.0438
      3 C          -0.4232    0.9372   -0.0004 C.ar    1  LIG1       -0.0350
      4 C          -0.8854   -0.3746   -0.0001 C.ar    1  LIG1        0.0629
      5 N           0.2309   -1.1861   -0.0006 N.ar    1  LIG1       -0.3595
      6 H           0.2037   -2.1924   -0.0009 H       1  LIG1        0.1654
      7 H           2.3516   -0.8843   -0.0019 H       1  LIG1        0.0807
      8 H           1.6648    1.7507   -0.0016 H       1  LIG1        0.0633
      9 H          -1.0360    1.8286   -0.0001 H       1  LIG1        0.0639
     10 C          -2.2229   -0.9206    0.0007 C.ar    1  LIG1        0.0633
     11 C          -2.6897   -2.2302    0.0010 C.ar    1  LIG1       -0.0343
     12 C          -4.1031   -2.1917    0.0017 C.ar    1  LIG1       -0.0343
     13 C          -4.4991   -0.8587    0.0017 C.ar    1  LIG1        0.0634
     14 N          -3.3381   -0.1052    0.0011 N.ar    1  LIG1       -0.3519
     15 H          -3.2840    0.8994    0.0003 H       1  LIG1        0.1660
     16 H          -2.0794   -3.1231    0.0010 H       1  LIG1        0.0639
     17 H          -4.7710   -3.0407    0.0022 H       1  LIG1        0.0639
     18 C          -5.8265   -0.2908    0.0022 C.ar    1  LIG1        0.0634
     19 C          -7.0642   -0.9248    0.0016 C.ar    1  LIG1       -0.0343
     20 C          -8.0680    0.0710    0.0026 C.ar    1  LIG1       -0.0343
     21 C          -7.4430    1.3129    0.0038 C.ar    1  LIG1        0.0633
     22 N          -6.0831    1.0693    0.0036 N.ar    1  LIG1       -0.3519
     23 H          -5.3938    1.8021    0.0042 H       1  LIG1        0.1660
     24 H          -7.2170   -1.9941    0.0006 H       1  LIG1        0.0639
     25 H          -9.1352   -0.1041    0.0026 H       1  LIG1        0.0639
     26 C          -7.9716    2.6574    0.0052 C.ar    1  LIG1        0.0629
     27 C          -7.3419    3.8975    0.0074 C.ar    1  LIG1       -0.0350
     28 C          -8.3488    4.8997    0.0078 C.ar    1  LIG1       -0.0438
     29 C          -9.5685    4.2583    0.0059 C.ar    1  LIG1        0.0022
     30 N          -9.3294    2.9045    0.0044 N.ar    1  LIG1       -0.3595
     31 H         -10.0385    2.1899    0.0024 H       1  LIG1        0.1654
     32 H         -10.5755    4.6468    0.0056 H       1  LIG1        0.0807
     33 H          -6.2740    4.0698    0.0087 H       1  LIG1        0.0639
     34 H          -8.1953    5.9695    0.0094 H       1  LIG1        0.0633
@<TRIPOS>BOND
     1     7     1    1
     2     8     2    1
     3     1     2   ar
     4     1     5   ar
     5     2     3   ar
     6     6     5    1
     7     5     4   ar
     8     3     4   ar
     9     3     9    1
    10     4    10    1
    11    15    14    1
    12    24    19    1
    13    10    11   ar
    14    10    14   ar
    15    16    11    1
    16    11    12   ar
    17    14    13   ar
    18    19    18   ar
    19    19    20   ar
    20    12    13   ar
    21    12    17    1
    22    13    18    1
    23    18    22   ar
    24    31    30    1
    25    25    20    1
    26    20    21   ar
    27    22    21   ar
    28    22    23    1
    29    21    26    1
    30    30    26   ar
    31    30    29   ar
    32    26    27   ar
    33    32    29    1
    34    29    28   ar
    35    27    28   ar
    36    27    33    1
    37    28    34    1
