@<TRIPOS>MOLECULE
mol_data/opt/b3lyp/geoms/mol2/13aa13aa13aa-13aa.out
 34 37 0 0 0
SMALL
GASTEIGER

@<TRIPOS>ATOM
      1 C           1.3350   -0.0907   -0.0019 C.ar    1  LIG1        0.0022
      2 C           0.8665    1.2048   -0.0015 C.ar    1  LIG1       -0.0438
      3 C          -0.5513    1.1461   -0.0005 C.ar    1  LIG1       -0.0350
      4 C          -0.9283   -0.1914   -0.0003 C.ar    1  LIG1        0.0629
      5 N           0.2430   -0.9296   -0.0011 N.ar    1  LIG1       -0.3595
      6 H           0.3082   -1.9336   -0.0017 H       1  LIG1        0.1654
      7 H           2.3398   -0.4854   -0.0027 H       1  LIG1        0.0807
      8 H           1.4756    2.0976   -0.0018 H       1  LIG1        0.0633
      9 H          -1.2327    1.9846    0.0002 H       1  LIG1        0.0639
     10 C          -2.2500   -0.7792    0.0006 C.ar    1  LIG1        0.0633
     11 C          -3.4954   -0.1623    0.0010 C.ar    1  LIG1       -0.0343
     12 C          -4.4864   -1.1709    0.0019 C.ar    1  LIG1       -0.0343
     13 C          -3.8452   -2.4047    0.0022 C.ar    1  LIG1        0.0634
     14 N          -2.4875   -2.1423    0.0014 N.ar    1  LIG1       -0.3519
     15 H          -1.7880   -2.8652    0.0011 H       1  LIG1        0.1660
     16 H          -3.6621    0.9049    0.0006 H       1  LIG1        0.0639
     17 H          -5.5558   -1.0098    0.0025 H       1  LIG1        0.0639
     18 C          -4.3565   -3.7531    0.0030 C.ar    1  LIG1        0.0634
     19 C          -3.7122   -4.9864    0.0038 C.ar    1  LIG1       -0.0343
     20 C          -4.7037   -5.9971    0.0044 C.ar    1  LIG1       -0.0343
     21 C          -5.9481   -5.3765    0.0040 C.ar    1  LIG1        0.0633
     22 N          -5.7111   -4.0175    0.0033 N.ar    1  LIG1       -0.3519
     23 H          -6.4301   -3.3129    0.0023 H       1  LIG1        0.1660
     24 H          -2.6428   -5.1482    0.0040 H       1  LIG1        0.0639
     25 H          -4.5232   -7.0633    0.0052 H       1  LIG1        0.0639
     26 C          -7.2895   -5.9143    0.0043 C.ar    1  LIG1        0.0629
     27 C          -8.5329   -5.2921    0.0049 C.ar    1  LIG1       -0.0350
     28 C          -9.5287   -6.3051    0.0049 C.ar    1  LIG1       -0.0438
     29 C          -8.8801   -7.5210    0.0044 C.ar    1  LIG1        0.0022
     30 N          -7.5279   -7.2740    0.0041 N.ar    1  LIG1       -0.3595
     31 H          -6.8095   -7.9792    0.0032 H       1  LIG1        0.1654
     32 H          -9.2627   -8.5304    0.0043 H       1  LIG1        0.0807
     33 H          -8.7099   -4.2251    0.0054 H       1  LIG1        0.0639
     34 H         -10.5994   -6.1580    0.0053 H       1  LIG1        0.0633
@<TRIPOS>BOND
     1     7     1    1
     2     1     2   ar
     3     1     5   ar
     4     8     2    1
     5     6     5    1
     6     2     3   ar
     7     5     4   ar
     8     3     4   ar
     9     3     9    1
    10     4    10    1
    11    16    11    1
    12    10    11   ar
    13    10    14   ar
    14    11    12   ar
    15    15    14    1
    16    14    13   ar
    17    12    13   ar
    18    12    17    1
    19    13    18    1
    20    23    22    1
    21    18    22   ar
    22    18    19   ar
    23    31    30    1
    24    22    21   ar
    25    19    24    1
    26    19    20   ar
    27    21    26    1
    28    21    20   ar
    29    30    26   ar
    30    30    29   ar
    31    32    29    1
    32    26    27   ar
    33    20    25    1
    34    29    28   ar
    35    27    28   ar
    36    27    33    1
    37    28    34    1
