@<TRIPOS>MOLECULE
mol_data/opt/b3lyp/geoms/mol2/13aa6if12aa13hi13eh-13ff-6ah6ee.out
 89 96 0 0 0
SMALL
GASTEIGER

@<TRIPOS>ATOM
      1 C           1.6018   -0.1475   -0.8380 C.ar    1  LIG1        0.0022
      2 C           1.1267    1.1256   -0.5892 C.ar    1  LIG1       -0.0438
      3 C          -0.2711    1.0199   -0.3784 C.ar    1  LIG1       -0.0364
      4 C          -0.6247   -0.3211   -0.4927 C.ar    1  LIG1        0.0483
      5 N           0.5425   -1.0123   -0.7622 N.ar    1  LIG1       -0.3606
      6 H           0.6018   -1.9904   -1.0025 H       1  LIG1        0.1653
      7 H           2.5935   -0.5187   -1.0520 H       1  LIG1        0.0807
      8 H           1.7215    2.0273   -0.5509 H       1  LIG1        0.0633
      9 H          -0.9518    1.8219   -0.1286 H       1  LIG1        0.0639
     10 C          -2.2049   -2.2252    0.1548 C.ar    1  LIG1        0.0483
     11 C          -1.9491   -0.9379   -0.3969 C.ar    1  LIG1        0.0228
     12 C          -3.0545   -0.2121   -0.8636 C.ar    1  LIG1       -0.0071
     13 C          -4.3371   -0.7335   -0.7669 C.ar    1  LIG1        0.1464
     14 C          -4.4995   -2.0128   -0.1942 C.ar    1  LIG1        0.1475
     15 N          -3.4408   -2.7239    0.2343 N.ar    1  LIG1       -0.2444
     16 H          -2.9177    0.7529   -1.3390 H       1  LIG1        0.0662
     17 C          -1.1178   -3.1014    0.7345 C.3     1  LIG1       -0.0217
     18 H          -0.3934   -2.5177    1.3099 H       1  LIG1        0.0293
     19 H          -0.5548   -3.6563   -0.0273 H       1  LIG1        0.0293
     20 H          -1.5815   -3.8395    1.3914 H       1  LIG1        0.0293
     21 O          -5.3765    0.0035   -1.2599 O.3     1  LIG1       -0.5045
     22 H          -6.1269   -0.5934   -1.4091 H       1  LIG1        0.2922
     23 C          -5.8213   -2.6186   -0.0722 C.ar    1  LIG1        0.1575
     24 C          -7.1001   -2.1183    0.0516 C.ar    1  LIG1       -0.0135
     25 C          -7.9861   -3.2327    0.1250 C.ar    1  LIG1       -0.0137
     26 C          -7.1984   -4.3585    0.0360 C.ar    1  LIG1        0.1536
     27 O          -5.8824   -3.9892   -0.0860 O.2     1  LIG1       -0.4516
     28 H          -7.3675   -1.0777    0.1721 H       1  LIG1        0.0656
     29 H          -9.0533   -3.2125    0.2886 H       1  LIG1        0.0656
     30 C          -7.4486   -5.7659    0.0318 C.ar    1  LIG1        0.1037
     31 C          -8.6220   -6.4976   -0.1628 C.ar    1  LIG1        0.0568
     32 C          -8.2982   -7.8827   -0.0948 C.ar    1  LIG1       -0.0024
     33 C          -6.9239   -7.9659    0.1577 C.ar    1  LIG1        0.0694
     34 N          -6.4221   -6.6797    0.1881 N.ar    1  LIG1       -0.3489
     35 H          -5.5254   -6.4252    0.5728 H       1  LIG1        0.1661
     36 N          -9.8895   -5.9485   -0.3917 N.pl3   1  LIG1       -0.3560
     37 H          -9.8617   -5.1150   -0.9696 H       1  LIG1        0.1424
     38 H         -10.5456   -6.6165   -0.7781 H       1  LIG1        0.1424
     39 C          -9.2545   -9.0038   -0.3659 C.3     1  LIG1       -0.0359
     40 H          -8.7277   -9.9136   -0.6585 H       1  LIG1        0.0279
     41 H          -9.9420   -8.7435   -1.1819 H       1  LIG1        0.0279
     42 H          -9.8657   -9.2549    0.5091 H       1  LIG1        0.0279
     43 C          -6.0003   -9.0669    0.2687 C.ar    1  LIG1        0.0811
     44 C          -6.1098  -10.3880    0.7276 C.ar    1  LIG1        0.0726
     45 C          -4.8182  -11.0108    0.5776 C.ar    1  LIG1        0.0680
     46 C          -3.9547  -10.0585    0.0473 C.ar    1  LIG1        0.0893
     47 N          -4.6828   -8.8700   -0.0945 N.ar    1  LIG1       -0.3493
     48 H          -4.4391   -8.1860   -0.7974 H       1  LIG1        0.1661
     49 C          -7.2083  -11.0241    1.3521 C.1     1  LIG1       -0.0656
     50 C          -8.1023  -11.6400    1.8932 C.1     1  LIG1       -0.1138
     51 H          -8.8952  -12.1470    2.3916 H       1  LIG1        0.1232
     52 N          -4.4997  -12.2816    1.0182 N.pl3   1  LIG1       -0.3553
     53 H          -5.3061  -12.8775    1.1517 H       1  LIG1        0.1424
     54 H          -3.7435  -12.7306    0.5140 H       1  LIG1        0.1424
     55 C          -2.5488  -10.0931   -0.2302 C.ar    1  LIG1        0.1110
     56 C          -1.6926  -11.1312   -0.5784 C.ar    1  LIG1        0.1863
     57 C          -0.3922  -10.5997   -0.7151 C.ar    1  LIG1        0.1849
     58 C          -0.4351   -9.2315   -0.4578 C.ar    1  LIG1        0.0943
     59 N          -1.7769   -8.9371   -0.2166 N.ar    1  LIG1       -0.3470
     60 H          -2.0474   -8.1498    0.3544 H       1  LIG1        0.1662
     61 O          -2.0614  -12.4297   -0.8090 O.3     1  LIG1       -0.5019
     62 H          -1.2542  -12.9187   -1.0267 H       1  LIG1        0.2924
     63 O           0.6719  -11.3912   -1.0932 O.3     1  LIG1       -0.5019
     64 H           1.1433  -10.9546   -1.8162 H       1  LIG1        0.2924
     65 C           0.2741   -6.8427   -0.4520 C.ar    1  LIG1        0.0376
     66 C           0.5964   -8.2192   -0.4284 C.ar    1  LIG1        0.0219
     67 C           1.9619   -8.5383   -0.3567 C.ar    1  LIG1       -0.0283
     68 C           2.9291   -7.5297   -0.2884 C.ar    1  LIG1        0.0516
     69 C           2.4825   -6.1809   -0.2698 C.ar    1  LIG1        0.0942
     70 N           1.1784   -5.8782   -0.3658 N.ar    1  LIG1       -0.2524
     71 H           2.2752   -9.5775   -0.3140 H       1  LIG1        0.0644
     72 H          -0.7589   -6.5176   -0.5532 H       1  LIG1        0.0836
     73 N           4.2777   -7.8625   -0.1860 N.pl3   1  LIG1       -0.3563
     74 H           4.5105   -8.7967   -0.4941 H       1  LIG1        0.1424
     75 H           4.9282   -7.1710   -0.5329 H       1  LIG1        0.1424
     76 C           3.3127   -3.8606   -0.9090 C.ar    1  LIG1        0.1224
     77 C           3.4116   -5.0312   -0.1112 C.ar    1  LIG1        0.0371
     78 C           4.3887   -5.0336    0.8903 C.ar    1  LIG1       -0.0330
     79 C           5.2117   -3.9162    1.0890 C.ar    1  LIG1        0.0435
     80 C           5.0028   -2.8032    0.2512 C.ar    1  LIG1        0.0444
     81 N           4.0918   -2.7752   -0.7139 N.ar    1  LIG1       -0.2448
     82 H           4.4997   -5.9000    1.5329 H       1  LIG1        0.0638
     83 H           5.6062   -1.9082    0.3804 H       1  LIG1        0.0842
     84 C           2.3944   -3.7555   -2.0063 C.1     1  LIG1       -0.0491
     85 C           1.6649   -3.6095   -2.9608 C.1     1  LIG1       -0.1124
     86 H           1.0206   -3.4948   -3.8021 H       1  LIG1        0.1232
     87 C           6.2098   -3.8904    2.1064 C.1     1  LIG1       -0.0681
     88 C           7.0611   -3.8620    2.9659 C.1     1  LIG1       -0.1139
     89 H           7.8071   -3.8344    3.7264 H       1  LIG1        0.1232
@<TRIPOS>BOND
     1    86    85    1
     2    85    84    3
     3    84    76    1
     4    64    63    1
     5    22    21    1
     6    16    12    1
     7    21    13    1
     8    41    39    1
     9    63    57    1
    10     7     1    1
    11    62    61    1
    12     6     5    1
    13    37    36    1
    14    76    81   ar
    15    76    77   ar
    16    12    13   ar
    17    12    11   ar
    18     1     5   ar
    19     1     2   ar
    20    61    56    1
    21    48    47    1
    22    38    36    1
    23    13    14   ar
    24     5     4   ar
    25    57    56   ar
    26    57    58   ar
    27    81    80   ar
    28    40    39    1
    29     2     8    1
    30     2     3   ar
    31    56    55   ar
    32    72    65    1
    33    75    73    1
    34    74    73    1
    35     4    11    1
    36     4     3   ar
    37    58    66    1
    38    58    59   ar
    39    65    66   ar
    40    65    70   ar
    41    66    67   ar
    42    11    10   ar
    43    36    31    1
    44     3     9    1
    45    39    32    1
    46    39    42    1
    47    70    69   ar
    48    67    71    1
    49    67    68   ar
    50    68    69   ar
    51    68    73    1
    52    69    77    1
    53    55    59   ar
    54    55    46    1
    55    59    60    1
    56    14    23    1
    57    14    15   ar
    58    31    32   ar
    59    31    30   ar
    60    77    78   ar
    61    32    33   ar
    62    47    46   ar
    63    47    43   ar
    64    27    23   ar
    65    27    26   ar
    66    23    24   ar
    67    19    17    1
    68    30    26    1
    69    30    34   ar
    70    26    25   ar
    71    46    45   ar
    72    24    25   ar
    73    24    28    1
    74    25    29    1
    75    10    15   ar
    76    10    17    1
    77    33    34   ar
    78    33    43    1
    79    34    35    1
    80    80    83    1
    81    80    79   ar
    82    43    44   ar
    83    54    52    1
    84    45    44   ar
    85    45    52    1
    86    44    49    1
    87    17    18    1
    88    17    20    1
    89    78    79   ar
    90    78    82    1
    91    52    53    1
    92    79    87    1
    93    49    50    3
    94    50    51    1
    95    87    88    3
    96    88    89    1
