@<TRIPOS>MOLECULE
mol_data/opt/b3lyp/geoms/mol2/13aa13aa13aa.out
 26 28 0 0 0
SMALL
GASTEIGER

@<TRIPOS>ATOM
      1 C           1.2856   -0.0975   -0.0013 C.ar    1  LIG1        0.0022
      2 C           0.8005    1.1915   -0.0002 C.ar    1  LIG1       -0.0438
      3 C          -0.6165    1.1146    0.0003 C.ar    1  LIG1       -0.0350
      4 C          -0.9776   -0.2273    0.0000 C.ar    1  LIG1        0.0629
      5 N           0.2036   -0.9504   -0.0008 N.ar    1  LIG1       -0.3595
      6 H           0.2836   -1.9530   -0.0017 H       1  LIG1        0.1654
      7 H           2.2952   -0.4797   -0.0021 H       1  LIG1        0.0807
      8 H           1.3979    2.0921    0.0000 H       1  LIG1        0.0633
      9 H          -1.3083    1.9445    0.0011 H       1  LIG1        0.0639
     10 C          -2.2932   -0.8284    0.0006 C.ar    1  LIG1        0.0633
     11 C          -3.5448   -0.2262    0.0008 C.ar    1  LIG1       -0.0343
     12 C          -4.5251   -1.2434    0.0014 C.ar    1  LIG1       -0.0343
     13 C          -3.8772   -2.4719    0.0014 C.ar    1  LIG1        0.0633
     14 N          -2.5182   -2.1966    0.0010 N.ar    1  LIG1       -0.3519
     15 H          -1.7944   -2.8942    0.0003 H       1  LIG1        0.1660
     16 H          -3.7222    0.8395    0.0007 H       1  LIG1        0.0639
     17 H          -5.5966   -1.1053    0.0018 H       1  LIG1        0.0639
     18 C          -4.4294   -3.8087    0.0018 C.ar    1  LIG1        0.0629
     19 C          -5.7571   -4.2191    0.0010 C.ar    1  LIG1       -0.0350
     20 C          -5.7817   -5.6379    0.0018 C.ar    1  LIG1       -0.0438
     21 C          -4.4757   -6.0753    0.0036 C.ar    1  LIG1        0.0022
     22 N          -3.6633   -4.9626    0.0033 N.ar    1  LIG1       -0.3595
     23 H          -2.6584   -5.0055    0.0043 H       1  LIG1        0.1654
     24 H          -4.0566   -7.0701    0.0049 H       1  LIG1        0.0807
     25 H          -6.6119   -3.5583   -0.0003 H       1  LIG1        0.0639
     26 H          -6.6596   -6.2681    0.0013 H       1  LIG1        0.0633
@<TRIPOS>BOND
     1     7     1    1
     2     6     5    1
     3     1     5   ar
     4     1     2   ar
     5     5     4   ar
     6    25    19    1
     7     2     8    1
     8     2     3   ar
     9     4     3   ar
    10     4    10    1
    11    15    14    1
    12     3     9    1
    13    10    11   ar
    14    10    14   ar
    15    16    11    1
    16    11    12   ar
    17    14    13   ar
    18    19    20   ar
    19    19    18   ar
    20    26    20    1
    21    12    13   ar
    22    12    17    1
    23    13    18    1
    24    20    21   ar
    25    18    22   ar
    26    22    21   ar
    27    22    23    1
    28    21    24    1
