@<TRIPOS>MOLECULE
mol_data/opt/b3lyp/geoms/mol2/13aa13aa13aa-13aa-.out
 34 37 0 0 0
SMALL
GASTEIGER

@<TRIPOS>ATOM
      1 C           1.3548   -0.1159   -0.0018 C.ar    1  LIG1        0.0022
      2 C           0.8986    1.1841   -0.0016 C.ar    1  LIG1       -0.0438
      3 C          -0.5196    1.1389   -0.0007 C.ar    1  LIG1       -0.0350
      4 C          -0.9092   -0.1951   -0.0004 C.ar    1  LIG1        0.0629
      5 N           0.2549   -0.9443   -0.0010 N.ar    1  LIG1       -0.3595
      6 H           0.3107   -1.9489   -0.0015 H       1  LIG1        0.1654
      7 H           2.3558   -0.5201   -0.0025 H       1  LIG1        0.0807
      8 H           1.5163    2.0711   -0.0019 H       1  LIG1        0.0633
      9 H          -1.1930    1.9838   -0.0002 H       1  LIG1        0.0639
     10 C          -2.2365   -0.7703    0.0006 C.ar    1  LIG1        0.0633
     11 C          -3.4758   -0.1415    0.0007 C.ar    1  LIG1       -0.0343
     12 C          -4.4763   -1.1410    0.0017 C.ar    1  LIG1       -0.0343
     13 C          -3.8469   -2.3813    0.0022 C.ar    1  LIG1        0.0634
     14 N          -2.4871   -2.1311    0.0015 N.ar    1  LIG1       -0.3519
     15 H          -1.7948   -2.8610    0.0013 H       1  LIG1        0.1660
     16 H          -3.6322    0.9273    0.0002 H       1  LIG1        0.0639
     17 H          -5.5441   -0.9682    0.0022 H       1  LIG1        0.0639
     18 C          -4.3695   -3.7249    0.0032 C.ar    1  LIG1        0.0634
     19 C          -3.7401   -4.9652    0.0041 C.ar    1  LIG1       -0.0343
     20 C          -4.7406   -5.9647    0.0047 C.ar    1  LIG1       -0.0343
     21 C          -5.9799   -5.3359    0.0040 C.ar    1  LIG1        0.0633
     22 N          -5.7292   -3.9751    0.0032 N.ar    1  LIG1       -0.3519
     23 H          -6.4216   -3.2452    0.0016 H       1  LIG1        0.1660
     24 H          -2.6722   -5.1380    0.0046 H       1  LIG1        0.0639
     25 H          -4.5841   -7.0335    0.0056 H       1  LIG1        0.0639
     26 C          -7.3071   -5.9111    0.0042 C.ar    1  LIG1        0.0629
     27 C          -7.6967   -7.2451    0.0033 C.ar    1  LIG1       -0.0350
     28 C          -9.1150   -7.2903    0.0040 C.ar    1  LIG1       -0.0438
     29 C          -9.5712   -5.9903    0.0054 C.ar    1  LIG1        0.0022
     30 N          -8.4712   -5.1618    0.0055 N.ar    1  LIG1       -0.3595
     31 H          -8.5271   -4.1573    0.0066 H       1  LIG1        0.1654
     32 H         -10.5722   -5.5861    0.0064 H       1  LIG1        0.0807
     33 H          -7.0234   -8.0900    0.0021 H       1  LIG1        0.0639
     34 H          -9.7326   -8.1773    0.0036 H       1  LIG1        0.0633
@<TRIPOS>BOND
     1     7     1    1
     2     8     2    1
     3     1     2   ar
     4     1     5   ar
     5     2     3   ar
     6     6     5    1
     7     5     4   ar
     8     3     4   ar
     9     3     9    1
    10     4    10    1
    11    16    11    1
    12    10    11   ar
    13    10    14   ar
    14    11    12   ar
    15    15    14    1
    16    14    13   ar
    17    23    22    1
    18    12    13   ar
    19    12    17    1
    20    33    27    1
    21    13    18    1
    22    18    22   ar
    23    18    19   ar
    24    22    21   ar
    25    27    28   ar
    26    27    26   ar
    27    34    28    1
    28    28    29   ar
    29    21    26    1
    30    21    20   ar
    31    19    24    1
    32    19    20   ar
    33    26    30   ar
    34    20    25    1
    35    29    30   ar
    36    29    32    1
    37    30    31    1
