@<TRIPOS>MOLECULE
mol_data/opt/b3lyp/geoms/mol2/13aa13aa-13aa-13aa-.out
 34 37 0 0 0
SMALL
GASTEIGER

@<TRIPOS>ATOM
      1 C           1.3224   -0.5110   -0.5118 C.ar    1  LIG1        0.0022
      2 C           0.9906    0.8258   -0.4579 C.ar    1  LIG1       -0.0438
      3 C          -0.4009    0.9085   -0.1810 C.ar    1  LIG1       -0.0350
      4 C          -0.8904   -0.3875   -0.0731 C.ar    1  LIG1        0.0629
      5 N           0.1792   -1.2360   -0.2739 N.ar    1  LIG1       -0.3595
      6 H           0.0995   -2.2386   -0.3287 H       1  LIG1        0.1654
      7 H           2.2661   -1.0013   -0.6971 H       1  LIG1        0.0807
      8 H           1.6739    1.6528   -0.5895 H       1  LIG1        0.0633
      9 H          -0.9760    1.8117   -0.0304 H       1  LIG1        0.0639
     10 C          -2.2204   -0.8910    0.1914 C.ar    1  LIG1        0.0633
     11 C          -2.6656   -2.0946    0.7197 C.ar    1  LIG1       -0.0343
     12 C          -4.0841   -2.0650    0.7405 C.ar    1  LIG1       -0.0343
     13 C          -4.4932   -0.8456    0.2245 C.ar    1  LIG1        0.0634
     14 N          -3.3435   -0.1327   -0.0852 N.ar    1  LIG1       -0.3519
     15 H          -3.3235    0.6643   -0.7028 H       1  LIG1        0.1660
     16 H          -2.0351   -2.8824    1.1092 H       1  LIG1        0.0639
     17 H          -4.7431   -2.8237    1.1375 H       1  LIG1        0.0639
     18 C          -5.8160   -0.2942    0.0203 C.ar    1  LIG1        0.0634
     19 C          -7.0171   -0.9013   -0.3191 C.ar    1  LIG1       -0.0343
     20 C          -8.0114    0.1052   -0.3923 C.ar    1  LIG1       -0.0343
     21 C          -7.4125    1.3231   -0.1047 C.ar    1  LIG1        0.0633
     22 N          -6.0761    1.0601    0.1445 N.ar    1  LIG1       -0.3519
     23 H          -5.3883    1.7570    0.3818 H       1  LIG1        0.1660
     24 H          -7.1453   -1.9573   -0.5089 H       1  LIG1        0.0639
     25 H          -9.0604   -0.0313   -0.6123 H       1  LIG1        0.0639
     26 C          -7.9605    2.6642   -0.0361 C.ar    1  LIG1        0.0629
     27 C          -8.9295    3.2929   -0.8013 C.ar    1  LIG1       -0.0350
     28 C          -9.0921    4.6143   -0.3015 C.ar    1  LIG1       -0.0438
     29 C          -8.2207    4.7691    0.7537 C.ar    1  LIG1        0.0022
     30 N          -7.5237    3.5903    0.8992 N.ar    1  LIG1       -0.3595
     31 H          -6.9562    3.3580    1.6990 H       1  LIG1        0.1654
     32 H          -8.0333    5.6112    1.4028 H       1  LIG1        0.0807
     33 H          -9.4304    2.8521   -1.6512 H       1  LIG1        0.0639
     34 H          -9.7595    5.3727   -0.6858 H       1  LIG1        0.0633
@<TRIPOS>BOND
     1    33    27    1
     2    27    28   ar
     3    27    26   ar
     4    15    14    1
     5     7     1    1
     6    34    28    1
     7    25    20    1
     8     8     2    1
     9     1     2   ar
    10     1     5   ar
    11    24    19    1
    12     2     3   ar
    13    20    19   ar
    14    20    21   ar
    15     6     5    1
    16    19    18   ar
    17    28    29   ar
    18     5     4   ar
    19     3     4   ar
    20     3     9    1
    21    21    26    1
    22    21    22   ar
    23    14    10   ar
    24    14    13   ar
    25     4    10    1
    26    26    30   ar
    27    18    22   ar
    28    18    13    1
    29    22    23    1
    30    10    11   ar
    31    13    12   ar
    32    11    12   ar
    33    11    16    1
    34    12    17    1
    35    29    30   ar
    36    29    32    1
    37    30    31    1
