@<TRIPOS>MOLECULE
mol_data/opt/b3lyp/geoms/mol2/13ad13ad13ad-13ad-.out
 38 41 0 0 0
SMALL
GASTEIGER

@<TRIPOS>ATOM
      1 C           1.3671   -0.0765   -0.0020 C.ar    1  LIG1        0.0035
      2 C           0.9164    1.2176   -0.0014 C.ar    1  LIG1       -0.0263
      3 C          -0.5115    1.1678   -0.0006 C.ar    1  LIG1        0.0784
      4 C          -0.8984   -0.1810   -0.0004 C.ar    1  LIG1        0.0805
      5 N           0.2683   -0.9100   -0.0012 N.ar    1  LIG1       -0.3585
      6 H           0.3357   -1.9144   -0.0017 H       1  LIG1        0.1654
      7 H           2.3685   -0.4778   -0.0028 H       1  LIG1        0.0807
      8 H           1.5184    2.1133   -0.0016 H       1  LIG1        0.0645
      9 N          -2.1155    3.1914    0.0008 N.1     1  LIG1       -0.1908
     10 C          -1.3871    2.2819    0.0001 C.1     1  LIG1        0.1013
     11 C          -2.2187   -0.7673    0.0004 C.ar    1  LIG1        0.0659
     12 C          -3.4613   -0.1569    0.0007 C.ar    1  LIG1       -0.0169
     13 C          -4.4417   -1.1871    0.0017 C.ar    1  LIG1        0.0790
     14 C          -3.7793   -2.4275    0.0020 C.ar    1  LIG1        0.0810
     15 N          -2.4401   -2.1417    0.0013 N.ar    1  LIG1       -0.3508
     16 H          -1.7310   -2.8564    0.0013 H       1  LIG1        0.1660
     17 H          -3.6501    0.9050    0.0002 H       1  LIG1        0.0652
     18 N          -7.0187   -1.1006    0.0027 N.1     1  LIG1       -0.1908
     19 C          -5.8519   -1.0646    0.0023 C.1     1  LIG1        0.1013
     20 C          -4.2980   -3.7702    0.0029 C.ar    1  LIG1        0.0659
     21 C          -3.6674   -5.0041    0.0037 C.ar    1  LIG1       -0.0169
     22 C          -4.6783   -6.0042    0.0045 C.ar    1  LIG1        0.0790
     23 C          -5.9267   -5.3551    0.0042 C.ar    1  LIG1        0.0810
     24 N          -5.6621   -4.0148    0.0033 N.ar    1  LIG1       -0.3508
     25 H          -6.3508   -3.2751    0.0023 H       1  LIG1        0.1660
     26 H          -2.6047   -5.1978    0.0038 H       1  LIG1        0.0652
     27 N          -4.2757   -8.5547    0.0063 N.1     1  LIG1       -0.1908
     28 C          -4.4599   -7.4044    0.0055 C.1     1  LIG1        0.1013
     29 C          -7.2681   -5.8862    0.0049 C.ar    1  LIG1        0.0654
     30 C          -7.7124   -7.1990    0.0044 C.ar    1  LIG1       -0.0175
     31 C          -9.1367   -7.1663    0.0052 C.ar    1  LIG1        0.0696
     32 C          -9.5252   -5.8324    0.0066 C.ar    1  LIG1        0.0197
     33 N          -8.3963   -5.0727    0.0061 N.ar    1  LIG1       -0.3583
     34 H          -8.4076   -4.0635    0.0070 H       1  LIG1        0.1654
     35 H         -10.5100   -5.3920    0.0076 H       1  LIG1        0.0820
     36 H          -7.0931   -8.0825    0.0034 H       1  LIG1        0.0652
     37 N         -10.7404   -9.1941    0.0047 N.1     1  LIG1       -0.1908
     38 C         -10.0184   -8.2814    0.0049 C.1     1  LIG1        0.1007
@<TRIPOS>BOND
     1     7     1    1
     2     1     2   ar
     3     1     5   ar
     4     6     5    1
     5     8     2    1
     6     2     3   ar
     7     5     4   ar
     8     3     4   ar
     9     3    10    1
    10     4    11    1
    11    10     9    3
    12    17    12    1
    13    11    12   ar
    14    11    15   ar
    15    12    13   ar
    16    15    16    1
    17    15    14   ar
    18    13    14   ar
    19    13    19    1
    20    14    20    1
    21    19    18    3
    22    25    24    1
    23    20    24   ar
    24    20    21   ar
    25    24    23   ar
    26    36    30    1
    27    21    26    1
    28    21    22   ar
    29    23    22   ar
    30    23    29    1
    31    30    29   ar
    32    30    31   ar
    33    22    28    1
    34    37    38    3
    35    29    33   ar
    36    38    31    1
    37    31    32   ar
    38    28    27    3
    39    33    32   ar
    40    33    34    1
    41    32    35    1
