@<TRIPOS>MOLECULE
mol_data/opt/b3lyp/geoms/mol2/13ad13ad-13ad-13ad.out
 38 41 0 0 0
SMALL
GASTEIGER

@<TRIPOS>ATOM
      1 C           1.3425   -0.2523   -0.0012 C.ar    1  LIG1        0.0035
      2 C           0.8924    1.0422   -0.0005 C.ar    1  LIG1       -0.0263
      3 C          -0.5365    0.9845    0.0001 C.ar    1  LIG1        0.0784
      4 C          -0.9166   -0.3702   -0.0000 C.ar    1  LIG1        0.0805
      5 N           0.2465   -1.0905   -0.0008 N.ar    1  LIG1       -0.3585
      6 H           0.2920   -2.0975   -0.0012 H       1  LIG1        0.1654
      7 H           2.3454   -0.6497   -0.0019 H       1  LIG1        0.0807
      8 H           1.4948    1.9376   -0.0005 H       1  LIG1        0.0645
      9 N          -2.3328    2.8338    0.0017 N.1     1  LIG1       -0.1908
     10 C          -1.4669    2.0499    0.0010 C.1     1  LIG1        0.1013
     11 C          -2.2272   -0.9735    0.0005 C.ar    1  LIG1        0.0659
     12 C          -2.6441   -2.2947    0.0006 C.ar    1  LIG1       -0.0169
     13 C          -4.0673   -2.2960    0.0013 C.ar    1  LIG1        0.0790
     14 C          -4.4989   -0.9570    0.0016 C.ar    1  LIG1        0.0810
     15 N          -3.3683   -0.1900    0.0011 N.ar    1  LIG1       -0.3508
     16 H          -3.3368    0.8202    0.0008 H       1  LIG1        0.1660
     17 H          -2.0220   -3.1776    0.0004 H       1  LIG1        0.0652
     18 N          -5.5972   -4.3758    0.0020 N.1     1  LIG1       -0.1908
     19 C          -4.9034   -3.4399    0.0017 C.1     1  LIG1        0.1013
     20 C          -5.8211   -0.3847    0.0024 C.ar    1  LIG1        0.0659
     21 C          -7.0651   -0.9921    0.0021 C.ar    1  LIG1       -0.0169
     22 C          -8.0410    0.0417    0.0032 C.ar    1  LIG1        0.0790
     23 C          -7.3717    1.2781    0.0041 C.ar    1  LIG1        0.0810
     24 N          -6.0351    0.9903    0.0036 N.ar    1  LIG1       -0.3508
     25 H          -5.3207    1.7031    0.0040 H       1  LIG1        0.1660
     26 H          -7.2575   -2.0538    0.0013 H       1  LIG1        0.0652
     27 N         -10.6162   -0.1290    0.0035 N.1     1  LIG1       -0.1908
     28 C          -9.4502   -0.0985    0.0033 C.1     1  LIG1        0.1013
     29 C          -7.8677    2.6324    0.0053 C.ar    1  LIG1        0.0654
     30 C          -7.1861    3.8409    0.0064 C.ar    1  LIG1       -0.0175
     31 C          -8.1628    4.8781    0.0073 C.ar    1  LIG1        0.0696
     32 C          -9.4136    4.2695    0.0070 C.ar    1  LIG1        0.0197
     33 N          -9.2222    2.9259    0.0057 N.ar    1  LIG1       -0.3583
     34 H          -9.9602    2.2331    0.0051 H       1  LIG1        0.1654
     35 H         -10.3999    4.7065    0.0075 H       1  LIG1        0.0820
     36 H          -6.1157    3.9897    0.0065 H       1  LIG1        0.0652
     37 N          -7.7159    7.4239    0.0096 N.1     1  LIG1       -0.1908
     38 C          -7.9204    6.2781    0.0085 C.1     1  LIG1        0.1007
@<TRIPOS>BOND
     1     7     1    1
     2     6     5    1
     3     1     5   ar
     4     1     2   ar
     5     5     4   ar
     6     8     2    1
     7     2     3   ar
     8     4     3   ar
     9     4    11    1
    10     3    10    1
    11    17    12    1
    12    11    12   ar
    13    11    15   ar
    14    12    13   ar
    15    16    15    1
    16    10     9    3
    17    15    14   ar
    18    13    14   ar
    19    13    19    1
    20    26    21    1
    21    14    20    1
    22    19    18    3
    23    21    20   ar
    24    21    22   ar
    25    20    24   ar
    26    22    28    1
    27    22    23   ar
    28    28    27    3
    29    24    25    1
    30    24    23   ar
    31    23    29    1
    32    34    33    1
    33    29    33   ar
    34    29    30   ar
    35    33    32   ar
    36    30    36    1
    37    30    31   ar
    38    32    31   ar
    39    32    35    1
    40    31    38    1
    41    38    37    3
