@<TRIPOS>MOLECULE
mol_data/opt/b3lyp/geoms/mol2/13ad13ad.out
 20 21 0 0 0
SMALL
GASTEIGER

@<TRIPOS>ATOM
      1 C           1.2530   -0.2828   -0.0007 C.ar    1  LIG1        0.0035
      2 C           0.8338    1.0210   -0.0001 C.ar    1  LIG1       -0.0263
      3 C          -0.5962    1.0059    0.0005 C.ar    1  LIG1        0.0784
      4 C          -1.0159   -0.3320    0.0002 C.ar    1  LIG1        0.0805
      5 N           0.1327   -1.0888   -0.0005 N.ar    1  LIG1       -0.3585
      6 H           0.1731   -2.0945   -0.0012 H       1  LIG1        0.1654
      7 H           2.2440   -0.7092   -0.0012 H       1  LIG1        0.0807
      8 H           1.4568    1.9023   -0.0000 H       1  LIG1        0.0645
      9 N          -2.1328    3.0815    0.0019 N.1     1  LIG1       -0.1908
     10 C          -1.4397    2.1448    0.0013 C.1     1  LIG1        0.1013
     11 C          -2.3504   -0.8912    0.0006 C.ar    1  LIG1        0.0654
     12 C          -3.5825   -0.2584    0.0007 C.ar    1  LIG1       -0.0175
     13 C          -4.5861   -1.2723    0.0011 C.ar    1  LIG1        0.0696
     14 C          -3.9424   -2.5008    0.0012 C.ar    1  LIG1        0.0197
     15 N          -2.5999   -2.2591    0.0010 N.ar    1  LIG1       -0.3583
     16 H          -1.9085   -2.9908    0.0010 H       1  LIG1        0.1654
     17 H          -4.3443   -3.5017    0.0015 H       1  LIG1        0.0820
     18 H          -3.7518    0.8069    0.0004 H       1  LIG1        0.0652
     19 N          -7.1492   -0.9332    0.0015 N.1     1  LIG1       -0.1908
     20 C          -5.9952   -1.0836    0.0014 C.1     1  LIG1        0.1007
@<TRIPOS>BOND
     1     6     5    1
     2     7     1    1
     3     1     5   ar
     4     1     2   ar
     5     5     4   ar
     6     2     8    1
     7     2     3   ar
     8     4     3   ar
     9     4    11    1
    10    18    12    1
    11     3    10    1
    12    11    12   ar
    13    11    15   ar
    14    12    13   ar
    15    15    16    1
    16    15    14   ar
    17    13    14   ar
    18    13    20    1
    19    14    17    1
    20    10     9    3
    21    20    19    3
