@<TRIPOS>MOLECULE
mol_data/opt/b3lyp/geoms/mol2/13ad13ad13ad-13ad.out
 38 41 0 0 0
SMALL
GASTEIGER

@<TRIPOS>ATOM
      1 C           1.3646   -0.0992   -0.0021 C.ar    1  LIG1        0.0035
      2 C           0.9224    1.1977   -0.0010 C.ar    1  LIG1       -0.0263
      3 C          -0.5058    1.1573   -0.0003 C.ar    1  LIG1        0.0784
      4 C          -0.9018   -0.1887   -0.0003 C.ar    1  LIG1        0.0805
      5 N           0.2603   -0.9255   -0.0013 N.ar    1  LIG1       -0.3585
      6 H           0.3210   -1.9303   -0.0020 H       1  LIG1        0.1654
      7 H           2.3634   -0.5071   -0.0031 H       1  LIG1        0.0807
      8 H           1.5301    2.0896   -0.0010 H       1  LIG1        0.0645
      9 N          -2.0919    3.1951    0.0016 N.1     1  LIG1       -0.1908
     10 C          -1.3729    2.2783    0.0007 C.1     1  LIG1        0.1013
     11 C          -2.2257   -0.7668    0.0006 C.ar    1  LIG1        0.0659
     12 C          -3.4651   -0.1489    0.0010 C.ar    1  LIG1       -0.0169
     13 C          -4.4520   -1.1721    0.0018 C.ar    1  LIG1        0.0790
     14 C          -3.7986   -2.4148    0.0020 C.ar    1  LIG1        0.0810
     15 N          -2.4558   -2.1384    0.0012 N.ar    1  LIG1       -0.3508
     16 H          -1.7509   -2.8569    0.0011 H       1  LIG1        0.1660
     17 H          -3.6484    0.9140    0.0008 H       1  LIG1        0.0652
     18 N          -7.0268   -1.0019    0.0030 N.1     1  LIG1       -0.1908
     19 C          -5.8606   -1.0235    0.0025 C.1     1  LIG1        0.1013
     20 C          -4.3154   -3.7594    0.0027 C.ar    1  LIG1        0.0659
     21 C          -3.6615   -4.9809    0.0030 C.ar    1  LIG1       -0.0169
     22 C          -4.6572   -5.9966    0.0037 C.ar    1  LIG1        0.0790
     23 C          -5.9159   -5.3676    0.0040 C.ar    1  LIG1        0.0810
     24 N          -5.6762   -4.0246    0.0034 N.ar    1  LIG1       -0.3508
     25 H          -6.3944   -3.3111    0.0033 H       1  LIG1        0.1660
     26 H          -2.5957   -5.1552    0.0027 H       1  LIG1        0.0652
     27 N          -4.3586   -8.5598    0.0045 N.1     1  LIG1       -0.1908
     28 C          -4.4565   -7.3973    0.0041 C.1     1  LIG1        0.1013
     29 C          -7.2518   -5.9111    0.0048 C.ar    1  LIG1        0.0654
     30 C          -8.4814   -5.2689    0.0054 C.ar    1  LIG1       -0.0175
     31 C          -9.4853   -6.2794    0.0057 C.ar    1  LIG1        0.0696
     32 C          -8.8362   -7.5098    0.0061 C.ar    1  LIG1        0.0197
     33 N          -7.4994   -7.2749    0.0051 N.ar    1  LIG1       -0.3583
     34 H          -6.7844   -7.9906    0.0049 H       1  LIG1        0.1654
     35 H          -9.2413   -8.5097    0.0066 H       1  LIG1        0.0820
     36 H          -8.6603   -4.2032    0.0053 H       1  LIG1        0.0652
     37 N         -12.0461   -5.9269    0.0066 N.1     1  LIG1       -0.1908
     38 C         -10.8932   -6.0865    0.0061 C.1     1  LIG1        0.1007
@<TRIPOS>BOND
     1     7     1    1
     2     1     5   ar
     3     1     2   ar
     4     6     5    1
     5     5     4   ar
     6     8     2    1
     7     2     3   ar
     8     3     4   ar
     9     3    10    1
    10     4    11    1
    11    11    12   ar
    12    11    15   ar
    13    10     9    3
    14    17    12    1
    15    12    13   ar
    16    16    15    1
    17    15    14   ar
    18    13    14   ar
    19    13    19    1
    20    14    20    1
    21    19    18    3
    22    26    21    1
    23    20    21   ar
    24    20    24   ar
    25    21    22   ar
    26    25    24    1
    27    24    23   ar
    28    22    23   ar
    29    22    28    1
    30    23    29    1
    31    28    27    3
    32    29    33   ar
    33    29    30   ar
    34    34    33    1
    35    33    32   ar
    36    36    30    1
    37    30    31   ar
    38    31    32   ar
    39    31    38    1
    40    32    35    1
    41    38    37    3
