@<TRIPOS>MOLECULE
mol_data/opt/b3lyp/geoms/mol2/13ad13ad-4ad13ad.out
 40 43 0 0 0
SMALL
GASTEIGER

@<TRIPOS>ATOM
      1 C           1.3760   -0.1423   -0.0028 C.ar    1  LIG1        0.0035
      2 C           0.9056    1.1455   -0.0016 C.ar    1  LIG1       -0.0263
      3 C          -0.5218    1.0662   -0.0002 C.ar    1  LIG1        0.0784
      4 C          -0.8808   -0.2918   -0.0006 C.ar    1  LIG1        0.0805
      5 N           0.2937   -0.9959   -0.0021 N.ar    1  LIG1       -0.3585
      6 H           0.3543   -2.0020   -0.0029 H       1  LIG1        0.1654
      7 H           2.3851   -0.5242   -0.0040 H       1  LIG1        0.0807
      8 H           1.4936    2.0504   -0.0017 H       1  LIG1        0.0645
      9 N          -2.3016    2.9338    0.0028 N.1     1  LIG1       -0.1908
     10 C          -1.4577    2.1275    0.0014 C.1     1  LIG1        0.1013
     11 C          -2.1765   -0.9280    0.0004 C.ar    1  LIG1        0.0658
     12 C          -2.5349   -2.2663    0.0002 C.ar    1  LIG1       -0.0169
     13 C          -3.9549   -2.3281    0.0015 C.ar    1  LIG1        0.0776
     14 C          -4.4498   -1.0092    0.0025 C.ar    1  LIG1        0.0646
     15 N          -3.3473   -0.1976    0.0018 N.ar    1  LIG1       -0.3520
     16 H          -3.3721    0.8129    0.0018 H       1  LIG1        0.1660
     17 H          -1.8769   -3.1228   -0.0006 H       1  LIG1        0.0652
     18 N          -5.2909   -4.5390    0.0022 N.1     1  LIG1       -0.1908
     19 C          -4.6997   -3.5350    0.0019 C.1     1  LIG1        0.1013
     20 C          -6.0334    0.9324    0.0066 C.ar    1  LIG1       -0.0519
     21 C          -7.3125    1.4567    0.0080 C.ar    1  LIG1       -0.0508
     22 C          -5.8042   -0.4616    0.0040 C.ar    1  LIG1        0.0008
     23 C          -8.4661    0.6462    0.0069 C.ar    1  LIG1        0.0157
     24 H          -7.4234    2.5341    0.0101 H       1  LIG1        0.0625
     25 C          -6.9334   -1.2889    0.0030 C.ar    1  LIG1       -0.0346
     26 C          -8.2311   -0.7567    0.0044 C.ar    1  LIG1        0.0615
     27 H          -6.8289   -2.3665    0.0010 H       1  LIG1        0.0637
     28 H          -5.2078    1.6373    0.0078 H       1  LIG1        0.0624
     29 N         -10.2085   -2.4400    0.0021 N.1     1  LIG1       -0.1908
     30 C          -9.3095   -1.6992    0.0030 C.1     1  LIG1        0.0998
     31 C          -9.7774    1.2898    0.0084 C.ar    1  LIG1        0.0490
     32 C         -10.0753    2.6486    0.0100 C.ar    1  LIG1       -0.0190
     33 C         -11.4891    2.7871    0.0111 C.ar    1  LIG1        0.0696
     34 C         -12.0258    1.5031    0.0101 C.ar    1  LIG1        0.0196
     35 N         -10.9960    0.6229    0.0085 N.ar    1  LIG1       -0.3594
     36 H         -11.1081   -0.3823    0.0074 H       1  LIG1        0.1654
     37 H         -13.0546    1.1777    0.0104 H       1  LIG1        0.0820
     38 H          -9.3734    3.4676    0.0104 H       1  LIG1        0.0652
     39 N         -12.8269    4.9988    0.0143 N.1     1  LIG1       -0.1908
     40 C         -12.2283    4.0005    0.0128 C.1     1  LIG1        0.1007
@<TRIPOS>BOND
     1     7     1    1
     2     6     5    1
     3     1     5   ar
     4     1     2   ar
     5     5     4   ar
     6     8     2    1
     7     2     3   ar
     8    17    12    1
     9     4     3   ar
    10     4    11    1
    11     3    10    1
    12    12    11   ar
    13    12    13   ar
    14    11    15   ar
    15    27    25    1
    16    10     9    3
    17    13    19    1
    18    13    14   ar
    19    16    15    1
    20    15    14   ar
    21    19    18    3
    22    29    30    3
    23    14    22    1
    24    25    22   ar
    25    25    26   ar
    26    30    26    1
    27    22    20   ar
    28    26    23   ar
    29    20    28    1
    30    20    21   ar
    31    23    21   ar
    32    23    31    1
    33    36    35    1
    34    21    24    1
    35    31    35   ar
    36    31    32   ar
    37    35    34   ar
    38    32    38    1
    39    32    33   ar
    40    34    37    1
    41    34    33   ar
    42    33    40    1
    43    40    39    3
