@<TRIPOS>MOLECULE
mol_data/opt/b3lyp/geoms/mol2/13ad13ad-13ad.out
 29 31 0 0 0
SMALL
GASTEIGER

@<TRIPOS>ATOM
      1 C           1.3142   -0.2861   -0.0010 C.ar    1  LIG1        0.0035
      2 C           0.9065    1.0228   -0.0002 C.ar    1  LIG1       -0.0263
      3 C          -0.5234    1.0132    0.0002 C.ar    1  LIG1        0.0784
      4 C          -0.9479   -0.3251    0.0002 C.ar    1  LIG1        0.0805
      5 N           0.1914   -1.0859   -0.0005 N.ar    1  LIG1       -0.3585
      6 H           0.2029   -2.0936   -0.0008 H       1  LIG1        0.1654
      7 H           2.3034   -0.7168   -0.0016 H       1  LIG1        0.0807
      8 H           1.5373    1.8984   -0.0001 H       1  LIG1        0.0645
      9 N          -2.1944    2.9795    0.0014 N.1     1  LIG1       -0.1908
     10 C          -1.4019    2.1229    0.0008 C.1     1  LIG1        0.1013
     11 C          -2.2719   -0.9004    0.0006 C.ar    1  LIG1        0.0659
     12 C          -2.6849   -2.2217    0.0005 C.ar    1  LIG1       -0.0169
     13 C          -4.1083   -2.2219    0.0011 C.ar    1  LIG1        0.0790
     14 C          -4.5405   -0.8836    0.0017 C.ar    1  LIG1        0.0810
     15 N          -3.4132   -0.1144    0.0014 N.ar    1  LIG1       -0.3508
     16 H          -3.4063    0.8977    0.0016 H       1  LIG1        0.1660
     17 H          -2.0612   -3.1033    0.0000 H       1  LIG1        0.0652
     18 N          -5.7350   -4.2252    0.0012 N.1     1  LIG1       -0.1908
     19 C          -4.9697   -3.3445    0.0011 C.1     1  LIG1        0.1013
     20 C          -5.8640   -0.3093    0.0024 C.ar    1  LIG1        0.0654
     21 C          -6.2661    1.0181    0.0031 C.ar    1  LIG1       -0.0175
     22 C          -7.6909    1.0276    0.0034 C.ar    1  LIG1        0.0696
     23 C          -8.1152   -0.2971    0.0036 C.ar    1  LIG1        0.0197
     24 N          -7.0112   -1.0870    0.0027 N.ar    1  LIG1       -0.3583
     25 H          -7.0207   -2.0987    0.0023 H       1  LIG1        0.1654
     26 H          -9.1126   -0.7081    0.0040 H       1  LIG1        0.0820
     27 H          -5.6302    1.8918    0.0032 H       1  LIG1        0.0652
     28 N          -9.2309    3.1038    0.0045 N.1     1  LIG1       -0.1908
     29 C          -8.5385    2.1682    0.0040 C.1     1  LIG1        0.1007
@<TRIPOS>BOND
     1     7     1    1
     2     1     5   ar
     3     1     2   ar
     4     6     5    1
     5     5     4   ar
     6     2     8    1
     7     2     3   ar
     8    17    12    1
     9     4     3   ar
    10     4    11    1
    11     3    10    1
    12    12    11   ar
    13    12    13   ar
    14    11    15   ar
    15    10     9    3
    16    13    19    1
    17    13    14   ar
    18    19    18    3
    19    15    16    1
    20    15    14   ar
    21    14    20    1
    22    25    24    1
    23    20    24   ar
    24    20    21   ar
    25    24    23   ar
    26    21    27    1
    27    21    22   ar
    28    22    23   ar
    29    22    29    1
    30    23    26    1
    31    29    28    3
