@<TRIPOS>MOLECULE
mol_data/opt/b3lyp/geoms/mol2/13ad13ad-.out
 20 21 0 0 0
SMALL
GASTEIGER

@<TRIPOS>ATOM
      1 C           1.2380   -0.2991   -0.0001 C.ar    1  LIG1        0.0035
      2 C           0.8538    1.0164   -0.0003 C.ar    1  LIG1       -0.0263
      3 C          -0.5769    1.0326    0.0002 C.ar    1  LIG1        0.0784
      4 C          -1.0251   -0.2972    0.0003 C.ar    1  LIG1        0.0805
      5 N           0.1000   -1.0779    0.0001 N.ar    1  LIG1       -0.3585
      6 H           0.0919   -2.0856    0.0001 H       1  LIG1        0.1654
      7 H           2.2189   -0.7482   -0.0003 H       1  LIG1        0.0807
      8 H           1.4997    1.8809   -0.0006 H       1  LIG1        0.0645
      9 N          -2.1950    3.0430    0.0005 N.1     1  LIG1       -0.1908
     10 C          -1.4308    2.1612    0.0004 C.1     1  LIG1        0.1013
     11 C          -2.3580   -0.8565    0.0006 C.ar    1  LIG1        0.0654
     12 C          -2.7827   -2.1757    0.0006 C.ar    1  LIG1       -0.0175
     13 C          -4.2088   -2.1648    0.0011 C.ar    1  LIG1        0.0696
     14 C          -4.6115   -0.8344    0.0011 C.ar    1  LIG1        0.0197
     15 N          -3.4933   -0.0629    0.0010 N.ar    1  LIG1       -0.3583
     16 H          -3.4848    0.9493    0.0010 H       1  LIG1        0.1654
     17 H          -5.6018   -0.4065    0.0014 H       1  LIG1        0.0820
     18 H          -2.1649   -3.0618    0.0004 H       1  LIG1        0.0652
     19 N          -5.7605   -4.2318    0.0016 N.1     1  LIG1       -0.1908
     20 C          -5.0672   -3.2967    0.0014 C.1     1  LIG1        0.1007
@<TRIPOS>BOND
     1     8     2    1
     2     2     1   ar
     3     2     3   ar
     4     7     1    1
     5     1     5   ar
     6     6     5    1
     7     5     4   ar
     8     3     4   ar
     9     3    10    1
    10     4    11    1
    11    10     9    3
    12    18    12    1
    13    12    11   ar
    14    12    13   ar
    15    11    15   ar
    16    16    15    1
    17    15    14   ar
    18    14    13   ar
    19    14    17    1
    20    13    20    1
    21    20    19    3
