@<TRIPOS>MOLECULE
mol_data/opt/b3lyp/geoms/mol2/13ad13ad-13ad13ad-.out
 38 41 0 0 0
SMALL
GASTEIGER

@<TRIPOS>ATOM
      1 C           1.3934   -0.2863   -0.0017 C.ar    1  LIG1        0.0035
      2 C           0.9919    1.0246   -0.0011 C.ar    1  LIG1       -0.0263
      3 C          -0.4378    1.0214   -0.0006 C.ar    1  LIG1        0.0784
      4 C          -0.8684   -0.3152   -0.0002 C.ar    1  LIG1        0.0805
      5 N           0.2673   -1.0811   -0.0008 N.ar    1  LIG1       -0.3585
      6 H           0.2751   -2.0889   -0.0008 H       1  LIG1        0.1654
      7 H           2.3807   -0.7214   -0.0024 H       1  LIG1        0.0807
      8 H           1.6267    1.8972   -0.0013 H       1  LIG1        0.0645
      9 N          -2.1056    2.9901    0.0004 N.1     1  LIG1       -0.1908
     10 C          -1.3128    2.1338   -0.0002 C.1     1  LIG1        0.1013
     11 C          -2.1957   -0.8829    0.0007 C.ar    1  LIG1        0.0659
     12 C          -2.6175   -2.2020    0.0010 C.ar    1  LIG1       -0.0169
     13 C          -4.0402   -2.1927    0.0018 C.ar    1  LIG1        0.0790
     14 C          -4.4636   -0.8510    0.0021 C.ar    1  LIG1        0.0810
     15 N          -3.3310   -0.0889    0.0014 N.ar    1  LIG1       -0.3508
     16 H          -3.3161    0.9232    0.0013 H       1  LIG1        0.1660
     17 H          -1.9995   -3.0875    0.0007 H       1  LIG1        0.0652
     18 N          -5.6982   -4.1696    0.0028 N.1     1  LIG1       -0.1908
     19 C          -4.9139   -3.3057    0.0023 C.1     1  LIG1        0.1013
     20 C          -5.7834   -0.2735    0.0029 C.ar    1  LIG1        0.0659
     21 C          -6.1848    1.0526    0.0033 C.ar    1  LIG1       -0.0169
     22 C          -7.6064    1.0616    0.0041 C.ar    1  LIG1        0.0790
     23 C          -8.0502   -0.2741    0.0043 C.ar    1  LIG1        0.0810
     24 N          -6.9304   -1.0528    0.0036 N.ar    1  LIG1       -0.3508
     25 H          -6.9329   -2.0646    0.0034 H       1  LIG1        0.1660
     26 H          -5.5501    1.9269    0.0031 H       1  LIG1        0.0652
     27 N          -9.2322    3.0657    0.0051 N.1     1  LIG1       -0.1908
     28 C          -8.4637    2.1881    0.0046 C.1     1  LIG1        0.1013
     29 C          -9.3789   -0.8361    0.0051 C.ar    1  LIG1        0.0654
     30 C          -9.7940   -2.1597    0.0056 C.ar    1  LIG1       -0.0175
     31 C         -11.2185   -2.1561    0.0059 C.ar    1  LIG1        0.0696
     32 C         -11.6302   -0.8272    0.0064 C.ar    1  LIG1        0.0197
     33 N         -10.5190   -0.0479    0.0055 N.ar    1  LIG1       -0.3583
     34 H         -10.5189    0.9641    0.0053 H       1  LIG1        0.1654
     35 H         -12.6236   -0.4065    0.0070 H       1  LIG1        0.0820
     36 H          -9.1676   -3.0401    0.0055 H       1  LIG1        0.0652
     37 N         -12.7745   -4.2201    0.0067 N.1     1  LIG1       -0.1908
     38 C         -12.0757   -3.2894    0.0063 C.1     1  LIG1        0.1007
@<TRIPOS>BOND
     1     7     1    1
     2     1     2   ar
     3     1     5   ar
     4     8     2    1
     5     2     3   ar
     6     6     5    1
     7     5     4   ar
     8     3    10    1
     9     3     4   ar
    10    10     9    3
    11     4    11    1
    12    11    12   ar
    13    11    15   ar
    14    17    12    1
    15    12    13   ar
    16    16    15    1
    17    15    14   ar
    18    13    14   ar
    19    13    19    1
    20    14    20    1
    21    19    18    3
    22    20    21   ar
    23    20    24   ar
    24    26    21    1
    25    21    22   ar
    26    25    24    1
    27    24    23   ar
    28    22    23   ar
    29    22    28    1
    30    23    29    1
    31    28    27    3
    32    29    33   ar
    33    29    30   ar
    34    34    33    1
    35    36    30    1
    36    33    32   ar
    37    30    31   ar
    38    31    38    1
    39    31    32   ar
    40    38    37    3
    41    32    35    1
