@<TRIPOS>MOLECULE
mol_data/opt/b3lyp/geoms/mol2/13ad13ad13ad13ad.out
 38 41 0 0 0
SMALL
GASTEIGER

@<TRIPOS>ATOM
      1 C           1.0161    0.2826   -1.2784 C.ar    1  LIG1        0.0035
      2 C           0.9047    1.1822   -0.2497 C.ar    1  LIG1       -0.0263
      3 C          -0.3714    0.9703    0.3615 C.ar    1  LIG1        0.0784
      4 C          -1.0080   -0.0663   -0.3266 C.ar    1  LIG1        0.0805
      5 N          -0.1353   -0.4766   -1.3095 N.ar    1  LIG1       -0.3585
      6 H          -0.3872   -1.0914   -2.0682 H       1  LIG1        0.1654
      7 H           1.8119    0.1166   -1.9879 H       1  LIG1        0.0807
      8 H           1.6416    1.9089    0.0570 H       1  LIG1        0.0645
      9 N          -1.3268    2.2245    2.4083 N.1     1  LIG1       -0.1908
     10 C          -0.8969    1.6553    1.4879 C.1     1  LIG1        0.1013
     11 C          -2.3058   -0.6747   -0.1224 C.ar    1  LIG1        0.0659
     12 C          -3.5101   -0.1216    0.2675 C.ar    1  LIG1       -0.0169
     13 C          -4.4748   -1.1689    0.2986 C.ar    1  LIG1        0.0790
     14 C          -3.8375   -2.3572   -0.0760 C.ar    1  LIG1        0.0810
     15 N          -2.5247   -2.0316   -0.3248 N.ar    1  LIG1       -0.3508
     16 H          -1.8216   -2.6855   -0.6319 H       1  LIG1        0.1660
     17 H          -3.6855    0.9170    0.5022 H       1  LIG1        0.0652
     18 N          -6.9708   -0.9547    0.9317 N.1     1  LIG1       -0.1908
     19 C          -5.8447   -1.0515    0.6530 C.1     1  LIG1        0.1013
     20 C          -4.3508   -3.7050   -0.1906 C.ar    1  LIG1        0.0659
     21 C          -5.5727   -4.1680   -0.6387 C.ar    1  LIG1       -0.0169
     22 C          -5.5504   -5.5897   -0.5577 C.ar    1  LIG1        0.0790
     23 C          -4.3031   -5.9760   -0.0532 C.ar    1  LIG1        0.0810
     24 N          -3.5936   -4.8181    0.1569 N.ar    1  LIG1       -0.3508
     25 H          -2.6622   -4.7851    0.5410 H       1  LIG1        0.1660
     26 H          -6.3917   -3.5602   -0.9914 H       1  LIG1        0.0652
     27 N          -7.4522   -7.2039   -1.2313 N.1     1  LIG1       -0.1908
     28 C          -6.5987   -6.4760   -0.9202 C.1     1  LIG1        0.1013
     29 C          -3.7696   -7.2885    0.2415 C.ar    1  LIG1        0.0654
     30 C          -3.9538   -8.4985   -0.3988 C.ar    1  LIG1       -0.0175
     31 C          -3.1792   -9.4728    0.3016 C.ar    1  LIG1        0.0696
     32 C          -2.5464   -8.8280    1.3545 C.ar    1  LIG1        0.0197
     33 N          -2.8942   -7.5097    1.3003 N.ar    1  LIG1       -0.3583
     34 H          -2.7222   -6.8535    2.0469 H       1  LIG1        0.1654
     35 H          -1.8932   -9.2180    2.1194 H       1  LIG1        0.0820
     36 H          -4.5555   -8.6683   -1.2784 H       1  LIG1        0.0652
     37 N          -2.9310  -11.9785   -0.2853 N.1     1  LIG1       -0.1908
     38 C          -3.0452  -10.8515   -0.0194 C.1     1  LIG1        0.1007
@<TRIPOS>BOND
     1     6     5    1
     2     7     1    1
     3     5     1   ar
     4     5     4   ar
     5    36    30    1
     6     1     2   ar
     7    27    28    3
     8    26    21    1
     9    28    22    1
    10    21    22   ar
    11    21    20   ar
    12    16    15    1
    13    22    23   ar
    14    30    29   ar
    15    30    31   ar
    16     4    11    1
    17     4     3   ar
    18    15    11   ar
    19    15    14   ar
    20    37    38    3
    21     2     8    1
    22     2     3   ar
    23    20    14    1
    24    20    24   ar
    25    11    12   ar
    26    14    13   ar
    27    23    24   ar
    28    23    29    1
    29    38    31    1
    30    24    25    1
    31    29    33   ar
    32    12    13   ar
    33    12    17    1
    34    13    19    1
    35    31    32   ar
    36     3    10    1
    37    19    18    3
    38    33    32   ar
    39    33    34    1
    40    32    35    1
    41    10     9    3
