@<TRIPOS>MOLECULE
mol_data/opt/b3lyp/geoms/mol2/13ad13ad-13ad-13ad-.out
 38 41 0 0 0
SMALL
GASTEIGER

@<TRIPOS>ATOM
      1 C           1.3025   -0.1546   -0.0017 C.ar    1  LIG1        0.0035
      2 C           0.8025    1.1208   -0.0003 C.ar    1  LIG1       -0.0263
      3 C          -0.6240    1.0079    0.0004 C.ar    1  LIG1        0.0784
      4 C          -0.9505   -0.3636   -0.0003 C.ar    1  LIG1        0.0805
      5 N           0.2397   -1.0357   -0.0015 N.ar    1  LIG1       -0.3585
      6 H           0.3246   -2.0403   -0.0024 H       1  LIG1        0.1654
      7 H           2.3202   -0.5123   -0.0026 H       1  LIG1        0.0807
      8 H           1.3702    2.0386   -0.0000 H       1  LIG1        0.0645
      9 N          -2.4937    2.7835    0.0032 N.1     1  LIG1       -0.1908
     10 C          -1.5939    2.0371    0.0018 C.1     1  LIG1        0.1013
     11 C          -2.2401   -1.0095    0.0002 C.ar    1  LIG1        0.0659
     12 C          -2.6405   -2.3366    0.0002 C.ar    1  LIG1       -0.0169
     13 C          -4.0651   -2.3557    0.0010 C.ar    1  LIG1        0.0790
     14 C          -4.5130   -1.0218    0.0015 C.ar    1  LIG1        0.0810
     15 N          -3.3918   -0.2444    0.0010 N.ar    1  LIG1       -0.3508
     16 H          -3.3729    0.7644    0.0009 H       1  LIG1        0.1660
     17 H          -2.0077   -3.2119   -0.0003 H       1  LIG1        0.0652
     18 N          -5.5780   -4.4481    0.0016 N.1     1  LIG1       -0.1908
     19 C          -4.8915   -3.5068    0.0013 C.1     1  LIG1        0.1013
     20 C          -5.8274   -0.4355    0.0025 C.ar    1  LIG1        0.0659
     21 C          -7.0906   -0.9995    0.0029 C.ar    1  LIG1       -0.0169
     22 C          -8.0351    0.0636    0.0040 C.ar    1  LIG1        0.0790
     23 C          -7.3283    1.2790    0.0044 C.ar    1  LIG1        0.0810
     24 N          -5.9988    0.9461    0.0035 N.ar    1  LIG1       -0.3508
     25 H          -5.2482    1.6185    0.0030 H       1  LIG1        0.1660
     26 H          -7.3180   -2.0545    0.0025 H       1  LIG1        0.0652
     27 N         -10.6065   -0.1772    0.0054 N.1     1  LIG1       -0.1908
     28 C          -9.4464   -0.0742    0.0048 C.1     1  LIG1        0.1013
     29 C          -7.7988    2.6434    0.0054 C.ar    1  LIG1        0.0654
     30 C          -9.0926    3.1413    0.0051 C.ar    1  LIG1       -0.0175
     31 C          -9.0033    4.5633    0.0065 C.ar    1  LIG1        0.0696
     32 C          -7.6560    4.8990    0.0077 C.ar    1  LIG1        0.0197
     33 N          -6.9415    3.7397    0.0070 N.ar    1  LIG1       -0.3583
     34 H          -5.9332    3.7167    0.0079 H       1  LIG1        0.1654
     35 H          -7.1766    5.8654    0.0090 H       1  LIG1        0.0820
     36 H         -10.0001    2.5579    0.0040 H       1  LIG1        0.0652
     37 N         -10.9616    6.2513    0.0067 N.1     1  LIG1       -0.1908
     38 C         -10.0815    5.4901    0.0066 C.1     1  LIG1        0.1007
@<TRIPOS>BOND
     1     7     1    1
     2     6     5    1
     3     1     5   ar
     4     1     2   ar
     5     5     4   ar
     6     2     8    1
     7     2     3   ar
     8     4    11    1
     9     4     3   ar
    10    17    12    1
    11    12    11   ar
    12    12    13   ar
    13    11    15   ar
    14     3    10    1
    15    16    15    1
    16    13    19    1
    17    13    14   ar
    18    15    14   ar
    19    19    18    3
    20    14    20    1
    21    10     9    3
    22    26    21    1
    23    20    21   ar
    24    20    24   ar
    25    21    22   ar
    26    25    24    1
    27    24    23   ar
    28    36    30    1
    29    22    23   ar
    30    22    28    1
    31    23    29    1
    32    28    27    3
    33    30    29   ar
    34    30    31   ar
    35    29    33   ar
    36    31    38    1
    37    31    32   ar
    38    38    37    3
    39    33    32   ar
    40    33    34    1
    41    32    35    1
