@<TRIPOS>MOLECULE
mol_data/opt/b3lyp/geoms/mol2/13ad12hh12ih12ea.out
 43 46 0 0 0
SMALL
GASTEIGER

@<TRIPOS>ATOM
      1 C           0.9712    0.1916    1.1992 C.ar    1  LIG1        0.0035
      2 C           0.7019    1.3928    0.5979 C.ar    1  LIG1       -0.0263
      3 C          -0.5964    1.2855   -0.0008 C.ar    1  LIG1        0.0800
      4 C          -1.0886   -0.0031    0.2772 C.ar    1  LIG1        0.1016
      5 N          -0.1116   -0.6374    1.0002 N.ar    1  LIG1       -0.3572
      6 H          -0.2056   -1.5892    1.3203 H       1  LIG1        0.1655
      7 H           1.8376   -0.1446    1.7473 H       1  LIG1        0.0807
      8 H           1.3450    2.2590    0.5620 H       1  LIG1        0.0645
      9 N          -1.7721    3.0357   -1.4876 N.1     1  LIG1       -0.1908
     10 C          -1.2317    2.2575   -0.8048 C.1     1  LIG1        0.1014
     11 C          -2.3109   -0.6863   -0.0339 C.ar    1  LIG1        0.1755
     12 C          -3.5794   -0.3139   -0.4479 C.ar    1  LIG1        0.0942
     13 C          -4.3366   -1.5324   -0.5393 C.ar    1  LIG1        0.0958
     14 C          -3.5144   -2.5548   -0.1235 C.ar    1  LIG1        0.1933
     15 O          -2.2721   -2.0523    0.1760 O.2     1  LIG1       -0.4464
     16 N          -4.1129    0.9356   -0.6687 N.pl3   1  LIG1       -0.3535
     17 H          -3.5361    1.6739   -1.0485 H       1  LIG1        0.1425
     18 H          -5.0870    0.9693   -0.9220 H       1  LIG1        0.1425
     19 N          -5.6739   -1.5753   -0.9671 N.pl3   1  LIG1       -0.3535
     20 H          -5.7985   -1.0650   -1.8383 H       1  LIG1        0.1425
     21 H          -5.9964   -2.5264   -1.1062 H       1  LIG1        0.1425
     22 C          -3.7186   -3.9712    0.0186 C.ar    1  LIG1        0.1773
     23 C          -4.8012   -4.7182    0.4324 C.ar    1  LIG1        0.0199
     24 C          -4.3966   -6.0914    0.3309 C.ar    1  LIG1        0.0778
     25 C          -3.0877   -6.0869   -0.1275 C.ar    1  LIG1        0.1927
     26 O          -2.6752   -4.7819   -0.3163 O.2     1  LIG1       -0.4463
     27 C          -6.0989   -4.2489    1.0181 C.3     1  LIG1       -0.0342
     28 H          -6.2908   -4.7556    1.9714 H       1  LIG1        0.0279
     29 H          -6.9585   -4.4600    0.3668 H       1  LIG1        0.0279
     30 H          -6.0863   -3.1739    1.2098 H       1  LIG1        0.0279
     31 N          -5.1629   -7.1582    0.7697 N.pl3   1  LIG1       -0.3547
     32 H          -6.1598   -6.9987    0.7155 H       1  LIG1        0.1424
     33 H          -4.9066   -8.0652    0.3958 H       1  LIG1        0.1424
     34 C          -2.1148   -7.1055   -0.3840 C.ar    1  LIG1        0.1868
     35 C          -2.1854   -8.4651   -0.6728 C.ar    1  LIG1        0.0735
     36 C          -0.8197   -8.9184   -0.7819 C.ar    1  LIG1       -0.0077
     37 C          -0.0373   -7.8320   -0.5788 C.ar    1  LIG1        0.0939
     38 O          -0.8037   -6.7258   -0.3322 O.2     1  LIG1       -0.4585
     39 H           1.0288   -7.6706   -0.5812 H       1  LIG1        0.1030
     40 C          -3.3398   -9.2494   -0.9013 C.1     1  LIG1       -0.0658
     41 C          -4.3150   -9.9430   -1.1025 C.1     1  LIG1       -0.1138
     42 H          -5.1581  -10.5551   -1.3249 H       1  LIG1        0.1232
     43 H          -0.4997   -9.9256   -1.0027 H       1  LIG1        0.0661
@<TRIPOS>BOND
     1    20    19    1
     2     9    10    3
     3    42    41    1
     4    21    19    1
     5    41    40    3
     6    17    16    1
     7    43    36    1
     8    19    13    1
     9    18    16    1
    10    40    35    1
    11    10     3    1
    12    36    35   ar
    13    36    37   ar
    14    35    34   ar
    15    16    12    1
    16    39    37    1
    17    37    38   ar
    18    13    12   ar
    19    13    14   ar
    20    12    11   ar
    21    34    38   ar
    22    34    25    1
    23    26    25   ar
    24    26    22   ar
    25    25    24   ar
    26    14    22    1
    27    14    15   ar
    28    11    15   ar
    29    11     4    1
    30     3     4   ar
    31     3     2   ar
    32    22    23   ar
    33     4     5   ar
    34    24    23   ar
    35    24    31    1
    36    29    27    1
    37    33    31    1
    38    23    27    1
    39     8     2    1
    40     2     1   ar
    41    32    31    1
    42     5     1   ar
    43     5     6    1
    44    27    30    1
    45    27    28    1
    46     1     7    1
