@<TRIPOS>MOLECULE
mol_data/opt/b3lyp/geoms/mol2/13ad13ad13ad.out
 29 31 0 0 0
SMALL
GASTEIGER

@<TRIPOS>ATOM
      1 C           1.3203   -0.1384   -0.0018 C.ar    1  LIG1        0.0035
      2 C           0.8723    1.1558   -0.0009 C.ar    1  LIG1       -0.0263
      3 C          -0.5563    1.1100    0.0000 C.ar    1  LIG1        0.0784
      4 C          -0.9478   -0.2376   -0.0001 C.ar    1  LIG1        0.0805
      5 N           0.2181   -0.9693   -0.0012 N.ar    1  LIG1       -0.3585
      6 H           0.2836   -1.9733   -0.0020 H       1  LIG1        0.1654
      7 H           2.3206   -0.5424   -0.0028 H       1  LIG1        0.0807
      8 H           1.4759    2.0505   -0.0009 H       1  LIG1        0.0645
      9 N          -2.1392    3.1502    0.0021 N.1     1  LIG1       -0.1908
     10 C          -1.4241    2.2303    0.0011 C.1     1  LIG1        0.1013
     11 C          -2.2698   -0.8195    0.0007 C.ar    1  LIG1        0.0659
     12 C          -3.5109   -0.2083    0.0011 C.ar    1  LIG1       -0.0169
     13 C          -4.4982   -1.2305    0.0018 C.ar    1  LIG1        0.0790
     14 C          -3.8467   -2.4728    0.0018 C.ar    1  LIG1        0.0810
     15 N          -2.4992   -2.1928    0.0011 N.ar    1  LIG1       -0.3508
     16 H          -1.7774   -2.8926    0.0003 H       1  LIG1        0.1660
     17 H          -3.6984    0.8540    0.0010 H       1  LIG1        0.0652
     18 N          -7.0566   -0.8758    0.0031 N.1     1  LIG1       -0.1908
     19 C          -5.9023   -1.0303    0.0026 C.1     1  LIG1        0.1013
     20 C          -4.3923   -3.8099    0.0024 C.ar    1  LIG1        0.0654
     21 C          -5.7132   -4.2315    0.0015 C.ar    1  LIG1       -0.0175
     22 C          -5.7095   -5.6569    0.0025 C.ar    1  LIG1        0.0696
     23 C          -4.3866   -6.0742    0.0044 C.ar    1  LIG1        0.0197
     24 N          -3.6044   -4.9568    0.0041 N.ar    1  LIG1       -0.3583
     25 H          -2.5987   -4.9921    0.0055 H       1  LIG1        0.1654
     26 H          -3.9663   -7.0677    0.0058 H       1  LIG1        0.0820
     27 H          -6.5851   -3.5963    0.0001 H       1  LIG1        0.0652
     28 N          -7.7638   -7.2267    0.0016 N.1     1  LIG1       -0.1908
     29 C          -6.8412   -6.5178    0.0020 C.1     1  LIG1        0.1007
@<TRIPOS>BOND
     1     7     1    1
     2     6     5    1
     3     1     5   ar
     4     1     2   ar
     5     5     4   ar
     6     8     2    1
     7     2     3   ar
     8     4     3   ar
     9     4    11    1
    10     3    10    1
    11    27    21    1
    12    16    15    1
    13    11    12   ar
    14    11    15   ar
    15    17    12    1
    16    12    13   ar
    17    10     9    3
    18    15    14   ar
    19    21    20   ar
    20    21    22   ar
    21    28    29    3
    22    14    13   ar
    23    14    20    1
    24    13    19    1
    25    29    22    1
    26    20    24   ar
    27    22    23   ar
    28    19    18    3
    29    24    23   ar
    30    24    25    1
    31    23    26    1
