@<TRIPOS>MOLECULE
mol_data/opt/b3lyp/geoms/mol2/13ad13ad13ad13ad-.out
 38 41 0 0 0
SMALL
GASTEIGER

@<TRIPOS>ATOM
      1 C           1.2917   -0.0461   -0.0518 C.ar    1  LIG1        0.0035
      2 C           0.8426    1.2099   -0.3692 C.ar    1  LIG1       -0.0263
      3 C          -0.5867    1.1701   -0.3358 C.ar    1  LIG1        0.0784
      4 C          -0.9698   -0.1305    0.0094 C.ar    1  LIG1        0.0805
      5 N           0.1924   -0.8517    0.1617 N.ar    1  LIG1       -0.3585
      6 H           0.2340   -1.7774    0.5583 H       1  LIG1        0.1654
      7 H           2.2938   -0.4357    0.0390 H       1  LIG1        0.0807
      8 H           1.4468    2.0706   -0.6124 H       1  LIG1        0.0645
      9 N          -2.1985    3.1224   -0.8491 N.1     1  LIG1       -0.1908
     10 C          -1.4718    2.2406   -0.6235 C.1     1  LIG1        0.1013
     11 C          -2.2808   -0.7132    0.1773 C.ar    1  LIG1        0.0659
     12 C          -3.4793   -0.1438    0.5546 C.ar    1  LIG1       -0.0169
     13 C          -4.4650   -1.1747    0.5524 C.ar    1  LIG1        0.0790
     14 C          -3.8446   -2.3664    0.1668 C.ar    1  LIG1        0.0810
     15 N          -2.5089   -2.0744   -0.0284 N.ar    1  LIG1       -0.3508
     16 H          -1.9170   -2.6370   -0.6230 H       1  LIG1        0.1660
     17 H          -3.6363    0.8880    0.8291 H       1  LIG1        0.0652
     18 N          -6.9543   -0.9450    1.2046 N.1     1  LIG1       -0.1908
     19 C          -5.8302   -1.0434    0.9172 C.1     1  LIG1        0.1013
     20 C          -4.3829   -3.6919   -0.0087 C.ar    1  LIG1        0.0659
     21 C          -5.6639   -4.1138   -0.3101 C.ar    1  LIG1       -0.0169
     22 C          -5.6355   -5.5357   -0.3778 C.ar    1  LIG1        0.0790
     23 C          -4.3248   -5.9633   -0.1134 C.ar    1  LIG1        0.0810
     24 N          -3.5843   -4.8275    0.0904 N.ar    1  LIG1       -0.3508
     25 H          -2.6581   -4.8342    0.4886 H       1  LIG1        0.1660
     26 H          -6.5209   -3.4806   -0.4806 H       1  LIG1        0.0652
     27 N          -7.5385   -7.2015   -0.8929 N.1     1  LIG1       -0.1908
     28 C          -6.7093   -6.4125   -0.6699 C.1     1  LIG1        0.1013
     29 C          -3.7469   -7.2825   -0.0380 C.ar    1  LIG1        0.0654
     30 C          -2.4308   -7.6767    0.1518 C.ar    1  LIG1       -0.0175
     31 C          -2.4077   -9.1012    0.1520 C.ar    1  LIG1        0.0696
     32 C          -3.7149   -9.5347   -0.0413 C.ar    1  LIG1        0.0197
     33 N          -4.5053   -8.4363   -0.1518 N.ar    1  LIG1       -0.3583
     34 H          -5.5051   -8.4524   -0.3102 H       1  LIG1        0.1654
     35 H          -4.1141  -10.5349   -0.1050 H       1  LIG1        0.0820
     36 H          -1.5675   -7.0378    0.2664 H       1  LIG1        0.0652
     37 N          -0.3185  -10.5935    0.4486 N.1     1  LIG1       -0.1908
     38 C          -1.2650   -9.9295    0.3141 C.1     1  LIG1        0.1007
@<TRIPOS>BOND
     1    27    28    3
     2     9    10    3
     3    28    22    1
     4    10     3    1
     5    16    15    1
     6     8     2    1
     7    26    21    1
     8    22    21   ar
     9    22    23   ar
    10     2     3   ar
    11     2     1   ar
    12     3     4   ar
    13    34    33    1
    14    21    20   ar
    15    33    32   ar
    16    33    29   ar
    17    23    29    1
    18    23    24   ar
    19    35    32    1
    20     1     7    1
    21     1     5   ar
    22    32    31   ar
    23    29    30   ar
    24    15    14   ar
    25    15    11   ar
    26    20    24   ar
    27    20    14    1
    28     4     5   ar
    29     4    11    1
    30    24    25    1
    31    30    31   ar
    32    30    36    1
    33    31    38    1
    34     5     6    1
    35    14    13   ar
    36    11    12   ar
    37    38    37    3
    38    13    12   ar
    39    13    19    1
    40    12    17    1
    41    19    18    3
