@<TRIPOS>MOLECULE
mol_data/opt/b3lyp/geoms/mol2/13ae13ae13ae-13ae.out
 42 45 0 0 0
SMALL
GASTEIGER

@<TRIPOS>ATOM
      1 C           1.3495   -0.1286   -0.0024 C.ar    1  LIG1        0.0034
      2 C           0.9167    1.1719   -0.0015 C.ar    1  LIG1       -0.0283
      3 C          -0.5151    1.1555   -0.0002 C.ar    1  LIG1        0.0513
      4 C          -0.9186   -0.1898   -0.0004 C.ar    1  LIG1        0.0785
      5 N           0.2377   -0.9431   -0.0017 N.ar    1  LIG1       -0.3585
      6 H           0.2841   -1.9481   -0.0027 H       1  LIG1        0.1654
      7 H           2.3446   -0.5462   -0.0035 H       1  LIG1        0.0807
      8 H           1.5341    2.0576   -0.0017 H       1  LIG1        0.0645
      9 C          -1.3510    2.2991    0.0011 C.1     1  LIG1       -0.0675
     10 C          -2.0382    3.2973    0.0023 C.1     1  LIG1       -0.1138
     11 H          -2.6419    4.1747    0.0037 H       1  LIG1        0.1232
     12 C          -2.2413   -0.7684    0.0005 C.ar    1  LIG1        0.0657
     13 C          -3.4846   -0.1578    0.0010 C.ar    1  LIG1       -0.0189
     14 C          -4.4797   -1.1775    0.0019 C.ar    1  LIG1        0.0520
     15 C          -3.8162   -2.4155    0.0020 C.ar    1  LIG1        0.0790
     16 N          -2.4697   -2.1387    0.0012 N.ar    1  LIG1       -0.3509
     17 H          -1.7666   -2.8582    0.0013 H       1  LIG1        0.1660
     18 H          -3.6603    0.9055    0.0006 H       1  LIG1        0.0652
     19 C          -5.8839   -0.9821    0.0026 C.1     1  LIG1       -0.0675
     20 C          -7.0866   -0.8217    0.0030 C.1     1  LIG1       -0.1138
     21 H          -8.1372   -0.6436    0.0027 H       1  LIG1        0.1232
     22 C          -4.3194   -3.7640    0.0029 C.ar    1  LIG1        0.0658
     23 C          -3.6646   -4.9867    0.0031 C.ar    1  LIG1       -0.0189
     24 C          -4.6541   -6.0129    0.0040 C.ar    1  LIG1        0.0520
     25 C          -5.9111   -5.3796    0.0043 C.ar    1  LIG1        0.0790
     26 N          -5.6756   -4.0319    0.0036 N.ar    1  LIG1       -0.3509
     27 H          -6.3826   -3.3084    0.0036 H       1  LIG1        0.1660
     28 H          -2.5975   -5.1567    0.0027 H       1  LIG1        0.0652
     29 C          -4.4160   -7.4096    0.0045 C.1     1  LIG1       -0.0675
     30 C          -4.2159   -8.6066    0.0050 C.1     1  LIG1       -0.1138
     31 H          -4.0094   -9.6518    0.0061 H       1  LIG1        0.1232
     32 C          -7.2474   -5.9216    0.0052 C.ar    1  LIG1        0.0653
     33 C          -8.4851   -5.2942    0.0057 C.ar    1  LIG1       -0.0195
     34 C          -9.4887   -6.3104    0.0066 C.ar    1  LIG1        0.0426
     35 C          -8.8219   -7.5320    0.0064 C.ar    1  LIG1        0.0177
     36 N          -7.4825   -7.2840    0.0057 N.ar    1  LIG1       -0.3584
     37 H          -6.7454   -7.9759    0.0054 H       1  LIG1        0.1654
     38 H          -9.2159   -8.5364    0.0069 H       1  LIG1        0.0819
     39 H          -8.6716   -4.2300    0.0056 H       1  LIG1        0.0651
     40 C         -10.8957   -6.1231    0.0074 C.1     1  LIG1       -0.0682
     41 C         -12.0946   -5.9545    0.0080 C.1     1  LIG1       -0.1139
     42 H         -13.1495   -5.8091    0.0084 H       1  LIG1        0.1232
@<TRIPOS>BOND
     1     7     1    1
     2     6     5    1
     3     1     5   ar
     4     1     2   ar
     5     5     4   ar
     6     8     2    1
     7     2     3   ar
     8     4     3   ar
     9     4    12    1
    10     3     9    1
    11    12    13   ar
    12    12    16   ar
    13    18    13    1
    14    13    14   ar
    15     9    10    3
    16    16    17    1
    17    16    15   ar
    18    14    15   ar
    19    14    19    1
    20    15    22    1
    21    10    11    1
    22    19    20    3
    23    28    23    1
    24    21    20    1
    25    22    23   ar
    26    22    26   ar
    27    23    24   ar
    28    27    26    1
    29    26    25   ar
    30    24    25   ar
    31    24    29    1
    32    25    32    1
    33    29    30    3
    34    30    31    1
    35    32    36   ar
    36    32    33   ar
    37    37    36    1
    38    39    33    1
    39    36    35   ar
    40    33    34   ar
    41    35    34   ar
    42    35    38    1
    43    34    40    1
    44    40    41    3
    45    41    42    1
