@<TRIPOS>MOLECULE
mol_data/opt/b3lyp/geoms/mol2/13ae13ae-.out
 22 23 0 0 0
SMALL
GASTEIGER

@<TRIPOS>ATOM
      1 C           1.2314   -0.2885   -0.0004 C.ar    1  LIG1        0.0034
      2 C           0.8336    1.0238   -0.0003 C.ar    1  LIG1       -0.0283
      3 C          -0.5999    1.0392    0.0002 C.ar    1  LIG1        0.0513
      4 C          -1.0311   -0.2968    0.0004 C.ar    1  LIG1        0.0785
      5 N           0.1001   -1.0746    0.0001 N.ar    1  LIG1       -0.3585
      6 H           0.0939   -2.0817    0.0001 H       1  LIG1        0.1654
      7 H           2.2163   -0.7295   -0.0006 H       1  LIG1        0.0807
      8 H           1.4739    1.8930   -0.0005 H       1  LIG1        0.0645
      9 C          -1.4299    2.1878    0.0004 C.1     1  LIG1       -0.0675
     10 C          -2.1447    3.1687    0.0005 C.1     1  LIG1       -0.1138
     11 H          -2.7435    4.0498    0.0007 H       1  LIG1        0.1232
     12 C          -2.3562   -0.8722    0.0009 C.ar    1  LIG1        0.0653
     13 C          -2.7810   -2.1926    0.0010 C.ar    1  LIG1       -0.0195
     14 C          -4.2103   -2.1917    0.0015 C.ar    1  LIG1        0.0426
     15 C          -4.6093   -0.8591    0.0017 C.ar    1  LIG1        0.0177
     16 N          -3.4897   -0.0822    0.0013 N.ar    1  LIG1       -0.3584
     17 H          -3.4610    0.9288    0.0013 H       1  LIG1        0.1654
     18 H          -5.5999   -0.4319    0.0021 H       1  LIG1        0.0819
     19 H          -2.1598   -3.0768    0.0008 H       1  LIG1        0.0651
     20 C          -5.0652   -3.3247    0.0018 C.1     1  LIG1       -0.0682
     21 C          -5.7864   -4.2973    0.0020 C.1     1  LIG1       -0.1139
     22 H          -6.4236   -5.1504    0.0022 H       1  LIG1        0.1232
@<TRIPOS>BOND
     1     7     1    1
     2     8     2    1
     3     1     2   ar
     4     1     5   ar
     5     2     3   ar
     6     6     5    1
     7     5     4   ar
     8     3     9    1
     9     3     4   ar
    10     9    10    3
    11     4    12    1
    12    10    11    1
    13    19    13    1
    14    12    13   ar
    15    12    16   ar
    16    13    14   ar
    17    17    16    1
    18    16    15   ar
    19    14    15   ar
    20    14    20    1
    21    15    18    1
    22    20    21    3
    23    21    22    1
