@<TRIPOS>MOLECULE
mol_data/opt/b3lyp/geoms/mol2/13ae13ae.out
 22 23 0 0 0
SMALL
GASTEIGER

@<TRIPOS>ATOM
      1 C           1.2490   -0.2841   -0.0013 C.ar    1  LIG1        0.0034
      2 C           0.8250    1.0187   -0.0004 C.ar    1  LIG1       -0.0283
      3 C          -0.6078    1.0117    0.0005 C.ar    1  LIG1        0.0513
      4 C          -1.0203   -0.3298    0.0002 C.ar    1  LIG1        0.0785
      5 N           0.1306   -1.0907   -0.0009 N.ar    1  LIG1       -0.3585
      6 H           0.1689   -2.0959   -0.0019 H       1  LIG1        0.1654
      7 H           2.2410   -0.7090   -0.0021 H       1  LIG1        0.0807
      8 H           1.4480    1.9005   -0.0004 H       1  LIG1        0.0645
      9 C          -1.4355    2.1616    0.0016 C.1     1  LIG1       -0.0675
     10 C          -2.1140    3.1656    0.0025 C.1     1  LIG1       -0.1138
     11 H          -2.7130    4.0461    0.0034 H       1  LIG1        0.1232
     12 C          -2.3490   -0.9017    0.0007 C.ar    1  LIG1        0.0653
     13 C          -3.5897   -0.2856    0.0007 C.ar    1  LIG1       -0.0195
     14 C          -4.5919   -1.3048    0.0014 C.ar    1  LIG1        0.0426
     15 C          -3.9299   -2.5244    0.0019 C.ar    1  LIG1        0.0177
     16 N          -2.5847   -2.2713    0.0015 N.ar    1  LIG1       -0.3584
     17 H          -1.8858   -2.9949    0.0020 H       1  LIG1        0.1654
     18 H          -4.3188   -3.5306    0.0026 H       1  LIG1        0.0819
     19 H          -3.7595    0.7788    0.0001 H       1  LIG1        0.0651
     20 C          -5.9999   -1.1198    0.0016 C.1     1  LIG1       -0.0682
     21 C          -7.1991   -0.9547    0.0018 C.1     1  LIG1       -0.1139
     22 H          -8.2539   -0.8085    0.0020 H       1  LIG1        0.1232
@<TRIPOS>BOND
     1     7     1    1
     2     6     5    1
     3     1     5   ar
     4     1     2   ar
     5     5     4   ar
     6     2     8    1
     7     2     3   ar
     8    19    13    1
     9     4     3   ar
    10     4    12    1
    11     3     9    1
    12    13    12   ar
    13    13    14   ar
    14    12    16   ar
    15    14    20    1
    16    14    15   ar
    17    16    15   ar
    18    16    17    1
    19     9    10    3
    20    20    21    3
    21    21    22    1
    22    15    18    1
    23    10    11    1
