@<TRIPOS>MOLECULE
mol_data/opt/b3lyp/geoms/mol2/13ae13ae-13ae-13ae.out
 42 45 0 0 0
SMALL
GASTEIGER

@<TRIPOS>ATOM
      1 C           1.3428   -0.3209    0.0081 C.ar    1  LIG1        0.0034
      2 C           0.9291    0.9535   -0.2842 C.ar    1  LIG1       -0.0283
      3 C          -0.5039    0.9470   -0.3046 C.ar    1  LIG1        0.0513
      4 C          -0.9187   -0.3640   -0.0162 C.ar    1  LIG1        0.0785
      5 N           0.2222   -1.1060    0.1670 N.ar    1  LIG1       -0.3585
      6 H           0.2297   -2.0882    0.3892 H       1  LIG1        0.1654
      7 H           2.3331   -0.7355    0.1165 H       1  LIG1        0.0807
      8 H           1.5591    1.8107   -0.4681 H       1  LIG1        0.0645
      9 C          -1.3473    2.0531   -0.5751 C.1     1  LIG1       -0.0675
     10 C          -2.0736    2.9976   -0.8094 C.1     1  LIG1       -0.1138
     11 H          -2.6712    3.8507   -1.0350 H       1  LIG1        0.1232
     12 C          -2.2369   -0.9379    0.0920 C.ar    1  LIG1        0.0657
     13 C          -2.6607   -2.2301    0.3612 C.ar    1  LIG1       -0.0189
     14 C          -4.0861   -2.2421    0.3371 C.ar    1  LIG1        0.0520
     15 C          -4.5055   -0.9330    0.0476 C.ar    1  LIG1        0.0790
     16 N          -3.3713   -0.1690   -0.0868 N.ar    1  LIG1       -0.3509
     17 H          -3.3335    0.7852   -0.4212 H       1  LIG1        0.1660
     18 H          -2.0391   -3.0894    0.5681 H       1  LIG1        0.0652
     19 C          -4.9194   -3.3602    0.5876 C.1     1  LIG1       -0.0675
     20 C          -5.6162   -4.3283    0.7993 C.1     1  LIG1       -0.1138
     21 H          -6.2304   -5.1764    0.9938 H       1  LIG1        0.1232
     22 C          -5.8259   -0.3682   -0.0739 C.ar    1  LIG1        0.0658
     23 C          -7.0445   -0.9519   -0.3660 C.ar    1  LIG1       -0.0189
     24 C          -8.0321    0.0781   -0.3771 C.ar    1  LIG1        0.0520
     25 C          -7.3830    1.2895   -0.0853 C.ar    1  LIG1        0.0790
     26 N          -6.0516    0.9946    0.0784 N.ar    1  LIG1       -0.3509
     27 H          -5.3840    1.6420    0.4677 H       1  LIG1        0.1660
     28 H          -7.2090   -1.9979   -0.5708 H       1  LIG1        0.0652
     29 C          -9.4142   -0.0843   -0.6481 C.1     1  LIG1       -0.0675
     30 C         -10.5992   -0.2168   -0.8728 C.1     1  LIG1       -0.1138
     31 H         -11.6323   -0.3683   -1.0842 H       1  LIG1        0.1232
     32 C          -7.8875    2.6330    0.0508 C.ar    1  LIG1        0.0653
     33 C          -7.2334    3.8354    0.2811 C.ar    1  LIG1       -0.0195
     34 C          -8.2205    4.8666    0.3329 C.ar    1  LIG1        0.0426
     35 C          -9.4522    4.2517    0.1286 C.ar    1  LIG1        0.0177
     36 N          -9.2374    2.9167   -0.0369 N.ar    1  LIG1       -0.3584
     37 H          -9.9417    2.2127   -0.2135 H       1  LIG1        0.1654
     38 H         -10.4422    4.6788    0.0924 H       1  LIG1        0.0819
     39 H          -6.1691    3.9847    0.3932 H       1  LIG1        0.0651
     40 C          -7.9986    6.2520    0.5468 C.1     1  LIG1       -0.0682
     41 C          -7.7989    7.4320    0.7299 C.1     1  LIG1       -0.1139
     42 H          -7.6275    8.4705    0.8916 H       1  LIG1        0.1232
@<TRIPOS>BOND
     1    31    30    1
     2    11    10    1
     3    30    29    3
     4    10     9    3
     5    29    24    1
     6     9     3    1
     7    28    23    1
     8     8     2    1
     9    17    16    1
    10    24    23   ar
    11    24    25   ar
    12    23    22   ar
    13     3     2   ar
    14     3     4   ar
    15     2     1   ar
    16    37    36    1
    17    16    15   ar
    18    16    12   ar
    19    25    32    1
    20    25    26   ar
    21    22    15    1
    22    22    26   ar
    23    36    32   ar
    24    36    35   ar
    25     4    12    1
    26     4     5   ar
    27     1     7    1
    28     1     5   ar
    29    15    14   ar
    30    32    33   ar
    31    26    27    1
    32    12    13   ar
    33    38    35    1
    34    35    34   ar
    35     5     6    1
    36    33    34   ar
    37    33    39    1
    38    34    40    1
    39    14    13   ar
    40    14    19    1
    41    13    18    1
    42    40    41    3
    43    19    20    3
    44    41    42    1
    45    20    21    1
