@<TRIPOS>MOLECULE
mol_data/opt/b3lyp/geoms/mol2/13ae13ae13ae13ae-.out
 42 45 0 0 0
SMALL
GASTEIGER

@<TRIPOS>ATOM
      1 C           1.2647   -0.1127   -0.0170 C.ar    1  LIG1        0.0034
      2 C           0.8403    1.1619   -0.2935 C.ar    1  LIG1       -0.0283
      3 C          -0.5925    1.1634   -0.2566 C.ar    1  LIG1        0.0513
      4 C          -0.9986   -0.1417    0.0490 C.ar    1  LIG1        0.0785
      5 N           0.1485   -0.8998    0.1718 N.ar    1  LIG1       -0.3585
      6 H           0.1647   -1.8311    0.5560 H       1  LIG1        0.1654
      7 H           2.2583   -0.5275    0.0577 H       1  LIG1        0.0807
      8 H           1.4643    2.0150   -0.5141 H       1  LIG1        0.0645
      9 C          -1.4396    2.2707   -0.5113 C.1     1  LIG1       -0.0675
     10 C          -2.1473    3.2299   -0.7267 C.1     1  LIG1       -0.1138
     11 H          -2.7718    4.0698   -0.9238 H       1  LIG1        0.1232
     12 C          -2.3142   -0.7147    0.2041 C.ar    1  LIG1        0.0657
     13 C          -3.5158   -0.1475    0.5733 C.ar    1  LIG1       -0.0189
     14 C          -4.5133   -1.1720    0.5646 C.ar    1  LIG1        0.0520
     15 C          -3.8863   -2.3626    0.1823 C.ar    1  LIG1        0.0790
     16 N          -2.5415   -2.0769    0.0012 N.ar    1  LIG1       -0.3509
     17 H          -1.9640   -2.6258   -0.6198 H       1  LIG1        0.1660
     18 H          -3.6658    0.8840    0.8514 H       1  LIG1        0.0652
     19 C          -5.8763   -1.0169    0.9218 C.1     1  LIG1       -0.0675
     20 C          -7.0393   -0.8653    1.2240 C.1     1  LIG1       -0.1138
     21 H          -8.0600   -0.7324    1.4977 H       1  LIG1        0.1232
     22 C          -4.4087   -3.6924    0.0005 C.ar    1  LIG1        0.0658
     23 C          -5.6834   -4.1402   -0.2920 C.ar    1  LIG1       -0.0189
     24 C          -5.6383   -5.5642   -0.3799 C.ar    1  LIG1        0.0520
     25 C          -4.3139   -5.9619   -0.1347 C.ar    1  LIG1        0.0790
     26 N          -3.5878   -4.8128    0.0721 N.ar    1  LIG1       -0.3509
     27 H          -2.6651   -4.8083    0.4775 H       1  LIG1        0.1660
     28 H          -6.5493   -3.5167   -0.4488 H       1  LIG1        0.0652
     29 C          -6.7257   -6.4237   -0.6779 C.1     1  LIG1       -0.0675
     30 C          -7.6534   -7.1657   -0.9249 C.1     1  LIG1       -0.1138
     31 H          -8.4879   -7.7864   -1.1562 H       1  LIG1        0.1232
     32 C          -3.7053   -7.2670   -0.0753 C.ar    1  LIG1        0.0653
     33 C          -2.3821   -7.6508    0.0940 C.ar    1  LIG1       -0.0195
     34 C          -2.3369   -9.0785    0.0876 C.ar    1  LIG1        0.0426
     35 C          -3.6451   -9.5189   -0.0895 C.ar    1  LIG1        0.0177
     36 N          -4.4518   -8.4252   -0.1834 N.ar    1  LIG1       -0.3584
     37 H          -5.4527   -8.4285   -0.3287 H       1  LIG1        0.1654
     38 H          -4.0356  -10.5226   -0.1526 H       1  LIG1        0.0819
     39 H          -1.5253   -7.0008    0.1985 H       1  LIG1        0.0651
     40 C          -1.1866   -9.8978    0.2291 C.1     1  LIG1       -0.0682
     41 C          -0.1997  -10.5884    0.3510 C.1     1  LIG1       -0.1139
     42 H           0.6654  -11.2002    0.4575 H       1  LIG1        0.1232
@<TRIPOS>BOND
     1    31    30    1
     2    30    29    3
     3    11    10    1
     4    10     9    3
     5    29    24    1
     6    17    16    1
     7     8     2    1
     8     9     3    1
     9    28    23    1
    10    24    23   ar
    11    24    25   ar
    12    37    36    1
    13     2     3   ar
    14     2     1   ar
    15    23    22   ar
    16     3     4   ar
    17    36    35   ar
    18    36    32   ar
    19    38    35    1
    20    25    32    1
    21    25    26   ar
    22    35    34   ar
    23    32    33   ar
    24     1     7    1
    25     1     5   ar
    26    22    26   ar
    27    22    15    1
    28    16    15   ar
    29    16    12   ar
    30     4     5   ar
    31     4    12    1
    32    26    27    1
    33    34    33   ar
    34    34    40    1
    35    33    39    1
    36     5     6    1
    37    15    14   ar
    38    12    13   ar
    39    40    41    3
    40    41    42    1
    41    14    13   ar
    42    14    19    1
    43    13    18    1
    44    19    20    3
    45    20    21    1
