@<TRIPOS>MOLECULE
mol_data/opt/b3lyp/geoms/mol2/13ae13ae13ae13ae.out
 42 45 0 0 0
SMALL
GASTEIGER

@<TRIPOS>ATOM
      1 C           1.0500    0.0960   -1.3628 C.ar    1  LIG1        0.0034
      2 C           0.8799    1.1326   -0.4817 C.ar    1  LIG1       -0.0283
      3 C          -0.4396    1.0259    0.0692 C.ar    1  LIG1        0.0513
      4 C          -1.0394   -0.0977   -0.5100 C.ar    1  LIG1        0.0785
      5 N          -0.1063   -0.6566   -1.3621 N.ar    1  LIG1       -0.3585
      6 H          -0.3281   -1.3503   -2.0591 H       1  LIG1        0.1654
      7 H           1.8897   -0.1740   -1.9848 H       1  LIG1        0.0807
      8 H           1.6072    1.8898   -0.2294 H       1  LIG1        0.0645
      9 C          -1.0170    1.8778    1.0441 C.1     1  LIG1       -0.0675
     10 C          -1.4958    2.6197    1.8732 C.1     1  LIG1       -0.1138
     11 H          -1.9185    3.2663    2.6063 H       1  LIG1        0.1232
     12 C          -2.3510   -0.6752   -0.3178 C.ar    1  LIG1        0.0657
     13 C          -3.5706   -0.0888   -0.0365 C.ar    1  LIG1       -0.0189
     14 C          -4.5562   -1.1187    0.0254 C.ar    1  LIG1        0.0520
     15 C          -3.9072   -2.3366   -0.2214 C.ar    1  LIG1        0.0790
     16 N          -2.5755   -2.0413   -0.4259 N.ar    1  LIG1       -0.3509
     17 H          -1.8644   -2.7216   -0.6414 H       1  LIG1        0.1660
     18 H          -3.7413    0.9670    0.1042 H       1  LIG1        0.0652
     19 C          -5.9366   -0.9475    0.3006 C.1     1  LIG1       -0.0675
     20 C          -7.1141   -0.7843    0.5314 C.1     1  LIG1       -0.1138
     21 H          -8.1485   -0.6431    0.7419 H       1  LIG1        0.1232
     22 C          -4.4163   -3.6885   -0.2518 C.ar    1  LIG1        0.0658
     23 C          -5.6430   -4.1863   -0.6505 C.ar    1  LIG1       -0.0189
     24 C          -5.6177   -5.6051   -0.5027 C.ar    1  LIG1        0.0520
     25 C          -4.3545   -5.9524   -0.0047 C.ar    1  LIG1        0.0790
     26 N          -3.6461   -4.7781    0.1347 N.ar    1  LIG1       -0.3509
     27 H          -2.7060   -4.7239    0.4923 H       1  LIG1        0.1660
     28 H          -6.4692   -3.5975   -1.0172 H       1  LIG1        0.0652
     29 C          -6.6776   -6.5009   -0.7941 C.1     1  LIG1       -0.0675
     30 C          -7.5907   -7.2530   -1.0530 C.1     1  LIG1       -0.1138
     31 H          -8.3957   -7.9151   -1.2717 H       1  LIG1        0.1232
     32 C          -3.7969   -7.2371    0.3555 C.ar    1  LIG1        0.0653
     33 C          -4.0028   -8.4964   -0.1742 C.ar    1  LIG1       -0.0195
     34 C          -3.1825   -9.4188    0.5512 C.ar    1  LIG1        0.0426
     35 C          -2.4982   -8.6851    1.5102 C.ar    1  LIG1        0.0177
     36 N          -2.8570   -7.3702    1.3728 N.ar    1  LIG1       -0.3584
     37 H          -2.6687   -6.6627    2.0658 H       1  LIG1        0.1654
     38 H          -1.7968   -9.0080    2.2638 H       1  LIG1        0.0819
     39 H          -4.6499   -8.7310   -1.0049 H       1  LIG1        0.0651
     40 C          -3.0674  -10.8168    0.3302 C.1     1  LIG1       -0.0682
     41 C          -2.9756  -12.0079    0.1353 C.1     1  LIG1       -0.1139
     42 H          -2.8966  -13.0563   -0.0342 H       1  LIG1        0.1232
@<TRIPOS>BOND
     1     6     5    1
     2     7     1    1
     3     1     5   ar
     4     1     2   ar
     5     5     4   ar
     6    31    30    1
     7    30    29    3
     8    28    23    1
     9    39    33    1
    10    29    24    1
    11    23    24   ar
    12    23    22   ar
    13    17    16    1
    14     4    12    1
    15     4     3   ar
    16    24    25   ar
    17     2     8    1
    18     2     3   ar
    19    16    12   ar
    20    16    15   ar
    21    12    13   ar
    22    22    15    1
    23    22    26   ar
    24    15    14   ar
    25    33    32   ar
    26    33    34   ar
    27    13    14   ar
    28    13    18    1
    29    42    41    1
    30    25    26   ar
    31    25    32    1
    32    14    19    1
    33     3     9    1
    34    26    27    1
    35    41    40    3
    36    19    20    3
    37    40    34    1
    38    32    36   ar
    39    20    21    1
    40    34    35   ar
    41     9    10    3
    42    36    35   ar
    43    36    37    1
    44    35    38    1
    45    10    11    1
