@<TRIPOS>MOLECULE
mol_data/opt/b3lyp/geoms/mol2/13ae13ae13ae-13ae-.out
 42 45 0 0 0
SMALL
GASTEIGER

@<TRIPOS>ATOM
      1 C           1.3114   -0.1045   -0.3177 C.ar    1  LIG1        0.0034
      2 C           0.9118    1.1371    0.1062 C.ar    1  LIG1       -0.0283
      3 C          -0.5176    1.1235    0.2123 C.ar    1  LIG1        0.0513
      4 C          -0.9464   -0.1563   -0.1598 C.ar    1  LIG1        0.0785
      5 N           0.1854   -0.8874   -0.4602 N.ar    1  LIG1       -0.3585
      6 H           0.1691   -1.7812   -0.9258 H       1  LIG1        0.1654
      7 H           2.2941   -0.4990   -0.5260 H       1  LIG1        0.0807
      8 H           1.5512    1.9766    0.3348 H       1  LIG1        0.0645
      9 C          -1.3402    2.1942    0.6433 C.1     1  LIG1       -0.0675
     10 C          -2.0277    3.1225    1.0081 C.1     1  LIG1       -0.1138
     11 H          -2.6318    3.9353    1.3375 H       1  LIG1        0.1232
     12 C          -2.2699   -0.7297   -0.2300 C.ar    1  LIG1        0.0657
     13 C          -3.5009   -0.1493   -0.4621 C.ar    1  LIG1       -0.0189
     14 C          -4.4855   -1.1840   -0.4381 C.ar    1  LIG1        0.0520
     15 C          -3.8198   -2.3954   -0.1871 C.ar    1  LIG1        0.0790
     16 N          -2.4809   -2.0967   -0.0848 N.ar    1  LIG1       -0.3509
     17 H          -1.8036   -2.7317    0.3082 H       1  LIG1        0.1660
     18 H          -3.6776    0.8976   -0.6523 H       1  LIG1        0.0652
     19 C          -5.8771   -1.0257   -0.6561 C.1     1  LIG1       -0.0675
     20 C          -7.0705   -0.8962   -0.8370 C.1     1  LIG1       -0.1138
     21 H          -8.1072   -0.7393   -1.0266 H       1  LIG1        0.1232
     22 C          -4.3164   -3.7381   -0.0405 C.ar    1  LIG1        0.0658
     23 C          -3.6585   -4.9479    0.1231 C.ar    1  LIG1       -0.0189
     24 C          -4.6408   -5.9768    0.2139 C.ar    1  LIG1        0.0520
     25 C          -5.8975   -5.3603    0.0980 C.ar    1  LIG1        0.0790
     26 N          -5.6722   -4.0126   -0.0440 N.ar    1  LIG1       -0.3509
     27 H          -6.3652   -3.3190   -0.2935 H       1  LIG1        0.1660
     28 H          -2.5907   -5.1049    0.1746 H       1  LIG1        0.0652
     29 C          -4.3912   -7.3579    0.4094 C.1     1  LIG1       -0.0675
     30 C          -4.1568   -8.5352    0.5719 C.1     1  LIG1       -0.1138
     31 H          -3.9570   -9.5704    0.7223 H       1  LIG1        0.1232
     32 C          -7.2298   -5.9148    0.1396 C.ar    1  LIG1        0.0653
     33 C          -7.6989   -7.1846   -0.1459 C.ar    1  LIG1       -0.0195
     34 C          -9.1159   -7.1828    0.0481 C.ar    1  LIG1        0.0426
     35 C          -9.4685   -5.9010    0.4511 C.ar    1  LIG1        0.0177
     36 N          -8.3308   -5.1427    0.4889 N.ar    1  LIG1       -0.3584
     37 H          -8.2773   -4.2186    0.8877 H       1  LIG1        0.1654
     38 H         -10.4336   -5.4935    0.7093 H       1  LIG1        0.0819
     39 H          -7.0984   -8.0173   -0.4767 H       1  LIG1        0.0651
     40 C         -10.0067   -8.2720   -0.1433 C.1     1  LIG1       -0.0682
     41 C         -10.7593   -9.2056   -0.3079 C.1     1  LIG1       -0.1139
     42 H         -11.4216  -10.0270   -0.4522 H       1  LIG1        0.1232
@<TRIPOS>BOND
     1    21    20    1
     2     6     5    1
     3    20    19    3
     4    19    14    1
     5    18    13    1
     6     7     1    1
     7    39    33    1
     8    13    14   ar
     9    13    12   ar
    10     5     1   ar
    11     5     4   ar
    12    42    41    1
    13    14    15   ar
    14     1     2   ar
    15    41    40    3
    16    27    26    1
    17    12     4    1
    18    12    16   ar
    19    15    16   ar
    20    15    22    1
    21     4     3   ar
    22    33    34   ar
    23    33    32   ar
    24    40    34    1
    25    16    17    1
    26    26    22   ar
    27    26    25   ar
    28    22    23   ar
    29    34    35   ar
    30    25    32    1
    31    25    24   ar
    32     2     3   ar
    33     2     8    1
    34    23    28    1
    35    23    24   ar
    36    32    36   ar
    37     3     9    1
    38    24    29    1
    39    29    30    3
    40    35    36   ar
    41    35    38    1
    42    36    37    1
    43    30    31    1
    44     9    10    3
    45    10    11    1
