@<TRIPOS>MOLECULE
mol_data/opt/b3lyp/geoms/mol2/13ae12il6ed13lh-.out
 48 51 0 0 0
SMALL
GASTEIGER

@<TRIPOS>ATOM
      1 C          -4.3957    6.3300    6.6441 C.ar    1  LIG1        0.1380
      2 C          -3.8763    7.0798    7.6600 C.ar    1  LIG1        0.2002
      3 C          -3.0583    8.0984    7.0584 C.ar    1  LIG1        0.2069
      4 C          -3.1366    7.8980    5.6924 C.ar    1  LIG1        0.1972
      5 O          -3.9582    6.8127    5.4398 O.2     1  LIG1       -0.4539
      6 H          -5.0507    5.4764    6.6071 H       1  LIG1        0.1069
      7 O          -4.0255    6.9851    8.9989 O.3     1  LIG1       -0.4888
      8 C          -4.8683    5.9275    9.4368 C.3     1  LIG1        0.0791
      9 H          -4.8910    5.9798   10.5254 H       1  LIG1        0.0660
     10 H          -5.8865    6.0452    9.0426 H       1  LIG1        0.0660
     11 H          -4.4725    4.9518    9.1247 H       1  LIG1        0.0660
     12 O          -2.4108    8.9961    7.8225 O.3     1  LIG1       -0.5008
     13 H          -1.8896    9.6251    7.2966 H       1  LIG1        0.2924
     14 C          -2.5929    8.5135    4.5165 C.ar    1  LIG1        0.1058
     15 C          -1.7092    9.5914    4.3134 C.ar    1  LIG1        0.1014
     16 C          -1.4749    9.7196    2.9030 C.ar    1  LIG1        0.0701
     17 C          -2.2262    8.7309    2.2715 C.ar    1  LIG1        0.0893
     18 N          -2.8943    8.0282    3.2804 N.ar    1  LIG1       -0.3479
     19 H          -3.3671    7.1464    3.1555 H       1  LIG1        0.1661
     20 N          -0.6738   11.0613    6.1593 N.1     1  LIG1       -0.1907
     21 C          -1.1432   10.4012    5.3158 C.1     1  LIG1        0.1033
     22 N          -0.6989   10.6986    2.3027 N.pl3   1  LIG1       -0.3553
     23 H          -0.0494   11.1505    2.9336 H       1  LIG1        0.1424
     24 H          -0.2552   10.3777    1.4487 H       1  LIG1        0.1424
     25 C          -2.4417    8.4140    0.8837 C.ar    1  LIG1        0.1094
     26 C          -1.7463    8.7361   -0.2822 C.ar    1  LIG1        0.1680
     27 C          -2.3716    8.0895   -1.3844 C.ar    1  LIG1        0.0962
     28 C          -3.4700    7.4007   -0.8836 C.ar    1  LIG1        0.1072
     29 N          -3.4687    7.5666    0.5009 N.ar    1  LIG1       -0.3461
     30 H          -4.3143    7.4512    1.0383 H       1  LIG1        0.1662
     31 O          -0.5867    9.4784   -0.3836 O.3     1  LIG1       -0.4911
     32 C          -0.7815   10.7440   -1.0506 C.3     1  LIG1        0.0790
     33 H           0.2125   11.1778   -1.1808 H       1  LIG1        0.0660
     34 H          -1.2532   10.6032   -2.0278 H       1  LIG1        0.0660
     35 H          -1.3987   11.4075   -0.4355 H       1  LIG1        0.0660
     36 N          -1.9236    8.1533   -2.7095 N.pl3   1  LIG1       -0.3534
     37 H          -0.9154    8.2635   -2.7512 H       1  LIG1        0.1425
     38 H          -2.1973    7.3398   -3.2507 H       1  LIG1        0.1425
     39 C          -4.4637    6.6239   -1.5605 C.ar    1  LIG1        0.1540
     40 C          -4.8393    6.4979   -2.8743 C.ar    1  LIG1        0.0011
     41 C          -5.9139    5.5368   -2.9050 C.ar    1  LIG1        0.0630
     42 C          -6.1203    5.1603   -1.6043 C.ar    1  LIG1        0.1080
     43 O          -5.2488    5.8050   -0.7775 O.2     1  LIG1       -0.4602
     44 H          -6.8142    4.4804   -1.1376 H       1  LIG1        0.1042
     45 H          -4.4575    7.0553   -3.7158 H       1  LIG1        0.0668
     46 C          -6.6282    5.0798   -4.0435 C.1     1  LIG1       -0.0665
     47 C          -7.2294    4.6975   -5.0212 C.1     1  LIG1       -0.1138
     48 H          -7.7625    4.3593   -5.8792 H       1  LIG1        0.1232
@<TRIPOS>BOND
     1    48    47    1
     2    47    46    3
     3    46    41    1
     4    45    40    1
     5    38    36    1
     6    41    40   ar
     7    41    42   ar
     8    40    39   ar
     9    37    36    1
    10    36    27    1
    11    34    32    1
    12    42    44    1
    13    42    43   ar
    14    39    28    1
    15    39    43   ar
    16    27    28   ar
    17    27    26   ar
    18    33    32    1
    19    32    35    1
    20    32    31    1
    21    28    29   ar
    22    31    26    1
    23    26    25   ar
    24    29    25   ar
    25    29    30    1
    26    25    17    1
    27    24    22    1
    28    17    16   ar
    29    17    18   ar
    30    22    16    1
    31    22    23    1
    32    16    15   ar
    33    19    18    1
    34    18    14   ar
    35    15    14   ar
    36    15    21    1
    37    14     4    1
    38    21    20    3
    39     5     4   ar
    40     5     1   ar
    41     4     3   ar
    42     6     1    1
    43     1     2   ar
    44     3     2   ar
    45     3    12    1
    46    13    12    1
    47     2     7    1
    48     7     8    1
    49    10     8    1
    50    11     8    1
    51     8     9    1
