@<TRIPOS>MOLECULE
mol_data/opt/b3lyp/geoms/mol2/13ae13ae-13ae.out
 32 34 0 0 0
SMALL
GASTEIGER

@<TRIPOS>ATOM
      1 C           1.3029   -0.3011   -0.0009 C.ar    1  LIG1        0.0034
      2 C           0.8960    1.0087   -0.0006 C.ar    1  LIG1       -0.0283
      3 C          -0.5370    1.0148    0.0002 C.ar    1  LIG1        0.0513
      4 C          -0.9592   -0.3246    0.0002 C.ar    1  LIG1        0.0785
      5 N           0.1779   -1.0955   -0.0004 N.ar    1  LIG1       -0.3585
      6 H           0.1800   -2.1025   -0.0007 H       1  LIG1        0.1654
      7 H           2.2910   -0.7349   -0.0014 H       1  LIG1        0.0807
      8 H           1.5306    1.8820   -0.0008 H       1  LIG1        0.0645
      9 C          -1.3745    2.1580    0.0007 C.1     1  LIG1       -0.0675
     10 C          -2.0949    3.1347    0.0012 C.1     1  LIG1       -0.1138
     11 H          -2.6997    4.0120    0.0019 H       1  LIG1        0.1232
     12 C          -2.2798   -0.9046    0.0008 C.ar    1  LIG1        0.0657
     13 C          -2.6998   -2.2252    0.0006 C.ar    1  LIG1       -0.0189
     14 C          -4.1261   -2.2300    0.0014 C.ar    1  LIG1        0.0520
     15 C          -4.5472   -0.8873    0.0019 C.ar    1  LIG1        0.0790
     16 N          -3.4157   -0.1178    0.0015 N.ar    1  LIG1       -0.3509
     17 H          -3.3890    0.8934    0.0017 H       1  LIG1        0.1660
     18 H          -2.0772   -3.1081    0.0001 H       1  LIG1        0.0652
     19 C          -4.9626   -3.3735    0.0015 C.1     1  LIG1       -0.0675
     20 C          -5.6829   -4.3504    0.0017 C.1     1  LIG1       -0.1138
     21 H          -6.2885   -5.2268    0.0016 H       1  LIG1        0.1232
     22 C          -5.8671   -0.3057    0.0028 C.ar    1  LIG1        0.0653
     23 C          -6.2796    1.0190    0.0034 C.ar    1  LIG1       -0.0195
     24 C          -7.7080    1.0306    0.0041 C.ar    1  LIG1        0.0426
     25 C          -8.1195   -0.2989    0.0038 C.ar    1  LIG1        0.0177
     26 N          -7.0080   -1.0864    0.0030 N.ar    1  LIG1       -0.3584
     27 H          -6.9900   -2.0974    0.0027 H       1  LIG1        0.1654
     28 H          -9.1143   -0.7164    0.0041 H       1  LIG1        0.0819
     29 H          -5.6464    1.8944    0.0034 H       1  LIG1        0.0651
     30 C          -8.5543    2.1702    0.0049 C.1     1  LIG1       -0.0682
     31 C          -9.2689    3.1475    0.0056 C.1     1  LIG1       -0.1139
     32 H          -9.8997    4.0054    0.0062 H       1  LIG1        0.1232
@<TRIPOS>BOND
     1     7     1    1
     2     1     2   ar
     3     1     5   ar
     4     8     2    1
     5     6     5    1
     6     2     3   ar
     7     5     4   ar
     8    18    13    1
     9     3     4   ar
    10     3     9    1
    11     4    12    1
    12    13    12   ar
    13    13    14   ar
    14     9    10    3
    15    12    16   ar
    16    10    11    1
    17    14    19    1
    18    14    15   ar
    19    16    17    1
    20    16    15   ar
    21    19    20    3
    22    21    20    1
    23    15    22    1
    24    27    26    1
    25    22    26   ar
    26    22    23   ar
    27    26    25   ar
    28    23    29    1
    29    23    24   ar
    30    25    28    1
    31    25    24   ar
    32    24    30    1
    33    30    31    3
    34    31    32    1
