@<TRIPOS>MOLECULE
mol_data/opt/b3lyp/geoms/mol2/13ae13fi-12ia6fl.out
 48 51 0 0 0
SMALL
GASTEIGER

@<TRIPOS>ATOM
      1 C           1.1953   -0.0529   -0.1585 C.ar    1  LIG1        0.0034
      2 C           0.7824    1.2164   -0.4678 C.ar    1  LIG1       -0.0283
      3 C          -0.6523    1.2156   -0.4705 C.ar    1  LIG1        0.0514
      4 C          -1.0710   -0.0837   -0.1450 C.ar    1  LIG1        0.0821
      5 N           0.0721   -0.8342    0.0228 N.ar    1  LIG1       -0.3584
      6 H           0.0738   -1.7670    0.4057 H       1  LIG1        0.1654
      7 H           2.1855   -0.4699   -0.0571 H       1  LIG1        0.0807
      8 H           1.4132    2.0645   -0.6884 H       1  LIG1        0.0645
      9 C          -1.5033    2.3028   -0.7802 C.1     1  LIG1       -0.0675
     10 C          -2.2457    3.2320   -1.0265 C.1     1  LIG1       -0.1138
     11 H          -2.8818    4.0437   -1.2942 H       1  LIG1        0.1232
     12 C          -2.3821   -0.6598    0.0137 C.ar    1  LIG1        0.1068
     13 C          -3.5952   -0.1210    0.4391 C.ar    1  LIG1        0.1471
     14 C          -4.5592   -1.1660    0.5300 C.ar    1  LIG1        0.0199
     15 C          -3.9185   -2.3329    0.1279 C.ar    1  LIG1        0.0894
     16 N          -2.5889   -2.0315   -0.1349 N.ar    1  LIG1       -0.3474
     17 H          -2.0460   -2.5870   -0.7806 H       1  LIG1        0.1662
     18 O          -3.8823    1.1408    0.8414 O.3     1  LIG1       -0.5043
     19 H          -3.2448    1.7687    0.4569 H       1  LIG1        0.2922
     20 C          -5.9390   -0.9953    1.0884 C.3     1  LIG1       -0.0341
     21 H          -6.3467   -1.9482    1.4347 H       1  LIG1        0.0279
     22 H          -6.6361   -0.5768    0.3525 H       1  LIG1        0.0279
     23 H          -5.9202   -0.3019    1.9345 H       1  LIG1        0.0279
     24 C          -4.3862   -3.6892   -0.0140 C.ar    1  LIG1        0.1550
     25 C          -5.5517   -4.2901   -0.4320 C.ar    1  LIG1       -0.0026
     26 C          -5.3248   -5.7002   -0.3554 C.ar    1  LIG1       -0.0121
     27 C          -4.0386   -5.9030    0.0739 C.ar    1  LIG1        0.1412
     28 O          -3.4565   -4.6726    0.2867 O.2     1  LIG1       -0.4529
     29 C          -6.7927   -3.6233   -0.9454 C.3     1  LIG1       -0.0360
     30 H          -7.2010   -4.1772   -1.7968 H       1  LIG1        0.0279
     31 H          -6.5836   -2.6028   -1.2744 H       1  LIG1        0.0279
     32 H          -7.5796   -3.5725   -0.1839 H       1  LIG1        0.0279
     33 H          -6.0413   -6.4664   -0.6150 H       1  LIG1        0.0658
     34 C          -1.9082   -7.0438    0.8447 C.ar    1  LIG1        0.2234
     35 C          -3.2279   -7.0859    0.3205 C.ar    1  LIG1        0.0820
     36 C          -3.7608   -8.3576    0.0313 C.ar    1  LIG1       -0.0027
     37 C          -2.9998   -9.4981    0.2574 C.ar    1  LIG1        0.1390
     38 C          -1.7041   -9.3290    0.7690 C.ar    1  LIG1        0.0730
     39 N          -1.1827   -8.1410    1.0515 N.ar    1  LIG1       -0.2172
     40 H          -4.7631   -8.4284   -0.3728 H       1  LIG1        0.0663
     41 H          -1.0864  -10.2063    0.9482 H       1  LIG1        0.0868
     42 O          -1.2718   -5.8938    1.1757 O.3     1  LIG1       -0.4919
     43 H          -1.8776   -5.1477    1.0427 H       1  LIG1        0.2937
     44 O          -3.3955  -10.7839    0.0207 O.3     1  LIG1       -0.4936
     45 C          -4.6992  -10.9906   -0.4969 C.3     1  LIG1        0.0789
     46 H          -4.8146  -12.0698   -0.6056 H       1  LIG1        0.0660
     47 H          -5.4714  -10.6132    0.1865 H       1  LIG1        0.0660
     48 H          -4.8260  -10.5148   -1.4785 H       1  LIG1        0.0660
@<TRIPOS>BOND
     1    30    29    1
     2    48    45    1
     3    11    10    1
     4    31    29    1
     5    10     9    3
     6    29    25    1
     7    29    32    1
     8    17    16    1
     9     9     3    1
    10     8     2    1
    11    33    26    1
    12    46    45    1
    13    45    44    1
    14    45    47    1
    15     3     2   ar
    16     3     4   ar
    17     2     1   ar
    18    25    26   ar
    19    25    24   ar
    20    40    36    1
    21    26    27   ar
    22     1     7    1
    23     1     5   ar
    24     4    12    1
    25     4     5   ar
    26    16    12   ar
    27    16    15   ar
    28    24    15    1
    29    24    28   ar
    30    12    13   ar
    31    44    37    1
    32     5     6    1
    33    36    37   ar
    34    36    35   ar
    35    27    28   ar
    36    27    35    1
    37    15    14   ar
    38    37    38   ar
    39    35    34   ar
    40    22    20    1
    41    13    14   ar
    42    13    18    1
    43    19    18    1
    44    14    20    1
    45    38    41    1
    46    38    39   ar
    47    34    39   ar
    48    34    42    1
    49    43    42    1
    50    20    21    1
    51    20    23    1
