@<TRIPOS>MOLECULE
mol_data/opt/b3lyp/geoms/mol2/13ae13ae-4ae13ae.out
 44 47 0 0 0
SMALL
GASTEIGER

@<TRIPOS>ATOM
      1 C           1.3415   -0.1835   -0.1598 C.ar    1  LIG1        0.0034
      2 C           0.8794    1.1020   -0.2843 C.ar    1  LIG1       -0.0283
      3 C          -0.5511    1.0535   -0.2187 C.ar    1  LIG1        0.0513
      4 C          -0.9150   -0.2927   -0.0525 C.ar    1  LIG1        0.0785
      5 N           0.2529   -1.0150   -0.0212 N.ar    1  LIG1       -0.3585
      6 H           0.2975   -2.0155    0.0853 H       1  LIG1        0.1654
      7 H           2.3465   -0.5766   -0.1577 H       1  LIG1        0.0807
      8 H           1.4755    1.9934   -0.4091 H       1  LIG1        0.0645
      9 C          -1.4372    2.1558   -0.3071 C.1     1  LIG1       -0.0675
     10 C          -2.1994    3.0971   -0.3860 C.1     1  LIG1       -0.1138
     11 H          -2.8397    3.9454   -0.4601 H       1  LIG1        0.1232
     12 C          -2.2083   -0.9194    0.0707 C.ar    1  LIG1        0.0657
     13 C          -2.5702   -2.2469    0.2468 C.ar    1  LIG1       -0.0189
     14 C          -3.9927   -2.3126    0.2859 C.ar    1  LIG1        0.0505
     15 C          -4.4770   -0.9999    0.1341 C.ar    1  LIG1        0.0626
     16 N          -3.3754   -0.1892    0.0136 N.ar    1  LIG1       -0.3520
     17 H          -3.3947    0.8021   -0.1857 H       1  LIG1        0.1660
     18 H          -1.9094   -3.0955    0.3506 H       1  LIG1        0.0652
     19 C          -4.7460   -3.4967    0.4890 C.1     1  LIG1       -0.0675
     20 C          -5.3556   -4.5294    0.6615 C.1     1  LIG1       -0.1138
     21 H          -5.8986   -5.4313    0.8228 H       1  LIG1        0.1232
     22 C          -6.0717    0.9000    0.4471 C.ar    1  LIG1       -0.0519
     23 C          -7.3521    1.4230    0.4207 C.ar    1  LIG1       -0.0508
     24 C          -5.8285   -0.4510    0.1215 C.ar    1  LIG1        0.0007
     25 C          -8.4791    0.6532    0.0690 C.ar    1  LIG1        0.0137
     26 H          -7.4966    2.4585    0.7073 H       1  LIG1        0.0625
     27 C          -6.9356   -1.2363   -0.2189 C.ar    1  LIG1       -0.0365
     28 C          -8.2404   -0.7152   -0.2487 C.ar    1  LIG1        0.0344
     29 H          -6.7950   -2.2782   -0.4773 H       1  LIG1        0.0636
     30 H          -5.2541    1.5407    0.7646 H       1  LIG1        0.0624
     31 C          -9.2737   -1.6295   -0.6337 C.1     1  LIG1       -0.0690
     32 C         -10.1073   -2.4482   -0.9577 C.1     1  LIG1       -0.1139
     33 H         -10.8250   -3.1735   -1.2654 H       1  LIG1        0.1232
     34 C          -9.7873    1.3032    0.0590 C.ar    1  LIG1        0.0488
     35 C         -10.1016    2.6555    0.1424 C.ar    1  LIG1       -0.0210
     36 C         -11.5198    2.7880    0.1083 C.ar    1  LIG1        0.0425
     37 C         -12.0358    1.4987    0.0031 C.ar    1  LIG1        0.0176
     38 N         -10.9925    0.6273   -0.0251 N.ar    1  LIG1       -0.3595
     39 H         -11.0636   -0.3756   -0.1228 H       1  LIG1        0.1654
     40 H         -13.0600    1.1637   -0.0533 H       1  LIG1        0.0819
     41 H          -9.4042    3.4769    0.2032 H       1  LIG1        0.0651
     42 C         -12.2711    3.9911    0.1643 C.1     1  LIG1       -0.0682
     43 C         -12.9047    5.0217    0.2129 C.1     1  LIG1       -0.1139
     44 H         -13.4636    5.9271    0.2553 H       1  LIG1        0.1232
@<TRIPOS>BOND
     1    33    32    1
     2    32    31    3
     3    31    28    1
     4    29    27    1
     5    11    10    1
     6     8     2    1
     7    10     9    3
     8     9     3    1
     9     2     3   ar
    10     2     1   ar
    11    28    27   ar
    12    28    25   ar
    13    27    24   ar
    14     3     4   ar
    15    17    16    1
    16     1     7    1
    17     1     5   ar
    18    39    38    1
    19    40    37    1
    20     4     5   ar
    21     4    12    1
    22    38    37   ar
    23    38    34   ar
    24     5     6    1
    25    37    36   ar
    26    16    12   ar
    27    16    15   ar
    28    34    25    1
    29    34    35   ar
    30    25    23   ar
    31    12    13   ar
    32    36    35   ar
    33    36    42    1
    34    24    15    1
    35    24    22   ar
    36    15    14   ar
    37    35    41    1
    38    42    43    3
    39    43    44    1
    40    13    14   ar
    41    13    18    1
    42    14    19    1
    43    23    22   ar
    44    23    26    1
    45    22    30    1
    46    19    20    3
    47    20    21    1
