@<TRIPOS>MOLECULE
mol_data/opt/b3lyp/geoms/mol2/13ae13ae-13ae-13ae-.out
 42 45 0 0 0
SMALL
GASTEIGER

@<TRIPOS>ATOM
      1 C           1.3496   -0.2728   -0.1495 C.ar    1  LIG1        0.0034
      2 C           0.9170    1.0030   -0.4057 C.ar    1  LIG1       -0.0283
      3 C          -0.5161    0.9827   -0.3903 C.ar    1  LIG1        0.0513
      4 C          -0.9115   -0.3380   -0.1177 C.ar    1  LIG1        0.0785
      5 N           0.2405   -1.0717    0.0219 N.ar    1  LIG1       -0.3585
      6 H           0.2627   -2.0581    0.2246 H       1  LIG1        0.1654
      7 H           2.3461   -0.6799   -0.0747 H       1  LIG1        0.0807
      8 H           1.5343    1.8695   -0.5891 H       1  LIG1        0.0645
      9 C          -1.3761    2.0851   -0.6207 C.1     1  LIG1       -0.0675
     10 C          -2.1176    3.0261   -0.8202 C.1     1  LIG1       -0.1138
     11 H          -2.7256    3.8766   -1.0266 H       1  LIG1        0.1232
     12 C          -2.2215   -0.9255    0.0128 C.ar    1  LIG1        0.0657
     13 C          -2.6304   -2.2261    0.2629 C.ar    1  LIG1       -0.0189
     14 C          -4.0561   -2.2460    0.2790 C.ar    1  LIG1        0.0520
     15 C          -4.4915   -0.9333    0.0332 C.ar    1  LIG1        0.0790
     16 N          -3.3652   -0.1595   -0.1148 N.ar    1  LIG1       -0.3509
     17 H          -3.3383    0.7985   -0.4387 H       1  LIG1        0.1660
     18 H          -1.9987   -3.0862    0.4323 H       1  LIG1        0.0652
     19 C          -4.8752   -3.3747    0.5296 C.1     1  LIG1       -0.0675
     20 C          -5.5597   -4.3515    0.7410 C.1     1  LIG1       -0.1138
     21 H          -6.1648   -5.2065    0.9338 H       1  LIG1        0.1232
     22 C          -5.8199   -0.3759   -0.0336 C.ar    1  LIG1        0.0658
     23 C          -7.0406   -0.9599   -0.3233 C.ar    1  LIG1       -0.0189
     24 C          -8.0411    0.0550   -0.2764 C.ar    1  LIG1        0.0520
     25 C          -7.4016    1.2596    0.0495 C.ar    1  LIG1        0.0790
     26 N          -6.0620    0.9725    0.1932 N.ar    1  LIG1       -0.3509
     27 H          -5.3536    1.6620    0.3877 H       1  LIG1        0.1660
     28 H          -7.1995   -2.0025   -0.5492 H       1  LIG1        0.0652
     29 C          -9.4302   -0.1217   -0.4999 C.1     1  LIG1       -0.0675
     30 C         -10.6132   -0.2877   -0.6984 C.1     1  LIG1       -0.1138
     31 H         -11.6549   -0.4333   -0.8652 H       1  LIG1        0.1232
     32 C          -7.9296    2.5889    0.2567 C.ar    1  LIG1        0.0653
     33 C          -9.0115    3.2361   -0.3093 C.ar    1  LIG1       -0.0195
     34 C          -9.0749    4.5544    0.2451 C.ar    1  LIG1        0.0426
     35 C          -8.0210    4.6687    1.1413 C.ar    1  LIG1        0.0177
     36 N          -7.3247    3.4894    1.1276 N.ar    1  LIG1       -0.3584
     37 H          -6.6388    3.2337    1.8208 H       1  LIG1        0.1654
     38 H          -7.7308    5.4940    1.7728 H       1  LIG1        0.0819
     39 H          -9.6715    2.8227   -1.0558 H       1  LIG1        0.0651
     40 C         -10.0195    5.5681   -0.0660 C.1     1  LIG1       -0.0682
     41 C         -10.8290    6.4264   -0.3363 C.1     1  LIG1       -0.1139
     42 H         -11.5422    7.1810   -0.5730 H       1  LIG1        0.1232
@<TRIPOS>BOND
     1    39    33    1
     2    11    10    1
     3    31    30    1
     4    10     9    3
     5    30    29    3
     6     9     3    1
     7     8     2    1
     8    42    41    1
     9    28    23    1
    10    29    24    1
    11    17    16    1
    12     2     3   ar
    13     2     1   ar
    14     3     4   ar
    15    41    40    3
    16    23    24   ar
    17    23    22   ar
    18    33    34   ar
    19    33    32   ar
    20    24    25   ar
    21     1     7    1
    22     1     5   ar
    23     4    12    1
    24     4     5   ar
    25    16    12   ar
    26    16    15   ar
    27    40    34    1
    28    22    15    1
    29    22    26   ar
    30    12    13   ar
    31     5     6    1
    32    15    14   ar
    33    25    26   ar
    34    25    32    1
    35    26    27    1
    36    34    35   ar
    37    32    36   ar
    38    13    14   ar
    39    13    18    1
    40    14    19    1
    41    19    20    3
    42    20    21    1
    43    36    35   ar
    44    36    37    1
    45    35    38    1
