@<TRIPOS>MOLECULE
mol_data/opt/b3lyp/geoms/mol2/13ae13ae13ae.out
 32 34 0 0 0
SMALL
GASTEIGER

@<TRIPOS>ATOM
      1 C           1.2709   -0.2033    0.1162 C.ar    1  LIG1        0.0034
      2 C           0.8668    1.0511   -0.2631 C.ar    1  LIG1       -0.0283
      3 C          -0.5664    1.0585   -0.2943 C.ar    1  LIG1        0.0513
      4 C          -0.9936   -0.2225    0.0768 C.ar    1  LIG1        0.0785
      5 N           0.1424   -0.9737    0.3029 N.ar    1  LIG1       -0.3585
      6 H           0.1343   -1.8773    0.7484 H       1  LIG1        0.1654
      7 H           2.2577   -0.6146    0.2644 H       1  LIG1        0.0807
      8 H           1.5050    1.8865   -0.5097 H       1  LIG1        0.0645
      9 C          -1.3947    2.1483   -0.6611 C.1     1  LIG1       -0.0675
     10 C          -2.0866    3.0927   -0.9724 C.1     1  LIG1       -0.1138
     11 H          -2.6975    3.9185   -1.2536 H       1  LIG1        0.1232
     12 C          -2.3178   -0.7825    0.2065 C.ar    1  LIG1        0.0657
     13 C          -3.5321   -0.1931    0.4872 C.ar    1  LIG1       -0.0189
     14 C          -4.5328   -1.2158    0.4938 C.ar    1  LIG1        0.0520
     15 C          -3.8945   -2.4266    0.2109 C.ar    1  LIG1        0.0790
     16 N          -2.5418   -2.1543    0.0743 N.ar    1  LIG1       -0.3509
     17 H          -1.9410   -2.7397   -0.4884 H       1  LIG1        0.1660
     18 H          -3.6905    0.8531    0.6974 H       1  LIG1        0.0652
     19 C          -5.9102   -1.0382    0.7791 C.1     1  LIG1       -0.0675
     20 C          -7.0848   -0.8670    1.0190 C.1     1  LIG1       -0.1138
     21 H          -8.1170   -0.7195    1.2361 H       1  LIG1        0.1232
     22 C          -4.4141   -3.7667    0.0793 C.ar    1  LIG1        0.0653
     23 C          -5.6635   -4.2301   -0.2912 C.ar    1  LIG1       -0.0195
     24 C          -5.6246   -5.6604   -0.2721 C.ar    1  LIG1        0.0426
     25 C          -4.3421   -6.0270    0.1141 C.ar    1  LIG1        0.0177
     26 N          -3.6158   -4.8822    0.3046 N.ar    1  LIG1       -0.3584
     27 H          -2.7144   -4.8489    0.7535 H       1  LIG1        0.1654
     28 H          -3.9127   -7.0058    0.2612 H       1  LIG1        0.0819
     29 H          -6.5057   -3.6155   -0.5676 H       1  LIG1        0.0651
     30 C          -6.6833   -6.5487   -0.5988 C.1     1  LIG1       -0.0682
     31 C          -7.5912   -7.2989   -0.8781 C.1     1  LIG1       -0.1139
     32 H          -8.3905   -7.9585   -1.1234 H       1  LIG1        0.1232
@<TRIPOS>BOND
     1    11    10    1
     2    32    31    1
     3    10     9    3
     4    31    30    3
     5     9     3    1
     6    30    24    1
     7    29    23    1
     8     8     2    1
     9    17    16    1
    10     3     2   ar
    11     3     4   ar
    12    23    24   ar
    13    23    22   ar
    14    24    25   ar
    15     2     1   ar
    16    16    12   ar
    17    16    15   ar
    18     4    12    1
    19     4     5   ar
    20    22    15    1
    21    22    26   ar
    22    25    28    1
    23    25    26   ar
    24     1     7    1
    25     1     5   ar
    26    12    13   ar
    27    15    14   ar
    28     5     6    1
    29    26    27    1
    30    13    14   ar
    31    13    18    1
    32    14    19    1
    33    19    20    3
    34    20    21    1
