@<TRIPOS>MOLECULE
mol_data/opt/b3lyp/geoms/mol2/13ae13ae-13ae13ae-.out
 42 45 0 0 0
SMALL
GASTEIGER

@<TRIPOS>ATOM
      1 C           1.3768   -0.2889   -0.0015 C.ar    1  LIG1        0.0034
      2 C           0.9744    1.0223   -0.0015 C.ar    1  LIG1       -0.0283
      3 C          -0.4584    1.0331   -0.0004 C.ar    1  LIG1        0.0513
      4 C          -0.8851   -0.3049   -0.0001 C.ar    1  LIG1        0.0785
      5 N           0.2494   -1.0796   -0.0008 N.ar    1  LIG1       -0.3585
      6 H           0.2486   -2.0867   -0.0008 H       1  LIG1        0.1654
      7 H           2.3635   -0.7260   -0.0021 H       1  LIG1        0.0807
      8 H           1.6119    1.8935   -0.0021 H       1  LIG1        0.0645
      9 C          -1.2919    2.1792    0.0001 C.1     1  LIG1       -0.0675
     10 C          -2.0083    3.1590    0.0004 C.1     1  LIG1       -0.1138
     11 H          -2.6075    4.0400    0.0007 H       1  LIG1        0.1232
     12 C          -2.2076   -0.8802    0.0007 C.ar    1  LIG1        0.0657
     13 C          -2.6317   -2.1999    0.0009 C.ar    1  LIG1       -0.0189
     14 C          -4.0573   -2.2010    0.0019 C.ar    1  LIG1        0.0520
     15 C          -4.4747   -0.8566    0.0023 C.ar    1  LIG1        0.0790
     16 N          -3.3403   -0.0896    0.0016 N.ar    1  LIG1       -0.3509
     17 H          -3.3096    0.9214    0.0015 H       1  LIG1        0.1660
     18 H          -2.0117   -3.0846    0.0004 H       1  LIG1        0.0652
     19 C          -4.8968   -3.3424    0.0025 C.1     1  LIG1       -0.0675
     20 C          -5.6189   -4.3178    0.0029 C.1     1  LIG1       -0.1138
     21 H          -6.2268   -5.1930    0.0034 H       1  LIG1        0.1232
     22 C          -5.7920   -0.2751    0.0032 C.ar    1  LIG1        0.0658
     23 C          -6.2041    1.0486    0.0036 C.ar    1  LIG1       -0.0189
     24 C          -7.6292    1.0613    0.0046 C.ar    1  LIG1        0.0520
     25 C          -8.0590   -0.2793    0.0047 C.ar    1  LIG1        0.0790
     26 N          -6.9329   -1.0560    0.0038 N.ar    1  LIG1       -0.3509
     27 H          -6.9138   -2.0671    0.0036 H       1  LIG1        0.1660
     28 H          -5.5722    1.9248    0.0034 H       1  LIG1        0.0652
     29 C          -8.4598    2.2094    0.0053 C.1     1  LIG1       -0.0675
     30 C          -9.1754    3.1896    0.0058 C.1     1  LIG1       -0.1138
     31 H          -9.7760    4.0695    0.0060 H       1  LIG1        0.1232
     32 C          -9.3826   -0.8519    0.0055 C.ar    1  LIG1        0.0653
     33 C          -9.8047   -2.1738    0.0058 C.ar    1  LIG1       -0.0195
     34 C         -11.2330   -2.1754    0.0067 C.ar    1  LIG1        0.0426
     35 C         -11.6351   -0.8430    0.0066 C.ar    1  LIG1        0.0177
     36 N         -10.5182   -0.0634    0.0060 N.ar    1  LIG1       -0.3584
     37 H         -10.4931    0.9475    0.0059 H       1  LIG1        0.1654
     38 H         -12.6269   -0.4183    0.0070 H       1  LIG1        0.0819
     39 H          -9.1783   -3.0540    0.0056 H       1  LIG1        0.0651
     40 C         -12.0869   -3.3092    0.0074 C.1     1  LIG1       -0.0682
     41 C         -12.8076   -4.2821    0.0079 C.1     1  LIG1       -0.1139
     42 H         -13.4443   -5.1357    0.0086 H       1  LIG1        0.1232
@<TRIPOS>BOND
     1     8     2    1
     2     7     1    1
     3     2     1   ar
     4     2     3   ar
     5     1     5   ar
     6     6     5    1
     7     5     4   ar
     8     3     4   ar
     9     3     9    1
    10     4    12    1
    11     9    10    3
    12    18    13    1
    13    10    11    1
    14    12    13   ar
    15    12    16   ar
    16    13    14   ar
    17    17    16    1
    18    16    15   ar
    19    14    15   ar
    20    14    19    1
    21    15    22    1
    22    19    20    3
    23    20    21    1
    24    22    23   ar
    25    22    26   ar
    26    28    23    1
    27    27    26    1
    28    23    24   ar
    29    26    25   ar
    30    24    25   ar
    31    24    29    1
    32    25    32    1
    33    29    30    3
    34    32    33   ar
    35    32    36   ar
    36    39    33    1
    37    33    34   ar
    38    30    31    1
    39    37    36    1
    40    36    35   ar
    41    35    34   ar
    42    35    38    1
    43    34    40    1
    44    40    41    3
    45    41    42    1
