@<TRIPOS>MOLECULE
mol_data/opt/b3lyp/geoms/mol2/13af13af.out
 20 21 0 0 0
SMALL
GASTEIGER

@<TRIPOS>ATOM
      1 C           1.2324   -0.2401   -0.2542 C.ar    1  LIG1        0.0058
      2 C           0.7977    1.0098    0.1348 C.ar    1  LIG1       -0.0021
      3 C          -0.6173    0.9395    0.2345 C.ar    1  LIG1        0.1434
      4 C          -1.0195   -0.3485   -0.0936 C.ar    1  LIG1        0.1050
      5 N           0.1434   -1.0687   -0.3602 N.ar    1  LIG1       -0.3566
      6 H           0.1471   -1.9597   -0.8305 H       1  LIG1        0.1655
      7 H           2.2289   -0.6004   -0.4613 H       1  LIG1        0.0808
      8 H           1.4104    1.8737    0.3444 H       1  LIG1        0.0669
      9 O          -1.4133    1.9720    0.6333 O.3     1  LIG1       -0.5046
     10 H          -2.3122    1.6251    0.7436 H       1  LIG1        0.2922
     11 C          -2.3490   -0.9172   -0.0905 C.ar    1  LIG1        0.0700
     12 C          -3.5618   -0.3503   -0.4653 C.ar    1  LIG1        0.0067
     13 C          -4.5773   -1.3066   -0.1851 C.ar    1  LIG1        0.1347
     14 C          -3.9807   -2.4309    0.3451 C.ar    1  LIG1        0.0442
     15 N          -2.6129   -2.1885    0.3746 N.ar    1  LIG1       -0.3564
     16 H          -1.9572   -2.7204    0.9244 H       1  LIG1        0.1655
     17 H          -4.3968   -3.3754    0.6614 H       1  LIG1        0.0844
     18 H          -3.6993    0.5936   -0.9728 H       1  LIG1        0.0676
     19 O          -5.8977   -1.0827   -0.4596 O.3     1  LIG1       -0.5053
     20 H          -6.4044   -1.8669   -0.2137 H       1  LIG1        0.2922
@<TRIPOS>BOND
     1    18    12    1
     2     6     5    1
     3    12    13   ar
     4    12    11   ar
     5     7     1    1
     6    19    20    1
     7    19    13    1
     8     5     1   ar
     9     5     4   ar
    10     1     2   ar
    11    13    14   ar
    12     4    11    1
    13     4     3   ar
    14    11    15   ar
    15     2     3   ar
    16     2     8    1
    17     3     9    1
    18    14    15   ar
    19    14    17    1
    20    15    16    1
    21     9    10    1
