@<TRIPOS>MOLECULE
mol_data/opt/b3lyp/geoms/mol2/13af13af-13af-13af-.out
 38 41 0 0 0
SMALL
GASTEIGER

@<TRIPOS>ATOM
      1 C           1.3330   -0.3414    0.1203 C.ar    1  LIG1        0.0058
      2 C           0.8954    0.9417   -0.1486 C.ar    1  LIG1       -0.0021
      3 C          -0.5204    0.8856   -0.1881 C.ar    1  LIG1        0.1434
      4 C          -0.9286   -0.4216    0.0557 C.ar    1  LIG1        0.1050
      5 N           0.2344   -1.1499    0.2441 N.ar    1  LIG1       -0.3566
      6 H           0.2591   -2.1345    0.4502 H       1  LIG1        0.1655
      7 H           2.3327   -0.7308    0.2348 H       1  LIG1        0.0808
      8 H           1.5188    1.8129   -0.2948 H       1  LIG1        0.0669
      9 O          -1.4186    1.9081   -0.4089 O.3     1  LIG1       -0.5046
     10 H          -0.9420    2.6691   -0.7614 H       1  LIG1        0.2922
     11 C          -2.2523   -0.9839    0.1063 C.ar    1  LIG1        0.0705
     12 C          -2.7060   -2.2921    0.2782 C.ar    1  LIG1        0.0074
     13 C          -4.1181   -2.2569    0.1953 C.ar    1  LIG1        0.1441
     14 C          -4.5228   -0.9416   -0.0194 C.ar    1  LIG1        0.1055
     15 N          -3.3591   -0.1851   -0.0563 N.ar    1  LIG1       -0.3488
     16 H          -3.2900    0.7774   -0.3524 H       1  LIG1        0.1661
     17 H          -2.0959   -3.1705    0.4439 H       1  LIG1        0.0676
     18 O          -5.0008   -3.2971    0.3087 O.3     1  LIG1       -0.5046
     19 H          -4.5115   -4.0861    0.5712 H       1  LIG1        0.2922
     20 C          -5.8352   -0.3683   -0.1342 C.ar    1  LIG1        0.0705
     21 C          -7.0612   -0.9602   -0.4016 C.ar    1  LIG1        0.0074
     22 C          -8.0415    0.0659   -0.3650 C.ar    1  LIG1        0.1441
     23 C          -7.4200    1.2738   -0.0890 C.ar    1  LIG1        0.1054
     24 N          -6.0495    0.9968    0.0124 N.ar    1  LIG1       -0.3488
     25 H          -5.4596    1.5521    0.6161 H       1  LIG1        0.1661
     26 H          -7.2134   -2.0063   -0.6253 H       1  LIG1        0.0676
     27 O          -9.3856   -0.0508   -0.5920 O.3     1  LIG1       -0.5046
     28 H          -9.5727   -0.9673   -0.8289 H       1  LIG1        0.2922
     29 C          -7.9460    2.6085    0.0343 C.ar    1  LIG1        0.0701
     30 C          -9.2308    3.0590    0.3128 C.ar    1  LIG1        0.0067
     31 C          -9.1875    4.4804    0.3059 C.ar    1  LIG1        0.1347
     32 C          -7.8977    4.8785    0.0303 C.ar    1  LIG1        0.0442
     33 N          -7.1397    3.7221   -0.1014 N.ar    1  LIG1       -0.3564
     34 H          -6.2380    3.6943   -0.5496 H       1  LIG1        0.1655
     35 H          -7.4662    5.8627   -0.0516 H       1  LIG1        0.0844
     36 H         -10.0818    2.4265    0.5211 H       1  LIG1        0.0676
     37 O         -10.2171    5.3503    0.5531 O.3     1  LIG1       -0.5053
     38 H         -11.0215    4.8315    0.6728 H       1  LIG1        0.2922
@<TRIPOS>BOND
     1    28    27    1
     2    10     9    1
     3    26    21    1
     4    27    22    1
     5    34    33    1
     6     9     3    1
     7    21    22   ar
     8    21    20   ar
     9    22    23   ar
    10    16    15    1
    11     8     2    1
    12     3     2   ar
    13     3     4   ar
    14     2     1   ar
    15    20    14    1
    16    20    24   ar
    17    33    32   ar
    18    33    29   ar
    19    23    24   ar
    20    23    29    1
    21    15    14   ar
    22    15    11   ar
    23    35    32    1
    24    14    13   ar
    25    24    25    1
    26    32    31   ar
    27    29    30   ar
    28     4    11    1
    29     4     5   ar
    30    11    12   ar
    31     1     7    1
    32     1     5   ar
    33    13    12   ar
    34    13    18    1
    35     5     6    1
    36    12    17    1
    37    31    30   ar
    38    31    37    1
    39    18    19    1
    40    30    36    1
    41    37    38    1
