@<TRIPOS>MOLECULE
mol_data/opt/b3lyp/geoms/mol2/13af13af13af-13af-.out
 38 41 0 0 0
SMALL
GASTEIGER

@<TRIPOS>ATOM
      1 C           1.2540   -0.0285   -0.8912 C.ar    1  LIG1        0.0058
      2 C           0.9400    1.1004   -0.1643 C.ar    1  LIG1       -0.0021
      3 C          -0.4297    0.9904    0.1935 C.ar    1  LIG1        0.1434
      4 C          -0.9262   -0.2015   -0.3196 C.ar    1  LIG1        0.1050
      5 N           0.1429   -0.8323   -0.9554 N.ar    1  LIG1       -0.3566
      6 H           0.0274   -1.5858   -1.6146 H       1  LIG1        0.1655
      7 H           2.1802   -0.3205   -1.3627 H       1  LIG1        0.0808
      8 H           1.6069    1.9061    0.1041 H       1  LIG1        0.0669
      9 O          -1.0997    1.9002    0.9558 O.3     1  LIG1       -0.5046
     10 H          -1.9586    1.5166    1.1903 H       1  LIG1        0.2922
     11 C          -2.2434   -0.7752   -0.1799 C.ar    1  LIG1        0.0705
     12 C          -3.4911   -0.1519   -0.1595 C.ar    1  LIG1        0.0074
     13 C          -4.4575   -1.1616    0.0569 C.ar    1  LIG1        0.1441
     14 C          -3.8098   -2.3909    0.1537 C.ar    1  LIG1        0.1055
     15 N          -2.4536   -2.1245    0.0066 N.ar    1  LIG1       -0.3488
     16 H          -1.7214   -2.7989    0.1599 H       1  LIG1        0.1661
     17 H          -3.6878    0.8917   -0.3583 H       1  LIG1        0.0676
     18 O          -5.8085   -0.9446    0.1319 O.3     1  LIG1       -0.5046
     19 H          -6.1917   -1.6671    0.6516 H       1  LIG1        0.2922
     20 C          -4.3613   -3.7023    0.3698 C.ar    1  LIG1        0.0705
     21 C          -3.8366   -4.8528    0.9386 C.ar    1  LIG1        0.0074
     22 C          -4.8364   -5.8612    0.8581 C.ar    1  LIG1        0.1441
     23 C          -5.9660   -5.3274    0.2590 C.ar    1  LIG1        0.1054
     24 N          -5.6747   -3.9823   -0.0031 N.ar    1  LIG1       -0.3488
     25 H          -6.0900   -3.5028   -0.7906 H       1  LIG1        0.1661
     26 H          -2.8717   -4.9442    1.4203 H       1  LIG1        0.0676
     27 O          -4.7670   -7.1494    1.3084 O.3     1  LIG1       -0.5046
     28 H          -3.9386   -7.2647    1.7895 H       1  LIG1        0.2922
     29 C          -7.2440   -5.9197   -0.0416 C.ar    1  LIG1        0.0701
     30 C          -7.6151   -7.2545   -0.1599 C.ar    1  LIG1        0.0067
     31 C          -9.0012   -7.2782   -0.4718 C.ar    1  LIG1        0.1347
     32 C          -9.4558   -5.9787   -0.5417 C.ar    1  LIG1        0.0442
     33 N          -8.3643   -5.1571   -0.3045 N.ar    1  LIG1       -0.3564
     34 H          -8.4420   -4.1788   -0.0786 H       1  LIG1        0.1655
     35 H         -10.4364   -5.5859   -0.7554 H       1  LIG1        0.0844
     36 H          -6.9482   -8.0982   -0.0562 H       1  LIG1        0.0676
     37 O          -9.7919   -8.3728   -0.6974 O.3     1  LIG1       -0.5053
     38 H          -9.2581   -9.1632   -0.5522 H       1  LIG1        0.2922
@<TRIPOS>BOND
     1     6     5    1
     2     7     1    1
     3     5     1   ar
     4     5     4   ar
     5     1     2   ar
     6    25    24    1
     7    35    32    1
     8    37    38    1
     9    37    31    1
    10    32    31   ar
    11    32    33   ar
    12    31    30   ar
    13    17    12    1
    14     4    11    1
    15     4     3   ar
    16    33    34    1
    17    33    29   ar
    18    11    12   ar
    19    11    15   ar
    20     2     8    1
    21     2     3   ar
    22    30    36    1
    23    30    29   ar
    24    12    13   ar
    25    29    23    1
    26    24    23   ar
    27    24    20   ar
    28    15    14   ar
    29    15    16    1
    30    13    18    1
    31    13    14   ar
    32    18    19    1
    33    14    20    1
    34     3     9    1
    35    23    22   ar
    36    20    21   ar
    37    22    21   ar
    38    22    27    1
    39    21    26    1
    40     9    10    1
    41    27    28    1
