@<TRIPOS>MOLECULE
mol_data/opt/b3lyp/geoms/mol2/13af13af13af13af-.out
 38 41 0 0 0
SMALL
GASTEIGER

@<TRIPOS>ATOM
      1 C           1.0245    0.5493   -1.0453 C.ar    1  LIG1        0.0058
      2 C           0.8083    1.3191    0.0779 C.ar    1  LIG1       -0.0021
      3 C          -0.4788    0.9750    0.5699 C.ar    1  LIG1        0.1434
      4 C          -1.0233    0.0025   -0.2590 C.ar    1  LIG1        0.1050
      5 N          -0.0604   -0.2718   -1.2305 N.ar    1  LIG1       -0.3566
      6 H          -0.2677   -0.7460   -2.0954 H       1  LIG1        0.1655
      7 H           1.8655    0.5212   -1.7217 H       1  LIG1        0.0808
      8 H           1.4899    2.0320    0.5172 H       1  LIG1        0.0669
      9 O          -1.0336    1.4975    1.6996 O.3     1  LIG1       -0.5046
     10 H          -1.8424    0.9982    1.8911 H       1  LIG1        0.2922
     11 C          -2.2843   -0.6924   -0.1394 C.ar    1  LIG1        0.0705
     12 C          -3.5319   -0.2121    0.2579 C.ar    1  LIG1        0.0074
     13 C          -4.4263   -1.3091    0.2498 C.ar    1  LIG1        0.1441
     14 C          -3.7350   -2.4463   -0.1552 C.ar    1  LIG1        0.1055
     15 N          -2.4198   -2.0427   -0.3769 N.ar    1  LIG1       -0.3488
     16 H          -1.6693   -2.6528   -0.6574 H       1  LIG1        0.1661
     17 H          -3.7843    0.8195    0.4560 H       1  LIG1        0.0676
     18 O          -5.7437   -1.2339    0.5926 O.3     1  LIG1       -0.5046
     19 H          -6.0782   -2.1406    0.6729 H       1  LIG1        0.2922
     20 C          -4.2161   -3.7983   -0.2979 C.ar    1  LIG1        0.0705
     21 C          -5.4503   -4.2618   -0.7514 C.ar    1  LIG1        0.0074
     22 C          -5.4323   -5.6742   -0.6331 C.ar    1  LIG1        0.1441
     23 C          -4.2041   -6.0713   -0.1224 C.ar    1  LIG1        0.1054
     24 N          -3.4705   -4.9051    0.0588 N.ar    1  LIG1       -0.3488
     25 H          -2.6500   -4.8572    0.6419 H       1  LIG1        0.1661
     26 H          -6.2196   -3.6549   -1.2103 H       1  LIG1        0.0676
     27 O          -6.4126   -6.5774   -0.9704 O.3     1  LIG1       -0.5046
     28 H          -7.1600   -6.1039   -1.3544 H       1  LIG1        0.2922
     29 C          -3.6984   -7.3865    0.1753 C.ar    1  LIG1        0.0701
     30 C          -2.4545   -7.8194    0.6351 C.ar    1  LIG1        0.0067
     31 C          -2.5263   -9.2322    0.7581 C.ar    1  LIG1        0.1347
     32 C          -3.7906   -9.6365    0.3776 C.ar    1  LIG1        0.0442
     33 N          -4.4886   -8.4995    0.0277 N.ar    1  LIG1       -0.3564
     34 H          -5.4391   -8.4587   -0.3065 H       1  LIG1        0.1655
     35 H          -4.2278  -10.6204    0.3323 H       1  LIG1        0.0844
     36 H          -1.5930   -7.1987    0.8448 H       1  LIG1        0.0676
     37 O          -1.5458  -10.0953    1.1711 O.3     1  LIG1       -0.5053
     38 H          -0.7662   -9.5779    1.4053 H       1  LIG1        0.2922
@<TRIPOS>BOND
     1     6     5    1
     2     7     1    1
     3    28    27    1
     4     5     1   ar
     5     5     4   ar
     6    26    21    1
     7     1     2   ar
     8    27    22    1
     9    21    22   ar
    10    21    20   ar
    11    16    15    1
    12    22    23   ar
    13    15    14   ar
    14    15    11   ar
    15    34    33    1
    16    20    14    1
    17    20    24   ar
    18     4    11    1
    19     4     3   ar
    20    14    13   ar
    21    11    12   ar
    22    23    24   ar
    23    23    29    1
    24    33    29   ar
    25    33    32   ar
    26    24    25    1
    27     2     8    1
    28     2     3   ar
    29    29    30   ar
    30    13    12   ar
    31    13    18    1
    32    12    17    1
    33    35    32    1
    34    32    31   ar
    35     3     9    1
    36    18    19    1
    37    30    31   ar
    38    30    36    1
    39    31    37    1
    40    37    38    1
    41     9    10    1
