@<TRIPOS>MOLECULE
mol_data/opt/b3lyp/geoms/mol2/13af13af13af.out
 29 31 0 0 0
SMALL
GASTEIGER

@<TRIPOS>ATOM
      1 C           1.2508    0.0612   -0.6092 C.ar    1  LIG1        0.0058
      2 C           0.8638    1.0954    0.2165 C.ar    1  LIG1       -0.0021
      3 C          -0.5215    0.9179    0.4750 C.ar    1  LIG1        0.1434
      4 C          -0.9538   -0.2195   -0.1942 C.ar    1  LIG1        0.1050
      5 N           0.1676   -0.7537   -0.8290 N.ar    1  LIG1       -0.3566
      6 H           0.1100   -1.4268   -1.5770 H       1  LIG1        0.1655
      7 H           2.2109   -0.1575   -1.0519 H       1  LIG1        0.0808
      8 H           1.4915    1.8801    0.6116 H       1  LIG1        0.0669
      9 O          -1.2601    1.7233    1.2896 O.3     1  LIG1       -0.5046
     10 H          -2.1320    1.3135    1.3991 H       1  LIG1        0.2922
     11 C          -2.2637   -0.8303   -0.1984 C.ar    1  LIG1        0.0705
     12 C          -3.5241   -0.2351   -0.2332 C.ar    1  LIG1        0.0074
     13 C          -4.4826   -1.2763   -0.1740 C.ar    1  LIG1        0.1441
     14 C          -3.8142   -2.4934   -0.1094 C.ar    1  LIG1        0.1054
     15 N          -2.4540   -2.1919   -0.1157 N.ar    1  LIG1       -0.3488
     16 H          -1.7134   -2.8716   -0.0540 H       1  LIG1        0.1661
     17 H          -3.7285    0.8175   -0.3653 H       1  LIG1        0.0676
     18 O          -5.8306   -1.0815   -0.1756 O.3     1  LIG1       -0.5046
     19 H          -6.2532   -1.9390   -0.0121 H       1  LIG1        0.2922
     20 C          -4.3623   -3.8271   -0.0080 C.ar    1  LIG1        0.0701
     21 C          -5.4844   -4.3756   -0.6187 C.ar    1  LIG1        0.0067
     22 C          -5.6340   -5.6979   -0.1157 C.ar    1  LIG1        0.1347
     23 C          -4.6138   -5.9392    0.7797 C.ar    1  LIG1        0.0442
     24 N          -3.8269   -4.7949    0.8181 N.ar    1  LIG1       -0.3564
     25 H          -3.1753   -4.5892    1.5589 H       1  LIG1        0.1655
     26 H          -4.3634   -6.8192    1.3525 H       1  LIG1        0.0844
     27 H          -6.0692   -3.9253   -1.4079 H       1  LIG1        0.0676
     28 O          -6.6292   -6.5368   -0.5317 O.3     1  LIG1       -0.5053
     29 H          -6.5286   -7.3870   -0.0855 H       1  LIG1        0.2922
@<TRIPOS>BOND
     1     6     5    1
     2    27    21    1
     3     7     1    1
     4     5     1   ar
     5     5     4   ar
     6    21    22   ar
     7    21    20   ar
     8     1     2   ar
     9    28    22    1
    10    28    29    1
    11    17    12    1
    12    12    11   ar
    13    12    13   ar
    14    11     4    1
    15    11    15   ar
    16     4     3   ar
    17    18    13    1
    18    18    19    1
    19    13    14   ar
    20    22    23   ar
    21    15    14   ar
    22    15    16    1
    23    14    20    1
    24    20    24   ar
    25     2     3   ar
    26     2     8    1
    27     3     9    1
    28    23    24   ar
    29    23    26    1
    30    24    25    1
    31     9    10    1
