@<TRIPOS>MOLECULE
mol_data/opt/b3lyp/geoms/mol2/13af13af-4af13af.out
 40 43 0 0 0
SMALL
GASTEIGER

@<TRIPOS>ATOM
      1 C           1.4228   -0.4072   -0.0027 C.ar    1  LIG1        0.0058
      2 C           1.1064    0.9338   -0.0019 C.ar    1  LIG1       -0.0021
      3 C          -0.3076    1.0255   -0.0007 C.ar    1  LIG1        0.1434
      4 C          -0.8435   -0.2669   -0.0007 C.ar    1  LIG1        0.1050
      5 N           0.2575   -1.1197   -0.0019 N.ar    1  LIG1       -0.3566
      6 H           0.1923   -2.1231   -0.0026 H       1  LIG1        0.1655
      7 H           2.3819   -0.9023   -0.0037 H       1  LIG1        0.0808
      8 H           1.7914    1.7680   -0.0022 H       1  LIG1        0.0669
      9 O          -0.9289    2.2468    0.0003 O.3     1  LIG1       -0.5046
     10 H          -1.8850    2.1490    0.0003 H       1  LIG1        0.2922
     11 C          -2.1792   -0.8200    0.0005 C.ar    1  LIG1        0.0705
     12 C          -2.5707   -2.1606    0.0007 C.ar    1  LIG1        0.0074
     13 C          -3.9823   -2.1944    0.0019 C.ar    1  LIG1        0.1426
     14 C          -4.4723   -0.8898    0.0026 C.ar    1  LIG1        0.0891
     15 N          -3.3366   -0.0798    0.0018 N.ar    1  LIG1       -0.3500
     16 H          -3.3978    0.9214    0.0011 H       1  LIG1        0.1661
     17 H          -1.9179   -3.0233    0.0001 H       1  LIG1        0.0676
     18 O          -4.7794   -3.3084    0.0026 O.3     1  LIG1       -0.5046
     19 H          -4.2123   -4.0890    0.0023 H       1  LIG1        0.2922
     20 C          -6.0819    1.0325    0.0063 C.ar    1  LIG1       -0.0517
     21 C          -7.3797    1.5185    0.0076 C.ar    1  LIG1       -0.0485
     22 C          -5.8210   -0.3535    0.0041 C.ar    1  LIG1        0.0054
     23 C          -8.5108    0.6798    0.0069 C.ar    1  LIG1        0.0398
     24 H          -7.5322    2.5923    0.0094 H       1  LIG1        0.0625
     25 C          -6.9403   -1.2073    0.0034 C.ar    1  LIG1       -0.0103
     26 C          -8.2369   -0.7075    0.0048 C.ar    1  LIG1        0.1266
     27 H          -6.7883   -2.2819    0.0017 H       1  LIG1        0.0661
     28 H          -5.2711    1.7558    0.0074 H       1  LIG1        0.0624
     29 O          -9.3054   -1.5825    0.0040 O.3     1  LIG1       -0.5061
     30 H          -8.9650   -2.4862    0.0029 H       1  LIG1        0.2922
     31 C          -9.8529    1.2542    0.0083 C.ar    1  LIG1        0.0535
     32 C         -10.2484    2.5935    0.0100 C.ar    1  LIG1        0.0053
     33 C         -11.6605    2.6174    0.0109 C.ar    1  LIG1        0.1347
     34 C         -12.1142    1.3088    0.0099 C.ar    1  LIG1        0.0441
     35 N         -11.0025    0.4983    0.0084 N.ar    1  LIG1       -0.3575
     36 H         -10.9914   -0.5090    0.0071 H       1  LIG1        0.1654
     37 H         -13.1148    0.9031    0.0102 H       1  LIG1        0.0844
     38 H          -9.6098    3.4635    0.0104 H       1  LIG1        0.0675
     39 O         -12.3916    3.7764    0.0126 O.3     1  LIG1       -0.5053
     40 H         -13.3294    3.5482    0.0126 H       1  LIG1        0.2922
@<TRIPOS>BOND
     1     7     1    1
     2     1     2   ar
     3     1     5   ar
     4     6     5    1
     5     8     2    1
     6     2     3   ar
     7     5     4   ar
     8     4     3   ar
     9     4    11    1
    10     3     9    1
    11    17    12    1
    12    10     9    1
    13    11    12   ar
    14    11    15   ar
    15    12    13   ar
    16    16    15    1
    17    27    25    1
    18    15    14   ar
    19    13    18    1
    20    13    14   ar
    21    19    18    1
    22    14    22    1
    23    30    29    1
    24    25    22   ar
    25    25    26   ar
    26    29    26    1
    27    22    20   ar
    28    26    23   ar
    29    20    28    1
    30    20    21   ar
    31    23    21   ar
    32    23    31    1
    33    36    35    1
    34    21    24    1
    35    31    35   ar
    36    31    32   ar
    37    35    34   ar
    38    34    37    1
    39    34    33   ar
    40    32    38    1
    41    32    33   ar
    42    33    39    1
    43    40    39    1
