@<TRIPOS>MOLECULE
mol_data/opt/b3lyp/geoms/mol2/13af13af-13af.out
 29 31 0 0 0
SMALL
GASTEIGER

@<TRIPOS>ATOM
      1 C           1.2677   -0.2928   -0.0060 C.ar    1  LIG1        0.0058
      2 C           0.8234    1.0160   -0.0068 C.ar    1  LIG1       -0.0021
      3 C          -0.5934    0.9626   -0.0047 C.ar    1  LIG1        0.1434
      4 C          -0.9955   -0.3685   -0.0026 C.ar    1  LIG1        0.1050
      5 N           0.1720   -1.1146   -0.0035 N.ar    1  LIG1       -0.3566
      6 H           0.2008   -2.1203   -0.0025 H       1  LIG1        0.1655
      7 H           2.2699   -0.6925   -0.0070 H       1  LIG1        0.0808
      8 H           1.4432    1.9021   -0.0088 H       1  LIG1        0.0669
      9 O          -1.4977    2.0000   -0.0046 O.3     1  LIG1       -0.5046
     10 H          -1.0180    2.8365   -0.0063 H       1  LIG1        0.2922
     11 C          -2.3175   -0.9388   -0.0001 C.ar    1  LIG1        0.0705
     12 C          -2.7587   -2.2635    0.0018 C.ar    1  LIG1        0.0074
     13 C          -4.1716   -2.2218    0.0039 C.ar    1  LIG1        0.1441
     14 C          -4.5882   -0.8947    0.0033 C.ar    1  LIG1        0.1054
     15 N          -3.4323   -0.1361    0.0008 N.ar    1  LIG1       -0.3488
     16 H          -3.3856    0.8718   -0.0004 H       1  LIG1        0.1661
     17 H          -2.1400   -3.1513    0.0018 H       1  LIG1        0.0676
     18 O          -5.0631   -3.2724    0.0062 O.3     1  LIG1       -0.5046
     19 H          -4.5689   -4.1004    0.0082 H       1  LIG1        0.2922
     20 C          -5.9159   -0.3352    0.0046 C.ar    1  LIG1        0.0701
     21 C          -6.3625    0.9840    0.0040 C.ar    1  LIG1        0.0067
     22 C          -7.7793    0.9411    0.0063 C.ar    1  LIG1        0.1347
     23 C          -8.1763   -0.3831    0.0083 C.ar    1  LIG1        0.0442
     24 N          -7.0245   -1.1474    0.0072 N.ar    1  LIG1       -0.3564
     25 H          -6.9695   -2.1540    0.0084 H       1  LIG1        0.1655
     26 H          -9.1580   -0.8319    0.0100 H       1  LIG1        0.0844
     27 H          -5.7579    1.8792    0.0021 H       1  LIG1        0.0676
     28 O          -8.5590    2.0688    0.0063 O.3     1  LIG1       -0.5053
     29 H          -9.4858    1.7997    0.0085 H       1  LIG1        0.2922
@<TRIPOS>BOND
     1     8     2    1
     2     7     1    1
     3     2     1   ar
     4     2     3   ar
     5    10     9    1
     6     1     5   ar
     7     3     9    1
     8     3     4   ar
     9     5     4   ar
    10     5     6    1
    11     4    11    1
    12    16    15    1
    13    11    15   ar
    14    11    12   ar
    15    15    14   ar
    16    17    12    1
    17    12    13   ar
    18    27    21    1
    19    14    13   ar
    20    14    20    1
    21    13    18    1
    22    21    20   ar
    23    21    22   ar
    24    20    24   ar
    25    18    19    1
    26    28    22    1
    27    28    29    1
    28    22    23   ar
    29    24    23   ar
    30    24    25    1
    31    23    26    1
