@<TRIPOS>MOLECULE
mol_data/opt/b3lyp/geoms/mol2/13af13af-.out
 20 21 0 0 0
SMALL
GASTEIGER

@<TRIPOS>ATOM
      1 C           1.1674   -0.2509    0.0208 C.ar    1  LIG1        0.0058
      2 C           0.7030    1.0508    0.0369 C.ar    1  LIG1       -0.0021
      3 C          -0.7131    0.9751    0.0291 C.ar    1  LIG1        0.1434
      4 C          -1.0944   -0.3609    0.0084 C.ar    1  LIG1        0.1050
      5 N           0.0836   -1.0885    0.0038 N.ar    1  LIG1       -0.3566
      6 H           0.1262   -2.0936   -0.0102 H       1  LIG1        0.1655
      7 H           2.1754   -0.6356    0.0200 H       1  LIG1        0.0808
      8 H           1.3091    1.9462    0.0526 H       1  LIG1        0.0669
      9 O          -1.6330    2.0012    0.0394 O.3     1  LIG1       -0.5046
     10 H          -1.1621    2.8426    0.0505 H       1  LIG1        0.2922
     11 C          -2.4093   -0.9548   -0.0063 C.ar    1  LIG1        0.0700
     12 C          -2.8306   -2.2838   -0.0272 C.ar    1  LIG1        0.0067
     13 C          -4.2512   -2.2689   -0.0340 C.ar    1  LIG1        0.1347
     14 C          -4.6710   -0.9543   -0.0174 C.ar    1  LIG1        0.0442
     15 N          -3.5352   -0.1705   -0.0007 N.ar    1  LIG1       -0.3564
     16 H          -3.4999    0.8373    0.0136 H       1  LIG1        0.1655
     17 H          -5.6635   -0.5344   -0.0165 H       1  LIG1        0.0844
     18 H          -2.1978   -3.1620   -0.0362 H       1  LIG1        0.0676
     19 O          -5.1059   -3.3409   -0.0531 O.3     1  LIG1       -0.5053
     20 H          -4.5765   -4.1469   -0.0640 H       1  LIG1        0.2922
@<TRIPOS>BOND
     1    20    19    1
     2    19    13    1
     3    18    12    1
     4    13    12   ar
     5    13    14   ar
     6    12    11   ar
     7    14    17    1
     8    14    15   ar
     9     6     5    1
    10    11    15   ar
    11    11     4    1
    12    15    16    1
    13     5     4   ar
    14     5     1   ar
    15     4     3   ar
    16     7     1    1
    17     1     2   ar
    18     3     2   ar
    19     3     9    1
    20     2     8    1
    21     9    10    1
