@<TRIPOS>MOLECULE
mol_data/opt/b3lyp/geoms/mol2/13af13af-13af13af-.out
 38 41 0 0 0
SMALL
GASTEIGER

@<TRIPOS>ATOM
      1 C           1.3257   -0.2592    0.0022 C.ar    1  LIG1        0.0058
      2 C           0.8766    1.0480    0.0048 C.ar    1  LIG1       -0.0021
      3 C          -0.5396    0.9891    0.0054 C.ar    1  LIG1        0.1434
      4 C          -0.9370   -0.3437    0.0031 C.ar    1  LIG1        0.1050
      5 N           0.2334   -1.0853    0.0016 N.ar    1  LIG1       -0.3566
      6 H           0.2669   -2.0908    0.0003 H       1  LIG1        0.1655
      7 H           2.3294   -0.6550    0.0010 H       1  LIG1        0.0808
      8 H           1.4932    1.9362    0.0067 H       1  LIG1        0.0669
      9 O          -1.4476    2.0247    0.0097 O.3     1  LIG1       -0.5046
     10 H          -0.9685    2.8613   -0.0122 H       1  LIG1        0.2922
     11 C          -2.2569   -0.9178    0.0016 C.ar    1  LIG1        0.0705
     12 C          -2.6961   -2.2433   -0.0034 C.ar    1  LIG1        0.0074
     13 C          -4.1082   -2.2048   -0.0035 C.ar    1  LIG1        0.1441
     14 C          -4.5285   -0.8772    0.0016 C.ar    1  LIG1        0.1055
     15 N          -3.3729   -0.1163    0.0049 N.ar    1  LIG1       -0.3488
     16 H          -3.3236    0.8913    0.0068 H       1  LIG1        0.1661
     17 H          -2.0763   -3.1301   -0.0068 H       1  LIG1        0.0676
     18 O          -4.9979   -3.2555   -0.0074 O.3     1  LIG1       -0.5046
     19 H          -4.5046   -4.0840   -0.0130 H       1  LIG1        0.2922
     20 C          -5.8558   -0.3267    0.0037 C.ar    1  LIG1        0.0705
     21 C          -6.3128    0.9931    0.0108 C.ar    1  LIG1        0.0074
     22 C          -7.7242    0.9351    0.0097 C.ar    1  LIG1        0.1441
     23 C          -8.1273   -0.3969    0.0018 C.ar    1  LIG1        0.1054
     24 N          -6.9625   -1.1429   -0.0028 N.ar    1  LIG1       -0.3488
     25 H          -6.9025   -2.1496   -0.0082 H       1  LIG1        0.1661
     26 H          -5.7021    1.8860    0.0150 H       1  LIG1        0.0676
     27 O          -8.6277    1.9758    0.0111 O.3     1  LIG1       -0.5046
     28 H          -8.1432    2.8076    0.0658 H       1  LIG1        0.2922
     29 C          -9.4494   -0.9672   -0.0002 C.ar    1  LIG1        0.0701
     30 C          -9.8905   -2.2906   -0.0051 C.ar    1  LIG1        0.0067
     31 C         -11.3102   -2.2550   -0.0032 C.ar    1  LIG1        0.1347
     32 C         -11.7124   -0.9348    0.0027 C.ar    1  LIG1        0.0442
     33 N         -10.5651   -0.1665    0.0042 N.ar    1  LIG1       -0.3564
     34 H         -10.5160    0.8406    0.0096 H       1  LIG1        0.1655
     35 H         -12.6990   -0.5011    0.0051 H       1  LIG1        0.0844
     36 H          -9.2683   -3.1760   -0.0092 H       1  LIG1        0.0676
     37 O         -12.1796   -3.3165   -0.0066 O.3     1  LIG1       -0.5053
     38 H         -11.6585   -4.1280   -0.0122 H       1  LIG1        0.2922
@<TRIPOS>BOND
     1    19    18    1
     2    38    37    1
     3    10     9    1
     4    36    30    1
     5    25    24    1
     6    18    13    1
     7    17    12    1
     8    37    31    1
     9    30    31   ar
    10    30    29   ar
    11    13    12   ar
    12    13    14   ar
    13    12    11   ar
    14    31    32   ar
    15    24    23   ar
    16    24    20   ar
    17    29    23    1
    18    29    33   ar
    19     6     5    1
    20     7     1    1
    21    14    20    1
    22    14    15   ar
    23     5     1   ar
    24     5     4   ar
    25    11     4    1
    26    11    15   ar
    27    23    22   ar
    28     1     2   ar
    29    32    33   ar
    30    32    35    1
    31     4     3   ar
    32    20    21   ar
    33    33    34    1
    34     2     3   ar
    35     2     8    1
    36    15    16    1
    37     3     9    1
    38    22    21   ar
    39    22    27    1
    40    21    26    1
    41    27    28    1
