@<TRIPOS>MOLECULE
mol_data/opt/b3lyp/geoms/mol2/13af13af13af13af.out
 38 41 0 0 0
SMALL
GASTEIGER

@<TRIPOS>ATOM
      1 C           0.9883    0.6480   -1.1829 C.ar    1  LIG1        0.0058
      2 C           0.8373    1.3720   -0.0194 C.ar    1  LIG1       -0.0021
      3 C          -0.4183    1.0038    0.5332 C.ar    1  LIG1        0.1434
      4 C          -1.0087    0.0625   -0.2998 C.ar    1  LIG1        0.1050
      5 N          -0.1042   -0.1697   -1.3363 N.ar    1  LIG1       -0.3566
      6 H          -0.3629   -0.6070   -2.2068 H       1  LIG1        0.1655
      7 H           1.7879    0.6504   -1.9083 H       1  LIG1        0.0808
      8 H           1.5424    2.0699    0.4069 H       1  LIG1        0.0669
      9 O          -0.9067    1.4792    1.7134 O.3     1  LIG1       -0.5046
     10 H          -1.7106    0.9795    1.9236 H       1  LIG1        0.2922
     11 C          -2.2594   -0.6424   -0.1331 C.ar    1  LIG1        0.0705
     12 C          -3.4863   -0.1803    0.3415 C.ar    1  LIG1        0.0074
     13 C          -4.3769   -1.2813    0.3468 C.ar    1  LIG1        0.1441
     14 C          -3.7025   -2.4027   -0.1237 C.ar    1  LIG1        0.1055
     15 N          -2.4010   -1.9866   -0.3991 N.ar    1  LIG1       -0.3488
     16 H          -1.6682   -2.5777   -0.7563 H       1  LIG1        0.1661
     17 H          -3.7322    0.8440    0.5813 H       1  LIG1        0.0676
     18 O          -5.6730   -1.2185    0.7597 O.3     1  LIG1       -0.5046
     19 H          -6.0255   -2.1218    0.7702 H       1  LIG1        0.2922
     20 C          -4.1876   -3.7553   -0.2727 C.ar    1  LIG1        0.0705
     21 C          -5.4316   -4.2085   -0.7108 C.ar    1  LIG1        0.0074
     22 C          -5.4198   -5.6220   -0.6232 C.ar    1  LIG1        0.1441
     23 C          -4.1805   -6.0276   -0.1417 C.ar    1  LIG1        0.1054
     24 N          -3.4450   -4.8640    0.0725 N.ar    1  LIG1       -0.3488
     25 H          -2.5176   -4.8383    0.4644 H       1  LIG1        0.1661
     26 H          -6.2226   -3.5986   -1.1227 H       1  LIG1        0.0676
     27 O          -6.4687   -6.4218   -0.9608 O.3     1  LIG1       -0.5046
     28 H          -6.2423   -7.3299   -0.7060 H       1  LIG1        0.2922
     29 C          -3.7088   -7.3658    0.1366 C.ar    1  LIG1        0.0701
     30 C          -3.9184   -8.5449   -0.5692 C.ar    1  LIG1        0.0067
     31 C          -3.3141   -9.5955    0.1757 C.ar    1  LIG1        0.1347
     32 C          -2.7473   -9.0522    1.3092 C.ar    1  LIG1        0.0442
     33 N          -2.9738   -7.6826    1.2615 N.ar    1  LIG1       -0.3564
     34 H          -2.9017   -7.0766    2.0635 H       1  LIG1        0.1655
     35 H          -2.1837   -9.5061    2.1101 H       1  LIG1        0.0844
     36 H          -4.3610   -8.6342   -1.5509 H       1  LIG1        0.0676
     37 O          -3.3095  -10.8933   -0.2509 O.3     1  LIG1       -0.5053
     38 H          -2.8294  -11.4324    0.3902 H       1  LIG1        0.2922
@<TRIPOS>BOND
     1     6     5    1
     2     7     1    1
     3    36    30    1
     4     5     1   ar
     5     5     4   ar
     6     1     2   ar
     7    26    21    1
     8    27    28    1
     9    27    22    1
    10    16    15    1
    11    21    22   ar
    12    21    20   ar
    13    22    23   ar
    14    30    29   ar
    15    30    31   ar
    16    15    11   ar
    17    15    14   ar
    18     4    11    1
    19     4     3   ar
    20    20    14    1
    21    20    24   ar
    22    37    31    1
    23    37    38    1
    24    23    24   ar
    25    23    29    1
    26    11    12   ar
    27    14    13   ar
    28     2     8    1
    29     2     3   ar
    30    24    25    1
    31    29    33   ar
    32    31    32   ar
    33    12    13   ar
    34    12    17    1
    35    13    18    1
    36     3     9    1
    37    18    19    1
    38    33    32   ar
    39    33    34    1
    40    32    35    1
    41     9    10    1
