@<TRIPOS>MOLECULE
mol_data/opt/b3lyp/geoms/mol2/13af13af-13af-13af.out
 38 41 0 0 0
SMALL
GASTEIGER

@<TRIPOS>ATOM
      1 C           1.3391   -0.3600   -0.4880 C.ar    1  LIG1        0.0058
      2 C           0.9749    0.9209   -0.1212 C.ar    1  LIG1       -0.0021
      3 C          -0.4145    0.8862    0.1530 C.ar    1  LIG1        0.1434
      4 C          -0.8773   -0.4112   -0.0534 C.ar    1  LIG1        0.1050
      5 N           0.2287   -1.1610   -0.4256 N.ar    1  LIG1       -0.3566
      6 H           0.1782   -2.1151   -0.7424 H       1  LIG1        0.1655
      7 H           2.2985   -0.7579   -0.7817 H       1  LIG1        0.0808
      8 H           1.6212    1.7821   -0.0421 H       1  LIG1        0.0669
      9 O          -1.1589    1.9639    0.5625 O.3     1  LIG1       -0.5046
     10 H          -1.9051    1.6270    1.0801 H       1  LIG1        0.2922
     11 C          -2.2043   -0.9509    0.0957 C.ar    1  LIG1        0.0705
     12 C          -2.6623   -2.2285    0.3830 C.ar    1  LIG1        0.0074
     13 C          -4.0823   -2.1836    0.3644 C.ar    1  LIG1        0.1441
     14 C          -4.4882   -0.8873    0.0825 C.ar    1  LIG1        0.1055
     15 N          -3.3178   -0.1293   -0.0437 N.ar    1  LIG1       -0.3488
     16 H          -3.2774    0.6915   -0.6323 H       1  LIG1        0.1661
     17 H          -2.0485   -3.0810    0.6432 H       1  LIG1        0.0676
     18 O          -4.9595   -3.2029    0.6101 O.3     1  LIG1       -0.5046
     19 H          -4.4591   -3.9810    0.8842 H       1  LIG1        0.2922
     20 C          -5.8036   -0.3195   -0.0281 C.ar    1  LIG1        0.0705
     21 C          -7.0378   -0.9364   -0.2168 C.ar    1  LIG1        0.0074
     22 C          -8.0084    0.0902   -0.2563 C.ar    1  LIG1        0.1441
     23 C          -7.3822    1.3206   -0.1015 C.ar    1  LIG1        0.1054
     24 N          -6.0252    1.0445    0.0100 N.ar    1  LIG1       -0.3488
     25 H          -5.3619    1.7129    0.3676 H       1  LIG1        0.1661
     26 H          -7.1920   -1.9992   -0.3327 H       1  LIG1        0.0676
     27 O          -9.3684   -0.0232   -0.4374 O.3     1  LIG1       -0.5046
     28 H          -9.6001   -0.9592   -0.4610 H       1  LIG1        0.2922
     29 C          -7.9313    2.6502   -0.0558 C.ar    1  LIG1        0.0701
     30 C          -7.3232    3.8990    0.0555 C.ar    1  LIG1        0.0067
     31 C          -8.3604    4.8650    0.0629 C.ar    1  LIG1        0.1347
     32 C          -9.5712    4.2061   -0.0438 C.ar    1  LIG1        0.0442
     33 N          -9.2888    2.8550   -0.1135 N.ar    1  LIG1       -0.3564
     34 H          -9.9545    2.1037   -0.2083 H       1  LIG1        0.1655
     35 H         -10.5836    4.5789   -0.0764 H       1  LIG1        0.0844
     36 H          -6.2652    4.1104    0.1110 H       1  LIG1        0.0676
     37 O          -8.1231    6.2111    0.1603 O.3     1  LIG1       -0.5053
     38 H          -8.9694    6.6745    0.1352 H       1  LIG1        0.2922
@<TRIPOS>BOND
     1     7     1    1
     2     6     5    1
     3    16    15    1
     4     1     5   ar
     5     1     2   ar
     6    28    27    1
     7    27    22    1
     8     5     4   ar
     9    26    21    1
    10    22    21   ar
    11    22    23   ar
    12    21    20   ar
    13    34    33    1
    14     2     8    1
    15     2     3   ar
    16    33    29   ar
    17    33    32   ar
    18    23    29    1
    19    23    24   ar
    20    35    32    1
    21    29    30   ar
    22     4    11    1
    23     4     3   ar
    24    32    31   ar
    25    15    14   ar
    26    15    11   ar
    27    20    24   ar
    28    20    14    1
    29    24    25    1
    30    30    31   ar
    31    30    36    1
    32    31    37    1
    33    14    13   ar
    34    11    12   ar
    35    38    37    1
    36     3     9    1
    37    13    12   ar
    38    13    18    1
    39    12    17    1
    40     9    10    1
    41    18    19    1
