@<TRIPOS>MOLECULE
mol_data/opt/b3lyp/geoms/mol2/13af13af13af-13af.out
 38 41 0 0 0
SMALL
GASTEIGER

@<TRIPOS>ATOM
      1 C           1.3170    0.0368   -0.3179 C.ar    1  LIG1        0.0058
      2 C           0.8388    1.1690    0.3082 C.ar    1  LIG1       -0.0021
      3 C          -0.5682    1.0151    0.4155 C.ar    1  LIG1        0.1434
      4 C          -0.9238   -0.2055   -0.1456 C.ar    1  LIG1        0.1050
      5 N           0.2625   -0.8077   -0.5611 N.ar    1  LIG1       -0.3566
      6 H           0.2934   -1.5909   -1.1943 H       1  LIG1        0.1655
      7 H           2.3230   -0.2321   -0.6027 H       1  LIG1        0.0808
      8 H           1.4193    2.0046    0.6699 H       1  LIG1        0.0669
      9 O          -1.3999    1.9145    1.0162 O.3     1  LIG1       -0.5046
     10 H          -2.2633    1.4872    1.1268 H       1  LIG1        0.2922
     11 C          -2.2253   -0.8206   -0.2422 C.ar    1  LIG1        0.0705
     12 C          -3.4719   -0.2426   -0.4780 C.ar    1  LIG1        0.0074
     13 C          -4.4303   -1.2845   -0.4148 C.ar    1  LIG1        0.1441
     14 C          -3.7809   -2.4841   -0.1510 C.ar    1  LIG1        0.1055
     15 N          -2.4280   -2.1744   -0.0666 N.ar    1  LIG1       -0.3488
     16 H          -1.7416   -2.7863    0.3452 H       1  LIG1        0.1661
     17 H          -3.6444    0.7869   -0.7622 H       1  LIG1        0.0676
     18 O          -5.7905   -1.2139   -0.5958 O.3     1  LIG1       -0.5046
     19 H          -6.0322   -0.3140   -0.8449 H       1  LIG1        0.2922
     20 C          -4.3095   -3.8124   -0.0040 C.ar    1  LIG1        0.0705
     21 C          -3.6831   -5.0414    0.2162 C.ar    1  LIG1        0.0074
     22 C          -4.7062   -6.0135    0.2824 C.ar    1  LIG1        0.1441
     23 C          -5.9384   -5.3913    0.1053 C.ar    1  LIG1        0.1054
     24 N          -5.6623   -4.0483   -0.0677 N.ar    1  LIG1       -0.3488
     25 H          -6.3419   -3.3213   -0.2340 H       1  LIG1        0.1661
     26 H          -2.6191   -5.2176    0.3022 H       1  LIG1        0.0676
     27 O          -4.5900   -7.3732    0.4722 O.3     1  LIG1       -0.5046
     28 H          -3.6741   -7.5804    0.6917 H       1  LIG1        0.2922
     29 C          -7.2677   -5.9461    0.0903 C.ar    1  LIG1        0.0701
     30 C          -8.5158   -5.3500   -0.0733 C.ar    1  LIG1        0.0067
     31 C          -9.4813   -6.3847    0.0018 C.ar    1  LIG1        0.1347
     32 C          -8.8224   -7.5828    0.2073 C.ar    1  LIG1        0.0442
     33 N          -7.4718   -7.2948    0.2577 N.ar    1  LIG1       -0.3564
     34 H          -6.7202   -7.9519    0.3985 H       1  LIG1        0.1655
     35 H          -9.1947   -8.5899    0.3176 H       1  LIG1        0.0844
     36 H          -8.7251   -4.3014   -0.2272 H       1  LIG1        0.0676
     37 O         -10.8276   -6.1576   -0.1192 O.3     1  LIG1       -0.5053
     38 H         -11.2895   -7.0007   -0.0330 H       1  LIG1        0.2922
@<TRIPOS>BOND
     1     6     5    1
     2    19    18    1
     3    17    12    1
     4     7     1    1
     5    18    13    1
     6     5     1   ar
     7     5     4   ar
     8    12    13   ar
     9    12    11   ar
    10    13    14   ar
    11     1     2   ar
    12    11     4    1
    13    11    15   ar
    14    25    24    1
    15    36    30    1
    16    14    15   ar
    17    14    20    1
    18     4     3   ar
    19    37    38    1
    20    37    31    1
    21    30    31   ar
    22    30    29   ar
    23    24    20   ar
    24    24    23   ar
    25    15    16    1
    26    20    21   ar
    27    31    32   ar
    28    29    23    1
    29    29    33   ar
    30    23    22   ar
    31    32    33   ar
    32    32    35    1
    33    21    22   ar
    34    21    26    1
    35    33    34    1
    36    22    27    1
    37     2     3   ar
    38     2     8    1
    39     3     9    1
    40    27    28    1
    41     9    10    1
