@<TRIPOS>MOLECULE
mol_data/opt/b3lyp/geoms/mol2/13ag13ag13ag-.out
 29 31 0 0 0
SMALL
GASTEIGER

@<TRIPOS>ATOM
      1 C           1.2289   -0.1597    0.0910 C.ar    1  LIG1        0.0033
      2 C           0.8028    1.1039   -0.2397 C.ar    1  LIG1       -0.0305
      3 C          -0.6233    1.0900   -0.2486 C.ar    1  LIG1        0.0315
      4 C          -1.0378   -0.1991    0.0896 C.ar    1  LIG1        0.0762
      5 N           0.1119   -0.9444    0.2743 N.ar    1  LIG1       -0.3586
      6 H           0.1166   -1.8658    0.6825 H       1  LIG1        0.1654
      7 H           2.2220   -0.5650    0.2132 H       1  LIG1        0.0807
      8 H           1.4270    1.9571   -0.4612 H       1  LIG1        0.0644
      9 S          -1.6731    2.4853   -0.5812 S.3     1  LIG1       -0.1405
     10 H          -1.6776    2.4172   -1.9320 H       1  LIG1        0.1072
     11 C          -2.3427   -0.8122    0.2233 C.ar    1  LIG1        0.0655
     12 C          -3.5678   -0.3019    0.6063 C.ar    1  LIG1       -0.0211
     13 C          -4.5171   -1.3624    0.5604 C.ar    1  LIG1        0.0321
     14 C          -3.8576   -2.5120    0.1488 C.ar    1  LIG1        0.0767
     15 N          -2.5108   -2.1749   -0.0062 N.ar    1  LIG1       -0.3510
     16 H          -1.9250   -2.6759   -0.6598 H       1  LIG1        0.1660
     17 H          -3.7524    0.7120    0.9259 H       1  LIG1        0.0650
     18 S          -6.2162   -1.1748    1.0340 S.3     1  LIG1       -0.1405
     19 H          -6.4773   -2.4933    1.1557 H       1  LIG1        0.1072
     20 C          -4.3167   -3.8698   -0.0545 C.ar    1  LIG1        0.0650
     21 C          -5.4933   -4.3815   -0.5814 C.ar    1  LIG1       -0.0218
     22 C          -5.4023   -5.8041   -0.5415 C.ar    1  LIG1        0.0227
     23 C          -4.1713   -6.1287   -0.0058 C.ar    1  LIG1        0.0154
     24 N          -3.5171   -4.9560    0.2731 N.ar    1  LIG1       -0.3585
     25 H          -2.6573   -4.8818    0.7938 H       1  LIG1        0.1654
     26 H          -3.7260   -7.0927    0.1866 H       1  LIG1        0.0818
     27 H          -6.3028   -3.8038   -1.0021 H       1  LIG1        0.0650
     28 S          -6.5721   -6.9825   -1.1800 S.3     1  LIG1       -0.1412
     29 H          -7.4754   -6.9246   -0.1757 H       1  LIG1        0.1072
@<TRIPOS>BOND
     1    10     9    1
     2    28    22    1
     3    28    29    1
     4    27    21    1
     5    16    15    1
     6    21    22   ar
     7    21    20   ar
     8     9     3    1
     9    22    23   ar
    10     8     2    1
    11     3     2   ar
    12     3     4   ar
    13     2     1   ar
    14    20    14    1
    15    20    24   ar
    16    15    14   ar
    17    15    11   ar
    18    23    26    1
    19    23    24   ar
    20     4    11    1
    21     4     5   ar
    22     1     7    1
    23     1     5   ar
    24    14    13   ar
    25    11    12   ar
    26    24    25    1
    27     5     6    1
    28    13    12   ar
    29    13    18    1
    30    12    17    1
    31    18    19    1
