@<TRIPOS>MOLECULE
mol_data/opt/b3lyp/geoms/mol2/13ag13ag13ag13ag.out
 38 41 0 0 0
SMALL
GASTEIGER

@<TRIPOS>ATOM
      1 C           1.2078   -0.0750    0.1374 C.ar    1  LIG1        0.0033
      2 C           0.7939    1.1922   -0.1947 C.ar    1  LIG1       -0.0305
      3 C          -0.6322    1.1903   -0.2108 C.ar    1  LIG1        0.0315
      4 C          -1.0590   -0.0953    0.1248 C.ar    1  LIG1        0.0762
      5 N           0.0836   -0.8514    0.3136 N.ar    1  LIG1       -0.3586
      6 H           0.0784   -1.7674    0.7342 H       1  LIG1        0.1654
      7 H           2.1970   -0.4880    0.2656 H       1  LIG1        0.0807
      8 H           1.4266    2.0401   -0.4125 H       1  LIG1        0.0644
      9 S          -1.6709    2.5925   -0.5488 S.3     1  LIG1       -0.1405
     10 H          -1.6410    2.5439   -1.9001 H       1  LIG1        0.1072
     11 C          -2.3700   -0.6956    0.2528 C.ar    1  LIG1        0.0655
     12 C          -3.5881   -0.1785    0.6508 C.ar    1  LIG1       -0.0211
     13 C          -4.5494   -1.2254    0.5905 C.ar    1  LIG1        0.0321
     14 C          -3.9042   -2.3770    0.1532 C.ar    1  LIG1        0.0767
     15 N          -2.5558   -2.0516    0.0017 N.ar    1  LIG1       -0.3510
     16 H          -1.9689   -2.5574   -0.6465 H       1  LIG1        0.1660
     17 H          -3.7606    0.8308    0.9911 H       1  LIG1        0.0650
     18 S          -6.2481   -1.0202    1.0593 S.3     1  LIG1       -0.1405
     19 H          -6.4799   -2.3154    1.3605 H       1  LIG1        0.1072
     20 C          -4.3762   -3.7208   -0.0783 C.ar    1  LIG1        0.0655
     21 C          -5.6109   -4.2072   -0.4794 C.ar    1  LIG1       -0.0211
     22 C          -5.5241   -5.6271   -0.5357 C.ar    1  LIG1        0.0321
     23 C          -4.2367   -5.9937   -0.1682 C.ar    1  LIG1        0.0767
     24 N          -3.5294   -4.8120    0.0636 N.ar    1  LIG1       -0.3510
     25 H          -2.7312   -4.7871    0.6819 H       1  LIG1        0.1660
     26 H          -6.4581   -3.6074   -0.7764 H       1  LIG1        0.0650
     27 S          -6.8585   -6.6676   -1.0668 S.3     1  LIG1       -0.1405
     28 H          -6.1107   -7.7763   -1.2474 H       1  LIG1        0.1072
     29 C          -3.5924   -7.2863   -0.0684 C.ar    1  LIG1        0.0650
     30 C          -4.0449   -8.5122    0.3962 C.ar    1  LIG1       -0.0218
     31 C          -2.9761   -9.4470    0.2622 C.ar    1  LIG1        0.0227
     32 C          -1.8944   -8.7706   -0.2666 C.ar    1  LIG1        0.0154
     33 N          -2.2695   -7.4639   -0.4499 N.ar    1  LIG1       -0.3585
     34 H          -1.7341   -6.7738   -0.9529 H       1  LIG1        0.1654
     35 H          -0.9046   -9.1223   -0.5141 H       1  LIG1        0.0818
     36 H          -5.0113   -8.7046    0.8380 H       1  LIG1        0.0650
     37 S          -2.9483  -11.1435    0.7967 S.3     1  LIG1       -0.1412
     38 H          -3.6559  -11.6808   -0.2223 H       1  LIG1        0.1072
@<TRIPOS>BOND
     1    10     9    1
     2    28    27    1
     3    27    22    1
     4    34    33    1
     5    26    21    1
     6    16    15    1
     7     9     3    1
     8    22    21   ar
     9    22    23   ar
    10    35    32    1
    11    21    20   ar
    12    33    32   ar
    13    33    29   ar
    14     8     2    1
    15    32    31   ar
    16    38    37    1
    17     3     2   ar
    18     3     4   ar
    19     2     1   ar
    20    23    29    1
    21    23    24   ar
    22    20    24   ar
    23    20    14    1
    24    29    30   ar
    25    15    14   ar
    26    15    11   ar
    27    24    25    1
    28     4    11    1
    29     4     5   ar
    30     1     7    1
    31     1     5   ar
    32    14    13   ar
    33    11    12   ar
    34    31    30   ar
    35    31    37    1
    36     5     6    1
    37    30    36    1
    38    13    12   ar
    39    13    18    1
    40    12    17    1
    41    18    19    1
