@<TRIPOS>MOLECULE
mol_data/opt/b3lyp/geoms/mol2/13ag13ag.out
 20 21 0 0 0
SMALL
GASTEIGER

@<TRIPOS>ATOM
      1 C           1.1753   -0.2433    0.2313 C.ar    1  LIG1        0.0033
      2 C           0.7229    1.0283   -0.0229 C.ar    1  LIG1       -0.0305
      3 C          -0.7001    0.9689   -0.1148 C.ar    1  LIG1        0.0315
      4 C          -1.0850   -0.3534    0.0988 C.ar    1  LIG1        0.0762
      5 N           0.0789   -1.0756    0.2898 N.ar    1  LIG1       -0.3586
      6 H           0.0957   -2.0216    0.6381 H       1  LIG1        0.1654
      7 H           2.1744   -0.6258    0.3761 H       1  LIG1        0.0807
      8 H           1.3277    1.9153   -0.1423 H       1  LIG1        0.0644
      9 S          -1.7866    2.3457   -0.4051 S.3     1  LIG1       -0.1405
     10 H          -1.6487    2.4286   -1.7480 H       1  LIG1        0.1072
     11 C          -2.3783   -1.0128    0.1156 C.ar    1  LIG1        0.0650
     12 C          -3.6118   -0.6232    0.6043 C.ar    1  LIG1       -0.0218
     13 C          -4.5277   -1.6887    0.3641 C.ar    1  LIG1        0.0227
     14 C          -3.8304   -2.7087   -0.2538 C.ar    1  LIG1        0.0154
     15 N          -2.5274   -2.3016   -0.3836 N.ar    1  LIG1       -0.3585
     16 H          -1.8320   -2.7749   -0.9390 H       1  LIG1        0.1654
     17 H          -4.1650   -3.6751   -0.5985 H       1  LIG1        0.0818
     18 H          -3.8267    0.3101    1.1012 H       1  LIG1        0.0650
     19 S          -6.2312   -1.7885    0.8667 S.3     1  LIG1       -0.1412
     20 H          -6.7568   -0.9601   -0.0632 H       1  LIG1        0.1072
@<TRIPOS>BOND
     1    10     9    1
     2    16    15    1
     3    17    14    1
     4     9     3    1
     5    15    14   ar
     6    15    11   ar
     7    14    13   ar
     8     8     2    1
     9     3     2   ar
    10     3     4   ar
    11    20    19    1
    12     2     1   ar
    13     4    11    1
    14     4     5   ar
    15    11    12   ar
    16     1     5   ar
    17     1     7    1
    18     5     6    1
    19    13    12   ar
    20    13    19    1
    21    12    18    1
