@<TRIPOS>MOLECULE
mol_data/opt/b3lyp/geoms/mol2/13ag13ag-13ag-.out
 29 31 0 0 0
SMALL
GASTEIGER

@<TRIPOS>ATOM
      1 C           1.2899   -0.1430   -0.1171 C.ar    1  LIG1        0.0033
      2 C           0.8589    1.0885    0.3206 C.ar    1  LIG1       -0.0305
      3 C          -0.5650    1.0581    0.3495 C.ar    1  LIG1        0.0315
      4 C          -0.9728   -0.2038   -0.0749 C.ar    1  LIG1        0.0762
      5 N           0.1843   -0.9295   -0.3260 N.ar    1  LIG1       -0.3586
      6 H           0.1894   -1.8170   -0.8028 H       1  LIG1        0.1654
      7 H           2.2867   -0.5218   -0.2850 H       1  LIG1        0.0807
      8 H           1.4850    1.9192    0.6115 H       1  LIG1        0.0644
      9 S          -1.5718    2.4263    0.8665 S.3     1  LIG1       -0.1405
     10 H          -2.6256    1.6954    1.2877 H       1  LIG1        0.1072
     11 C          -2.2821   -0.8041   -0.2075 C.ar    1  LIG1        0.0655
     12 C          -3.5078   -0.2668   -0.5613 C.ar    1  LIG1       -0.0211
     13 C          -4.4732   -1.3137   -0.5191 C.ar    1  LIG1        0.0321
     14 C          -3.8251   -2.4799   -0.1381 C.ar    1  LIG1        0.0767
     15 N          -2.4719   -2.1636    0.0050 N.ar    1  LIG1       -0.3510
     16 H          -1.8714   -2.6931    0.6213 H       1  LIG1        0.1660
     17 H          -3.6796    0.7484   -0.8867 H       1  LIG1        0.0650
     18 S          -6.1757   -1.0915   -0.9639 S.3     1  LIG1       -0.1405
     19 H          -6.4612   -2.4038   -1.0971 H       1  LIG1        0.1072
     20 C          -4.3018   -3.8348    0.0446 C.ar    1  LIG1        0.0650
     21 C          -5.4772   -4.3388    0.5812 C.ar    1  LIG1       -0.0218
     22 C          -5.4102   -5.7616    0.5095 C.ar    1  LIG1        0.0227
     23 C          -4.1942   -6.0941   -0.0545 C.ar    1  LIG1        0.0154
     24 N          -3.5257   -4.9262   -0.3202 N.ar    1  LIG1       -0.3585
     25 H          -2.6741   -4.8553   -0.8545 H       1  LIG1        0.1654
     26 H          -3.7679   -7.0606   -0.2749 H       1  LIG1        0.0818
     27 H          -6.2695   -3.7576    1.0290 H       1  LIG1        0.0650
     28 S          -6.5881   -6.9345    1.1436 S.3     1  LIG1       -0.1412
     29 H          -7.5048   -6.8447    0.1539 H       1  LIG1        0.1072
@<TRIPOS>BOND
     1    19    18    1
     2    18    13    1
     3    17    12    1
     4    25    24    1
     5     6     5    1
     6    12    13   ar
     7    12    11   ar
     8    13    14   ar
     9     5     1   ar
    10     5     4   ar
    11    24    23   ar
    12    24    20   ar
    13     7     1    1
    14    26    23    1
    15    11     4    1
    16    11    15   ar
    17    14    15   ar
    18    14    20    1
    19     1     2   ar
    20     4     3   ar
    21    23    22   ar
    22    15    16    1
    23    20    21   ar
    24    29    28    1
    25     2     3   ar
    26     2     8    1
    27     3     9    1
    28    22    21   ar
    29    22    28    1
    30    21    27    1
    31     9    10    1
