@<TRIPOS>MOLECULE
mol_data/opt/b3lyp/geoms/mol2/13ag13ag-13ag-13ag.out
 38 41 0 0 0
SMALL
GASTEIGER

@<TRIPOS>ATOM
      1 C           1.2716   -0.0473   -0.1595 C.ar    1  LIG1        0.0033
      2 C           0.8529    1.1800    0.3011 C.ar    1  LIG1       -0.0305
      3 C          -0.5709    1.1571    0.3464 C.ar    1  LIG1        0.0315
      4 C          -0.9905   -0.0958   -0.0916 C.ar    1  LIG1        0.0762
      5 N           0.1598   -0.8258   -0.3654 N.ar    1  LIG1       -0.3586
      6 H           0.1535   -1.6976   -0.8707 H       1  LIG1        0.1654
      7 H           2.2644   -0.4276   -0.3465 H       1  LIG1        0.0807
      8 H           1.4877    2.0025    0.5968 H       1  LIG1        0.0644
      9 S          -1.5627    2.5202    0.9027 S.3     1  LIG1       -0.1405
     10 H          -2.6429    1.7907    1.2535 H       1  LIG1        0.1072
     11 C          -2.3049   -0.6857   -0.2180 C.ar    1  LIG1        0.0655
     12 C          -3.5260   -0.1436   -0.5826 C.ar    1  LIG1       -0.0211
     13 C          -4.5001   -1.1801   -0.5279 C.ar    1  LIG1        0.0321
     14 C          -3.8617   -2.3484   -0.1275 C.ar    1  LIG1        0.0767
     15 N          -2.5078   -2.0402    0.0111 N.ar    1  LIG1       -0.3510
     16 H          -1.9033   -2.5760    0.6171 H       1  LIG1        0.1660
     17 H          -3.6893    0.8672   -0.9256 H       1  LIG1        0.0650
     18 S          -6.2035   -0.9439   -0.9637 S.3     1  LIG1       -0.1405
     19 H          -6.4570   -2.2295   -1.2875 H       1  LIG1        0.1072
     20 C          -4.3453   -3.6925    0.0781 C.ar    1  LIG1        0.0655
     21 C          -5.5786   -4.1749    0.4878 C.ar    1  LIG1       -0.0211
     22 C          -5.5072   -5.5967    0.5082 C.ar    1  LIG1        0.0321
     23 C          -4.2302   -5.9683    0.1108 C.ar    1  LIG1        0.0767
     24 N          -3.5135   -4.7891   -0.1044 N.ar    1  LIG1       -0.3510
     25 H          -2.7244   -4.7588   -0.7340 H       1  LIG1        0.1660
     26 H          -6.4140   -3.5735    0.8139 H       1  LIG1        0.0650
     27 S          -6.8446   -6.6351    1.0357 S.3     1  LIG1       -0.1405
     28 H          -6.1063   -7.7557    1.1781 H       1  LIG1        0.1072
     29 C          -3.6019   -7.2650   -0.0302 C.ar    1  LIG1        0.0650
     30 C          -4.0751   -8.4742   -0.5174 C.ar    1  LIG1       -0.0218
     31 C          -3.0150   -9.4235   -0.4226 C.ar    1  LIG1        0.0227
     32 C          -1.9179   -8.7719    0.1057 C.ar    1  LIG1        0.0154
     33 N          -2.2755   -7.4662    0.3266 N.ar    1  LIG1       -0.3585
     34 H          -1.7246   -6.7945    0.8378 H       1  LIG1        0.1654
     35 H          -0.9285   -9.1402    0.3296 H       1  LIG1        0.0818
     36 H          -5.0503   -8.6452   -0.9485 H       1  LIG1        0.0650
     37 S          -3.0147  -11.1068   -0.9980 S.3     1  LIG1       -0.1412
     38 H          -3.7088  -11.6614    0.0209 H       1  LIG1        0.1072
@<TRIPOS>BOND
     1    19    18    1
     2    37    31    1
     3    37    38    1
     4    18    13    1
     5    36    30    1
     6    17    12    1
     7     6     5    1
     8    25    24    1
     9    12    13   ar
    10    12    11   ar
    11    13    14   ar
    12    30    31   ar
    13    30    29   ar
    14    31    32   ar
    15     5     1   ar
    16     5     4   ar
    17     7     1    1
    18    11     4    1
    19    11    15   ar
    20     1     2   ar
    21    14    15   ar
    22    14    20    1
    23    24    20   ar
    24    24    23   ar
    25     4     3   ar
    26    29    23    1
    27    29    33   ar
    28    15    16    1
    29    20    21   ar
    30    32    33   ar
    31    32    35    1
    32    23    22   ar
    33     2     3   ar
    34     2     8    1
    35    33    34    1
    36     3     9    1
    37    21    22   ar
    38    21    26    1
    39    22    27    1
    40     9    10    1
    41    27    28    1
