@<TRIPOS>MOLECULE
mol_data/opt/b3lyp/geoms/mol2/13ag13ag13ag13ag-.out
 38 41 0 0 0
SMALL
GASTEIGER

@<TRIPOS>ATOM
      1 C           1.2705   -0.0496    0.1841 C.ar    1  LIG1        0.0033
      2 C           0.8520    1.1845   -0.2579 C.ar    1  LIG1       -0.0305
      3 C          -0.5718    1.1622   -0.3043 C.ar    1  LIG1        0.0315
      4 C          -0.9916   -0.0974    0.1142 C.ar    1  LIG1        0.0762
      5 N           0.1587   -0.8314    0.3774 N.ar    1  LIG1       -0.3586
      6 H           0.1522   -1.7105    0.8699 H       1  LIG1        0.1654
      7 H           2.2633   -0.4326    0.3660 H       1  LIG1        0.0807
      8 H           1.4868    2.0115   -0.5406 H       1  LIG1        0.0644
      9 S          -1.5634    2.5333   -0.8409 S.3     1  LIG1       -0.1405
     10 H          -2.6442    1.8093   -1.2008 H       1  LIG1        0.1072
     11 C          -2.3059   -0.6893    0.2306 C.ar    1  LIG1        0.0655
     12 C          -3.5273   -0.1533    0.6032 C.ar    1  LIG1       -0.0211
     13 C          -4.5012   -1.1889    0.5314 C.ar    1  LIG1        0.0321
     14 C          -3.8624   -2.3506    0.1128 C.ar    1  LIG1        0.0767
     15 N          -2.5086   -2.0400   -0.0202 N.ar    1  LIG1       -0.3510
     16 H          -1.9033   -2.5663   -0.6337 H       1  LIG1        0.1660
     17 H          -3.6910    0.8519    0.9623 H       1  LIG1        0.0650
     18 S          -6.2049   -0.9599    0.9698 S.3     1  LIG1       -0.1405
     19 H          -6.4579   -2.2500    1.2753 H       1  LIG1        0.1072
     20 C          -4.3457   -3.6912   -0.1148 C.ar    1  LIG1        0.0655
     21 C          -5.5789   -4.1672   -0.5322 C.ar    1  LIG1       -0.0211
     22 C          -5.5070   -5.5885   -0.5762 C.ar    1  LIG1        0.0321
     23 C          -4.2299   -5.9662   -0.1852 C.ar    1  LIG1        0.0767
     24 N          -3.5135   -4.7905    0.0493 N.ar    1  LIG1       -0.3510
     25 H          -2.7247   -4.7704    0.6799 H       1  LIG1        0.1660
     26 H          -6.4145   -3.5608   -0.8484 H       1  LIG1        0.0650
     27 S          -6.8442   -6.6184   -1.1203 S.3     1  LIG1       -0.1405
     28 H          -6.1050   -7.7352   -1.2856 H       1  LIG1        0.1072
     29 C          -3.6010   -7.2648   -0.0659 C.ar    1  LIG1        0.0650
     30 C          -4.0740   -8.4825    0.3997 C.ar    1  LIG1       -0.0218
     31 C          -3.0133   -9.4294    0.2897 C.ar    1  LIG1        0.0227
     32 C          -1.9159   -8.7681   -0.2260 C.ar    1  LIG1        0.0154
     33 N          -2.2741   -7.4589   -0.4246 N.ar    1  LIG1       -0.3585
     34 H          -1.7230   -6.7782   -0.9234 H       1  LIG1        0.1654
     35 H          -0.9261   -9.1319   -0.4551 H       1  LIG1        0.0818
     36 H          -5.0496   -8.6616    0.8267 H       1  LIG1        0.0650
     37 S          -3.0125  -11.1223    0.8359 S.3     1  LIG1       -0.1412
     38 H          -3.7056  -11.6595   -0.1930 H       1  LIG1        0.1072
@<TRIPOS>BOND
     1    28    27    1
     2    10     9    1
     3    27    22    1
     4    34    33    1
     5    26    21    1
     6     9     3    1
     7    16    15    1
     8    22    21   ar
     9    22    23   ar
    10     8     2    1
    11    21    20   ar
    12    35    32    1
    13    33    32   ar
    14    33    29   ar
    15     3     2   ar
    16     3     4   ar
    17     2     1   ar
    18    32    31   ar
    19    38    37    1
    20    23    29    1
    21    23    24   ar
    22    20    24   ar
    23    20    14    1
    24    29    30   ar
    25    15    14   ar
    26    15    11   ar
    27    24    25    1
    28    14    13   ar
    29     4    11    1
    30     4     5   ar
    31     1     7    1
    32     1     5   ar
    33    11    12   ar
    34    31    30   ar
    35    31    37    1
    36     5     6    1
    37    30    36    1
    38    13    12   ar
    39    13    18    1
    40    12    17    1
    41    18    19    1
