@<TRIPOS>MOLECULE
mol_data/opt/b3lyp/geoms/mol2/13ag13ag13ag-13ag.out
 38 41 0 0 0
SMALL
GASTEIGER

@<TRIPOS>ATOM
      1 C           1.2633   -0.0429    0.2021 C.ar    1  LIG1        0.0033
      2 C           0.8428    1.1932   -0.2322 C.ar    1  LIG1       -0.0305
      3 C          -0.5809    1.1683   -0.2806 C.ar    1  LIG1        0.0315
      4 C          -0.9986   -0.0948    0.1290 C.ar    1  LIG1        0.0762
      5 N           0.1528   -0.8282    0.3889 N.ar    1  LIG1       -0.3586
      6 H           0.1475   -1.7106    0.8753 H       1  LIG1        0.1654
      7 H           2.2566   -0.4252    0.3825 H       1  LIG1        0.0807
      8 H           1.4763    2.0234   -0.5087 H       1  LIG1        0.0644
      9 S          -1.5746    2.5411   -0.8093 S.3     1  LIG1       -0.1405
     10 H          -2.6542    1.8174   -1.1734 H       1  LIG1        0.1072
     11 C          -2.3119   -0.6900    0.2405 C.ar    1  LIG1        0.0655
     12 C          -3.5344   -0.1589    0.6164 C.ar    1  LIG1       -0.0211
     13 C          -4.5064   -1.1958    0.5370 C.ar    1  LIG1        0.0321
     14 C          -3.8652   -2.3534    0.1104 C.ar    1  LIG1        0.0767
     15 N          -2.5120   -2.0392   -0.0199 N.ar    1  LIG1       -0.3510
     16 H          -1.9055   -2.5600   -0.6369 H       1  LIG1        0.1660
     17 H          -3.7002    0.8434    0.9825 H       1  LIG1        0.0650
     18 S          -6.2107   -0.9731    0.9763 S.3     1  LIG1       -0.1405
     19 H          -6.4607   -2.2654    1.2749 H       1  LIG1        0.1072
     20 C          -4.3459   -3.6933   -0.1268 C.ar    1  LIG1        0.0655
     21 C          -5.5784   -4.1687   -0.5470 C.ar    1  LIG1       -0.0211
     22 C          -5.5036   -5.5894   -0.6014 C.ar    1  LIG1        0.0321
     23 C          -4.2255   -5.9674   -0.2137 C.ar    1  LIG1        0.0767
     24 N          -3.5114   -4.7920    0.0290 N.ar    1  LIG1       -0.3510
     25 H          -2.7221   -4.7749    0.6590 H       1  LIG1        0.1660
     26 H          -6.4154   -3.5617   -0.8582 H       1  LIG1        0.0650
     27 S          -6.8389   -6.6181   -1.1523 S.3     1  LIG1       -0.1405
     28 H          -6.0979   -7.7329   -1.3235 H       1  LIG1        0.1072
     29 C          -3.5941   -7.2656   -0.1042 C.ar    1  LIG1        0.0650
     30 C          -4.0639   -8.4872    0.3544 C.ar    1  LIG1       -0.0218
     31 C          -3.0016   -9.4314    0.2362 C.ar    1  LIG1        0.0227
     32 C          -1.9065   -8.7647   -0.2772 C.ar    1  LIG1        0.0154
     33 N          -2.2674   -7.4549   -0.4665 N.ar    1  LIG1       -0.3585
     34 H          -1.7186   -6.7700   -0.9622 H       1  LIG1        0.1654
     35 H          -0.9164   -9.1251   -0.5105 H       1  LIG1        0.0818
     36 H          -5.0384   -8.6709    0.7821 H       1  LIG1        0.0650
     37 S          -2.9969  -11.1279    0.7712 S.3     1  LIG1       -0.1412
     38 H          -3.6907  -11.6596   -0.2601 H       1  LIG1        0.1072
@<TRIPOS>BOND
     1    28    27    1
     2    10     9    1
     3    27    22    1
     4    34    33    1
     5    26    21    1
     6     9     3    1
     7    16    15    1
     8    22    21   ar
     9    22    23   ar
    10    21    20   ar
    11    35    32    1
    12     8     2    1
    13    33    32   ar
    14    33    29   ar
    15     3     2   ar
    16     3     4   ar
    17    32    31   ar
    18    38    37    1
    19     2     1   ar
    20    23    29    1
    21    23    24   ar
    22    20    24   ar
    23    20    14    1
    24    29    30   ar
    25    15    14   ar
    26    15    11   ar
    27    24    25    1
    28    14    13   ar
    29     4    11    1
    30     4     5   ar
    31     1     7    1
    32     1     5   ar
    33    31    30   ar
    34    31    37    1
    35    11    12   ar
    36    30    36    1
    37     5     6    1
    38    13    12   ar
    39    13    18    1
    40    12    17    1
    41    18    19    1
