@<TRIPOS>MOLECULE
mol_data/opt/b3lyp/geoms/mol2/13ag13ag13ag.out
 29 31 0 0 0
SMALL
GASTEIGER

@<TRIPOS>ATOM
      1 C           1.2937   -0.1488    0.0558 C.ar    1  LIG1        0.0033
      2 C           0.8566    1.0885   -0.3588 C.ar    1  LIG1       -0.0305
      3 C          -0.5676    1.0600   -0.3631 C.ar    1  LIG1        0.0315
      4 C          -0.9695   -0.2067    0.0525 C.ar    1  LIG1        0.0762
      5 N           0.1910   -0.9367    0.2741 N.ar    1  LIG1       -0.3586
      6 H           0.2034   -1.8300    0.7399 H       1  LIG1        0.1654
      7 H           2.2928   -0.5307    0.2014 H       1  LIG1        0.0807
      8 H           1.4786    1.9221   -0.6504 H       1  LIG1        0.0644
      9 S          -1.5815    2.4354   -0.8451 S.3     1  LIG1       -0.1405
     10 H          -2.6439    1.7109   -1.2559 H       1  LIG1        0.1072
     11 C          -2.2769   -0.8073    0.2008 C.ar    1  LIG1        0.0655
     12 C          -3.4956   -0.2732    0.5825 C.ar    1  LIG1       -0.0211
     13 C          -4.4629   -1.3185    0.5439 C.ar    1  LIG1        0.0321
     14 C          -3.8230   -2.4805    0.1373 C.ar    1  LIG1        0.0767
     15 N          -2.4721   -2.1638   -0.0254 N.ar    1  LIG1       -0.3510
     16 H          -1.8830   -2.6863   -0.6585 H       1  LIG1        0.1660
     17 H          -3.6605    0.7380    0.9238 H       1  LIG1        0.0650
     18 S          -6.1574   -1.1003    1.0210 S.3     1  LIG1       -0.1405
     19 H          -6.4418   -2.4138    1.1429 H       1  LIG1        0.1072
     20 C          -4.3044   -3.8326   -0.0540 C.ar    1  LIG1        0.0650
     21 C          -5.4896   -4.3287   -0.5763 C.ar    1  LIG1       -0.0218
     22 C          -5.4231   -5.7523   -0.5234 C.ar    1  LIG1        0.0227
     23 C          -4.1979   -6.0930    0.0151 C.ar    1  LIG1        0.0154
     24 N          -3.5234   -4.9292    0.2835 N.ar    1  LIG1       -0.3585
     25 H          -2.6628   -4.8658    0.8041 H       1  LIG1        0.1654
     26 H          -3.7688   -7.0626    0.2158 H       1  LIG1        0.0818
     27 H          -6.2889   -3.7412   -1.0030 H       1  LIG1        0.0650
     28 S          -6.6132   -6.9158   -1.1517 S.3     1  LIG1       -0.1412
     29 H          -7.5122   -6.8382   -0.1450 H       1  LIG1        0.1072
@<TRIPOS>BOND
     1    10     9    1
     2    28    22    1
     3    28    29    1
     4    27    21    1
     5     9     3    1
     6    16    15    1
     7     8     2    1
     8    21    22   ar
     9    21    20   ar
    10    22    23   ar
    11     3     2   ar
    12     3     4   ar
    13     2     1   ar
    14    20    14    1
    15    20    24   ar
    16    15    14   ar
    17    15    11   ar
    18    23    26    1
    19    23    24   ar
    20     4    11    1
    21     4     5   ar
    22     1     7    1
    23     1     5   ar
    24    14    13   ar
    25    11    12   ar
    26     5     6    1
    27    24    25    1
    28    13    12   ar
    29    13    18    1
    30    12    17    1
    31    18    19    1
