@<TRIPOS>MOLECULE
mol_data/opt/b3lyp/geoms/mol2/13ag13ag-13ag-13ag-.out
 38 41 0 0 0
SMALL
GASTEIGER

@<TRIPOS>ATOM
      1 C           1.2622   -0.0391   -0.2049 C.ar    1  LIG1        0.0033
      2 C           0.8483    1.1850    0.2682 C.ar    1  LIG1       -0.0305
      3 C          -0.5746    1.1592    0.3347 C.ar    1  LIG1        0.0315
      4 C          -0.9985   -0.0923   -0.1033 C.ar    1  LIG1        0.0762
      5 N           0.1489   -0.8188   -0.3981 N.ar    1  LIG1       -0.3586
      6 H           0.1366   -1.6876   -0.9083 H       1  LIG1        0.1654
      7 H           2.2529   -0.4166   -0.4086 H       1  LIG1        0.0807
      8 H           1.4859    2.0071    0.5586 H       1  LIG1        0.0644
      9 S          -1.5603    2.5172    0.9135 S.3     1  LIG1       -0.1405
     10 H          -2.6356    1.7843    1.2719 H       1  LIG1        0.1072
     11 C          -2.3136   -0.6839   -0.2135 C.ar    1  LIG1        0.0655
     12 C          -3.5407   -0.1424   -0.5584 C.ar    1  LIG1       -0.0211
     13 C          -4.5121   -1.1808   -0.4945 C.ar    1  LIG1        0.0321
     14 C          -3.8662   -2.3497   -0.1083 C.ar    1  LIG1        0.0767
     15 N          -2.5110   -2.0397    0.0124 N.ar    1  LIG1       -0.3510
     16 H          -1.8968   -2.5774    0.6069 H       1  LIG1        0.1660
     17 H          -3.7107    0.8697   -0.8947 H       1  LIG1        0.0650
     18 S          -6.2221   -0.9457   -0.9044 S.3     1  LIG1       -0.1405
     19 H          -6.4768   -2.2291   -1.2357 H       1  LIG1        0.1072
     20 C          -4.3445   -3.6956    0.0981 C.ar    1  LIG1        0.0655
     21 C          -5.5714   -4.1821    0.5219 C.ar    1  LIG1       -0.0211
     22 C          -5.4969   -5.6038    0.5359 C.ar    1  LIG1        0.0321
     23 C          -4.2245   -5.9713    0.1204 C.ar    1  LIG1        0.0767
     24 N          -3.5129   -4.7898   -0.0994 N.ar    1  LIG1       -0.3510
     25 H          -2.7323   -4.7555   -0.7395 H       1  LIG1        0.1660
     26 H          -6.4036   -3.5836    0.8612 H       1  LIG1        0.0650
     27 S          -6.8253   -6.6470    1.0763 S.3     1  LIG1       -0.1405
     28 H          -6.0825   -7.7659    1.2080 H       1  LIG1        0.1072
     29 C          -3.5955   -7.2661   -0.0338 C.ar    1  LIG1        0.0650
     30 C          -4.0728   -8.4747   -0.5187 C.ar    1  LIG1       -0.0218
     31 C          -3.0095   -9.4220   -0.4419 C.ar    1  LIG1        0.0227
     32 C          -1.9066   -8.7699    0.0735 C.ar    1  LIG1        0.0154
     33 N          -2.2639   -7.4657    0.3040 N.ar    1  LIG1       -0.3585
     34 H          -1.7073   -6.7946    0.8097 H       1  LIG1        0.1654
     35 H          -0.9134   -9.1368    0.2825 H       1  LIG1        0.0818
     36 H          -5.0535   -8.6464   -0.9369 H       1  LIG1        0.0650
     37 S          -3.0138  -11.1033   -1.0232 S.3     1  LIG1       -0.1412
     38 H          -3.6926  -11.6627    0.0033 H       1  LIG1        0.1072
@<TRIPOS>BOND
     1    19    18    1
     2    37    31    1
     3    37    38    1
     4    36    30    1
     5     6     5    1
     6    18    13    1
     7    17    12    1
     8    25    24    1
     9    12    13   ar
    10    12    11   ar
    11    30    31   ar
    12    30    29   ar
    13    13    14   ar
    14    31    32   ar
    15     7     1    1
    16     5     1   ar
    17     5     4   ar
    18    11     4    1
    19    11    15   ar
    20     1     2   ar
    21    14    15   ar
    22    14    20    1
    23     4     3   ar
    24    24    20   ar
    25    24    23   ar
    26    29    23    1
    27    29    33   ar
    28    15    16    1
    29    32    35    1
    30    32    33   ar
    31    20    21   ar
    32    23    22   ar
    33     2     3   ar
    34     2     8    1
    35    33    34    1
    36     3     9    1
    37    21    22   ar
    38    21    26    1
    39    22    27    1
    40     9    10    1
    41    27    28    1
