@<TRIPOS>MOLECULE
mol_data/opt/b3lyp/geoms/mol2/13ag13ag-13ag.out
 29 31 0 0 0
SMALL
GASTEIGER

@<TRIPOS>ATOM
      1 C           1.2157   -0.0321   -0.7543 C.ar    1  LIG1        0.0033
      2 C           0.9220    1.0301    0.0696 C.ar    1  LIG1       -0.0305
      3 C          -0.4580    0.9345    0.4133 C.ar    1  LIG1        0.0315
      4 C          -0.9761   -0.1925   -0.2143 C.ar    1  LIG1        0.0762
      5 N           0.0781   -0.7853   -0.9016 N.ar    1  LIG1       -0.3586
      6 H          -0.0484   -1.4992   -1.6020 H       1  LIG1        0.1654
      7 H           2.1393   -0.3122   -1.2381 H       1  LIG1        0.0807
      8 H           1.6160    1.7845    0.4106 H       1  LIG1        0.0644
      9 S          -1.2856    2.0677    1.5003 S.3     1  LIG1       -0.1405
     10 H          -2.3838    1.3079    1.6943 H       1  LIG1        0.1072
     11 C          -2.2984   -0.7873   -0.1906 C.ar    1  LIG1        0.0655
     12 C          -3.5632   -0.2210   -0.2789 C.ar    1  LIG1       -0.0211
     13 C          -4.5178   -1.2717   -0.2228 C.ar    1  LIG1        0.0321
     14 C          -3.8271   -2.4742   -0.1048 C.ar    1  LIG1        0.0767
     15 N          -2.4772   -2.1511   -0.0787 N.ar    1  LIG1       -0.3510
     16 H          -1.7300   -2.8218    0.0087 H       1  LIG1        0.1660
     17 H          -3.7709    0.8311   -0.4076 H       1  LIG1        0.0650
     18 S          -6.2731   -1.0166   -0.2907 S.3     1  LIG1       -0.1405
     19 H          -6.6128   -2.2558    0.1219 H       1  LIG1        0.1072
     20 C          -4.2899   -3.8429    0.0292 C.ar    1  LIG1        0.0650
     21 C          -5.2685   -4.5535   -0.6467 C.ar    1  LIG1       -0.0218
     22 C          -5.3023   -5.8715   -0.1025 C.ar    1  LIG1        0.0227
     23 C          -4.3363   -5.9396    0.8822 C.ar    1  LIG1        0.0154
     24 N          -3.7204   -4.7161    0.9474 N.ar    1  LIG1       -0.3585
     25 H          -3.0808   -4.4331    1.6738 H       1  LIG1        0.1654
     26 H          -4.0492   -6.7596    1.5225 H       1  LIG1        0.0818
     27 H          -5.8568   -4.1869   -1.4750 H       1  LIG1        0.0650
     28 S          -6.2882   -7.2461   -0.6529 S.3     1  LIG1       -0.1412
     29 H          -7.4585   -6.8897   -0.0776 H       1  LIG1        0.1072
@<TRIPOS>BOND
     1     6     5    1
     2    27    21    1
     3     7     1    1
     4     5     1   ar
     5     5     4   ar
     6     1     2   ar
     7    28    22    1
     8    28    29    1
     9    21    22   ar
    10    21    20   ar
    11    17    12    1
    12    18    13    1
    13    18    19    1
    14    12    13   ar
    15    12    11   ar
    16    13    14   ar
    17     4    11    1
    18     4     3   ar
    19    11    15   ar
    20    14    15   ar
    21    14    20    1
    22    22    23   ar
    23    15    16    1
    24    20    24   ar
    25     2     8    1
    26     2     3   ar
    27     3     9    1
    28    23    24   ar
    29    23    26    1
    30    24    25    1
    31     9    10    1
