@<TRIPOS>MOLECULE
mol_data/opt/b3lyp/geoms/mol2/13ag13ag13ag-13ag-.out
 38 41 0 0 0
SMALL
GASTEIGER

@<TRIPOS>ATOM
      1 C           1.2052   -0.0033   -0.4050 C.ar    1  LIG1        0.0033
      2 C           0.7407    1.2817   -0.5497 C.ar    1  LIG1       -0.0305
      3 C          -0.6694    1.2572   -0.3387 C.ar    1  LIG1        0.0315
      4 C          -1.0344   -0.0608   -0.0590 C.ar    1  LIG1        0.0762
      5 N           0.1256   -0.8102   -0.1225 N.ar    1  LIG1       -0.3586
      6 H           0.1881   -1.7663    0.1901 H       1  LIG1        0.1654
      7 H           2.2026   -0.4101   -0.4758 H       1  LIG1        0.0807
      8 H           1.3282    2.1564   -0.7866 H       1  LIG1        0.0644
      9 S          -1.7486    2.6696   -0.3761 S.3     1  LIG1       -0.1405
     10 H          -1.9681    2.7204   -1.7096 H       1  LIG1        0.1072
     11 C          -2.3072   -0.6931    0.2170 C.ar    1  LIG1        0.0655
     12 C          -3.4622   -0.2212    0.8101 C.ar    1  LIG1       -0.0211
     13 C          -4.4149   -1.2796    0.8158 C.ar    1  LIG1        0.0321
     14 C          -3.8274   -2.3896    0.2253 C.ar    1  LIG1        0.0767
     15 N          -2.5129   -2.0346   -0.0927 N.ar    1  LIG1       -0.3510
     16 H          -2.0361   -2.4719   -0.8696 H       1  LIG1        0.1660
     17 H          -3.5933    0.7639    1.2304 H       1  LIG1        0.0650
     18 S          -6.0258   -1.1392    1.5437 S.3     1  LIG1       -0.1405
     19 H          -6.2953   -2.4614    1.5537 H       1  LIG1        0.1072
     20 C          -4.3215   -3.7274   -0.0183 C.ar    1  LIG1        0.0655
     21 C          -5.5626   -4.1887   -0.4410 C.ar    1  LIG1       -0.0211
     22 C          -5.4916   -5.6033   -0.5424 C.ar    1  LIG1        0.0321
     23 C          -4.2050   -5.9963   -0.1841 C.ar    1  LIG1        0.0767
     24 N          -3.5144   -4.8358    0.1373 N.ar    1  LIG1       -0.3510
     25 H          -2.5537   -4.8051    0.4394 H       1  LIG1        0.1660
     26 H          -6.4111   -3.5682   -0.6886 H       1  LIG1        0.0650
     27 S          -6.8525   -6.6274   -1.0400 S.3     1  LIG1       -0.1405
     28 H          -6.3043   -7.7945   -0.6420 H       1  LIG1        0.1072
     29 C          -3.5948   -7.3074   -0.0662 C.ar    1  LIG1        0.0650
     30 C          -3.6179   -8.4125   -0.9015 C.ar    1  LIG1       -0.0218
     31 C          -2.8411   -9.4384   -0.2859 C.ar    1  LIG1        0.0227
     32 C          -2.3518   -8.9329    0.9025 C.ar    1  LIG1        0.0154
     33 N          -2.7988   -7.6419    1.0222 N.ar    1  LIG1       -0.3585
     34 H          -2.7256   -7.0845    1.8593 H       1  LIG1        0.1654
     35 H          -1.7260   -9.3935    1.6515 H       1  LIG1        0.0818
     36 H          -4.0926   -8.4622   -1.8703 H       1  LIG1        0.0650
     37 S          -2.4327  -11.0365   -0.9528 S.3     1  LIG1       -0.1412
     38 H          -3.6066  -11.6581   -0.7017 H       1  LIG1        0.1072
@<TRIPOS>BOND
     1    36    30    1
     2    10     9    1
     3    27    28    1
     4    27    22    1
     5    37    38    1
     6    37    31    1
     7    30    31   ar
     8    30    29   ar
     9    16    15    1
    10     8     2    1
    11    26    21    1
    12     2     1   ar
    13     2     3   ar
    14    22    21   ar
    15    22    23   ar
    16     7     1    1
    17    21    20   ar
    18     1     5   ar
    19     9     3    1
    20     3     4   ar
    21    31    32   ar
    22    23    29    1
    23    23    24   ar
    24     5     4   ar
    25     5     6    1
    26    15    11   ar
    27    15    14   ar
    28    29    33   ar
    29     4    11    1
    30    20    24   ar
    31    20    14    1
    32    24    25    1
    33    11    12   ar
    34    14    13   ar
    35    12    13   ar
    36    12    17    1
    37    13    18    1
    38    32    33   ar
    39    32    35    1
    40    33    34    1
    41    18    19    1
