@<TRIPOS>MOLECULE
mol_data/opt/b3lyp/geoms/mol2/13ag13ag-13ag13ag-.out
 38 41 0 0 0
SMALL
GASTEIGER

@<TRIPOS>ATOM
      1 C           0.9589    0.3894   -1.3842 C.ar    1  LIG1        0.0033
      2 C           0.9488    1.1427   -0.2328 C.ar    1  LIG1       -0.0305
      3 C          -0.2874    0.8913    0.4305 C.ar    1  LIG1        0.0315
      4 C          -1.0066   -0.0161   -0.3387 C.ar    1  LIG1        0.0762
      5 N          -0.2077   -0.3313   -1.4333 N.ar    1  LIG1       -0.3586
      6 H          -0.5522   -0.8059   -2.2533 H       1  LIG1        0.1654
      7 H           1.7016    0.3065   -2.1634 H       1  LIG1        0.0807
      8 H           1.7419    1.7889    0.1143 H       1  LIG1        0.0644
      9 S          -0.7323    1.6078    1.9922 S.3     1  LIG1       -0.1405
     10 H          -1.7900    0.8028    2.2254 H       1  LIG1        0.1072
     11 C          -2.2977   -0.6442   -0.1333 C.ar    1  LIG1        0.0655
     12 C          -3.5155   -0.1267    0.2877 C.ar    1  LIG1       -0.0211
     13 C          -4.4633   -1.1848    0.2913 C.ar    1  LIG1        0.0321
     14 C          -3.8163   -2.3426   -0.1321 C.ar    1  LIG1        0.0767
     15 N          -2.4955   -1.9889   -0.3731 N.ar    1  LIG1       -0.3510
     16 H          -1.7833   -2.6212   -0.7031 H       1  LIG1        0.1660
     17 H          -3.7062    0.9084    0.5302 H       1  LIG1        0.0650
     18 S          -6.1609   -0.9875    0.7695 S.3     1  LIG1       -0.1405
     19 H          -6.4208   -2.3020    0.9293 H       1  LIG1        0.1072
     20 C          -4.2841   -3.7064   -0.2828 C.ar    1  LIG1        0.0655
     21 C          -5.4514   -4.2183   -0.8339 C.ar    1  LIG1       -0.0211
     22 C          -5.3912   -5.6348   -0.7493 C.ar    1  LIG1        0.0321
     23 C          -4.1837   -5.9784   -0.1482 C.ar    1  LIG1        0.0767
     24 N          -3.5301   -4.7864    0.1321 N.ar    1  LIG1       -0.3510
     25 H          -2.6373   -4.7227    0.5956 H       1  LIG1        0.1660
     26 H          -6.2409   -3.6330   -1.2818 H       1  LIG1        0.0650
     27 S          -6.6760   -6.7138   -1.3277 S.3     1  LIG1       -0.1405
     28 H          -6.2141   -7.8246   -0.7164 H       1  LIG1        0.1072
     29 C          -3.6214   -7.2659    0.2158 C.ar    1  LIG1        0.0650
     30 C          -3.5331   -8.4596   -0.4817 C.ar    1  LIG1       -0.0218
     31 C          -2.8792   -9.4071    0.3601 C.ar    1  LIG1        0.0227
     32 C          -2.5722   -8.7679    1.5453 C.ar    1  LIG1        0.0154
     33 N          -3.0113   -7.4726    1.4466 N.ar    1  LIG1       -0.3585
     34 H          -3.0543   -6.8215    2.2154 H       1  LIG1        0.1654
     35 H          -2.0778   -9.1386    2.4301 H       1  LIG1        0.0818
     36 H          -3.8522   -8.6204   -1.5009 H       1  LIG1        0.0650
     37 S          -2.4009  -11.0711   -0.0495 S.3     1  LIG1       -0.1412
     38 H          -3.6083  -11.6617    0.0944 H       1  LIG1        0.1072
@<TRIPOS>BOND
     1     6     5    1
     2     7     1    1
     3    36    30    1
     4     5     1   ar
     5     5     4   ar
     6     1     2   ar
     7    27    22    1
     8    27    28    1
     9    26    21    1
    10    21    22   ar
    11    21    20   ar
    12    22    23   ar
    13    16    15    1
    14    30    29   ar
    15    30    31   ar
    16    15    11   ar
    17    15    14   ar
    18     4    11    1
    19     4     3   ar
    20    20    14    1
    21    20    24   ar
    22     2     8    1
    23     2     3   ar
    24    23    24   ar
    25    23    29    1
    26    11    12   ar
    27    14    13   ar
    28    37    38    1
    29    37    31    1
    30    24    25    1
    31    29    33   ar
    32    12    13   ar
    33    12    17    1
    34    13    18    1
    35    31    32   ar
    36     3     9    1
    37    18    19    1
    38    33    32   ar
    39    33    34    1
    40    32    35    1
    41     9    10    1
