@<TRIPOS>MOLECULE
mol_data/opt/b3lyp/geoms/mol2/13ag13ag-.out
 20 21 0 0 0
SMALL
GASTEIGER

@<TRIPOS>ATOM
      1 C           1.2392   -0.2397   -0.2790 C.ar    1  LIG1        0.0033
      2 C           0.8068    1.0094    0.1041 C.ar    1  LIG1       -0.0305
      3 C          -0.6118    0.9499    0.2280 C.ar    1  LIG1        0.0315
      4 C          -1.0133   -0.3434   -0.0854 C.ar    1  LIG1        0.0762
      5 N           0.1437   -1.0611   -0.3666 N.ar    1  LIG1       -0.3586
      6 H           0.1407   -1.9721   -0.7976 H       1  LIG1        0.1654
      7 H           2.2329   -0.6063   -0.4882 H       1  LIG1        0.0807
      8 H           1.4308    1.8701    0.2965 H       1  LIG1        0.0644
      9 S          -1.6182    2.3185    0.7434 S.3     1  LIG1       -0.1405
     10 H          -2.7301    1.5943    0.9891 H       1  LIG1        0.1072
     11 C          -2.3200   -0.9746   -0.0933 C.ar    1  LIG1        0.0650
     12 C          -3.5507   -0.5449   -0.5631 C.ar    1  LIG1       -0.0218
     13 C          -4.4984   -1.5798   -0.3055 C.ar    1  LIG1        0.0227
     14 C          -3.8237   -2.6207    0.3014 C.ar    1  LIG1        0.0154
     15 N          -2.5077   -2.2523    0.4160 N.ar    1  LIG1       -0.3585
     16 H          -1.8102   -2.7556    0.9418 H       1  LIG1        0.1654
     17 H          -4.1824   -3.5781    0.6468 H       1  LIG1        0.0818
     18 H          -3.7403    0.3829   -1.0820 H       1  LIG1        0.0650
     19 S          -6.2112   -1.6234   -0.7856 S.3     1  LIG1       -0.1412
     20 H          -6.7088   -0.8293    0.1889 H       1  LIG1        0.1072
@<TRIPOS>BOND
     1    18    12    1
     2     6     5    1
     3    19    13    1
     4    19    20    1
     5    12    13   ar
     6    12    11   ar
     7     7     1    1
     8     5     1   ar
     9     5     4   ar
    10    13    14   ar
    11     1     2   ar
    12    11     4    1
    13    11    15   ar
    14     4     3   ar
    15     2     3   ar
    16     2     8    1
    17     3     9    1
    18    14    15   ar
    19    14    17    1
    20    15    16    1
    21     9    10    1
