@<TRIPOS>MOLECULE
mol_data/opt/b3lyp/geoms/mol2/13ah4lh12fd-4fe-.out
 50 53 0 0 0
SMALL
GASTEIGER

@<TRIPOS>ATOM
      1 C           0.7877    1.4414    0.9089 C.ar    1  LIG1        0.0040
      2 C           1.2962    0.7724   -0.1879 C.ar    1  LIG1       -0.0231
      3 C           0.2812   -0.1034   -0.6601 C.ar    1  LIG1        0.0503
      4 C          -0.8334    0.0473    0.1776 C.ar    1  LIG1        0.0710
      5 N          -0.4869    1.0157    1.1157 N.ar    1  LIG1       -0.3591
      6 H          -1.1507    1.3646    1.7902 H       1  LIG1        0.1654
      7 H           1.2401    2.1896    1.5429 H       1  LIG1        0.0807
      8 H           2.2755    0.9074   -0.6248 H       1  LIG1        0.0651
      9 N           0.3858   -0.8677   -1.8358 N.pl3   1  LIG1       -0.3563
     10 H           1.2406   -1.4073   -1.8964 H       1  LIG1        0.1424
     11 H          -0.4177   -1.4514   -2.0179 H       1  LIG1        0.1424
     12 C          -3.2855   -0.0138    0.7587 C.ar    1  LIG1        0.1300
     13 C          -4.4963   -0.6794    0.7904 C.ar    1  LIG1       -0.0067
     14 C          -2.1284   -0.6227    0.2133 C.ar    1  LIG1        0.0435
     15 C          -4.6563   -1.9879    0.2881 C.ar    1  LIG1        0.0451
     16 H          -5.3445   -0.1658    1.2256 H       1  LIG1        0.0662
     17 C          -2.2867   -1.9345   -0.2625 C.ar    1  LIG1       -0.0277
     18 C          -3.5050   -2.6294   -0.2539 C.ar    1  LIG1        0.0363
     19 H          -1.4091   -2.4744   -0.6057 H       1  LIG1        0.0644
     20 O          -3.2215    1.2652    1.3101 O.3     1  LIG1       -0.4944
     21 C          -3.5014    2.3108    0.3732 C.3     1  LIG1        0.0788
     22 H          -3.4413    3.2516    0.9251 H       1  LIG1        0.0660
     23 H          -2.7705    2.3190   -0.4442 H       1  LIG1        0.0660
     24 H          -4.5089    2.1995   -0.0449 H       1  LIG1        0.0660
     25 N          -3.5162   -3.9476   -0.7041 N.pl3   1  LIG1       -0.3574
     26 H          -4.4036   -4.3115   -1.0136 H       1  LIG1        0.1423
     27 H          -2.7491   -4.1899   -1.3143 H       1  LIG1        0.1423
     28 C          -5.9721   -2.5950    0.3668 C.ar    1  LIG1        0.1801
     29 C          -7.2059   -2.1392    0.7797 C.ar    1  LIG1        0.1811
     30 C          -8.1478   -3.2107    0.6178 C.ar    1  LIG1        0.1395
     31 C          -7.4437   -4.2907    0.1068 C.ar    1  LIG1        0.1602
     32 O          -6.1461   -3.9073   -0.0403 O.2     1  LIG1       -0.4495
     33 O          -7.4865   -0.9016    1.2566 O.3     1  LIG1       -0.5023
     34 H          -8.4215   -0.8672    1.5102 H       1  LIG1        0.2923
     35 N         -10.5443   -2.7759    1.4508 N.1     1  LIG1       -0.1906
     36 C          -9.4918   -3.0603    1.0388 C.1     1  LIG1        0.1067
     37 C          -9.0241   -6.1144   -0.5903 C.ar    1  LIG1        0.1276
     38 C          -9.2540   -7.4579   -0.8964 C.ar    1  LIG1       -0.0183
     39 C          -7.7299   -5.6773   -0.2266 C.ar    1  LIG1        0.0612
     40 C          -8.2152   -8.3793   -0.8662 C.ar    1  LIG1       -0.0428
     41 H         -10.2561   -7.7757   -1.1742 H       1  LIG1        0.0655
     42 C          -6.6910   -6.6221   -0.2095 C.ar    1  LIG1       -0.0321
     43 C          -6.9117   -7.9697   -0.5274 C.ar    1  LIG1        0.0256
     44 H          -5.6953   -6.3019    0.0744 H       1  LIG1        0.0638
     45 H          -8.4033   -9.4196   -1.1074 H       1  LIG1        0.0631
     46 O         -10.0033   -5.1758   -0.6521 O.3     1  LIG1       -0.5061
     47 H         -10.8603   -5.5913   -0.8146 H       1  LIG1        0.2922
     48 C          -5.8361   -8.9098   -0.4962 C.1     1  LIG1       -0.0696
     49 C          -4.9282   -9.7096   -0.4740 C.1     1  LIG1       -0.1139
     50 H          -4.1278  -10.4122   -0.4483 H       1  LIG1        0.1232
@<TRIPOS>BOND
     1    11     9    1
     2    10     9    1
     3     9     3    1
     4    27    25    1
     5    41    38    1
     6    45    40    1
     7    26    25    1
     8    38    40   ar
     9    38    37   ar
    10    40    43   ar
    11    47    46    1
    12    25    18    1
    13     3     2   ar
    14     3     4   ar
    15    46    37    1
    16     8     2    1
    17    19    17    1
    18    37    39   ar
    19    43    48    1
    20    43    42   ar
    21    48    49    3
    22    49    50    1
    23    23    21    1
    24    17    18   ar
    25    17    14   ar
    26    18    15   ar
    27    39    42   ar
    28    39    31    1
    29    42    44    1
    30     2     1   ar
    31    24    21    1
    32    32    31   ar
    33    32    28   ar
    34    31    30   ar
    35     4    14    1
    36     4     5   ar
    37    14    12   ar
    38    15    28    1
    39    15    13   ar
    40    28    29   ar
    41    21    22    1
    42    21    20    1
    43    30    29   ar
    44    30    36    1
    45    12    13   ar
    46    12    20    1
    47    29    33    1
    48    13    16    1
    49     1     5   ar
    50     1     7    1
    51    36    35    3
    52     5     6    1
    53    33    34    1
