@<TRIPOS>MOLECULE
mol_data/opt/b3lyp/geoms/mol2/13ah13ah-.out
 22 23 0 0 0
SMALL
GASTEIGER

@<TRIPOS>ATOM
      1 C           1.2263   -0.2766   -0.0199 C.ar    1  LIG1        0.0040
      2 C           0.7898    1.0266   -0.1021 C.ar    1  LIG1       -0.0230
      3 C          -0.6360    0.9961   -0.1223 C.ar    1  LIG1        0.0516
      4 C          -1.0347   -0.3368   -0.0515 C.ar    1  LIG1        0.0838
      5 N           0.1168   -1.0904    0.0092 N.ar    1  LIG1       -0.3580
      6 H           0.1337   -2.0945    0.0772 H       1  LIG1        0.1654
      7 H           2.2227   -0.6897    0.0200 H       1  LIG1        0.0807
      8 H           1.4170    1.9069   -0.1436 H       1  LIG1        0.0651
      9 N          -1.5667    2.0897   -0.1986 N.pl3   1  LIG1       -0.3563
     10 H          -1.4377    2.7242    0.5872 H       1  LIG1        0.1424
     11 H          -1.4040    2.6398   -1.0398 H       1  LIG1        0.1424
     12 C          -2.3596   -0.9158   -0.0392 C.ar    1  LIG1        0.0665
     13 C          -2.8061   -2.2341    0.0180 C.ar    1  LIG1       -0.0142
     14 C          -4.2285   -2.2038   -0.0057 C.ar    1  LIG1        0.0427
     15 C          -4.6096   -0.8733   -0.0777 C.ar    1  LIG1        0.0230
     16 N          -3.4645   -0.1080   -0.0890 N.ar    1  LIG1       -0.3578
     17 H          -3.3665    0.9002   -0.1469 H       1  LIG1        0.1654
     18 H          -5.5913   -0.4251   -0.1079 H       1  LIG1        0.0826
     19 H          -2.1927   -3.1233    0.0828 H       1  LIG1        0.0658
     20 N          -5.0749   -3.3293    0.1075 N.pl3   1  LIG1       -0.3568
     21 H          -6.0177   -3.1279   -0.2065 H       1  LIG1        0.1424
     22 H          -4.7241   -4.1191   -0.4236 H       1  LIG1        0.1424
@<TRIPOS>BOND
     1    11     9    1
     2    22    20    1
     3    21    20    1
     4     9     3    1
     5     9    10    1
     6    17    16    1
     7     8     2    1
     8     3     2   ar
     9     3     4   ar
    10    18    15    1
    11     2     1   ar
    12    16    15   ar
    13    16    12   ar
    14    15    14   ar
    15     4    12    1
    16     4     5   ar
    17    12    13   ar
    18     1     5   ar
    19     1     7    1
    20    14    13   ar
    21    14    20    1
    22     5     6    1
    23    13    19    1
