@<TRIPOS>MOLECULE
mol_data/opt/b3lyp/geoms/mol2/13ah13ah-13ah-13ah.out
 42 45 0 0 0
SMALL
GASTEIGER

@<TRIPOS>ATOM
      1 C           1.3828   -0.4316   -0.0940 C.ar    1  LIG1        0.0040
      2 C           0.9791    0.8178    0.3215 C.ar    1  LIG1       -0.0230
      3 C          -0.4462    0.8175    0.3436 C.ar    1  LIG1        0.0516
      4 C          -0.8786   -0.4438   -0.0632 C.ar    1  LIG1        0.0839
      5 N           0.2542   -1.1844   -0.3232 N.ar    1  LIG1       -0.3580
      6 H           0.2479   -2.1414   -0.6351 H       1  LIG1        0.1654
      7 H           2.3689   -0.8440   -0.2450 H       1  LIG1        0.0807
      8 H           1.6284    1.6424    0.5827 H       1  LIG1        0.0651
      9 N          -1.3492    1.8730    0.7156 N.pl3   1  LIG1       -0.3563
     10 H          -1.1773    2.1688    1.6747 H       1  LIG1        0.1424
     11 H          -1.1998    2.6943    0.1326 H       1  LIG1        0.1424
     12 C          -2.2165   -0.9662   -0.2052 C.ar    1  LIG1        0.0670
     13 C          -2.7006   -2.2299   -0.5414 C.ar    1  LIG1       -0.0135
     14 C          -4.1161   -2.1752   -0.4802 C.ar    1  LIG1        0.0523
     15 C          -4.4745   -0.8772   -0.1043 C.ar    1  LIG1        0.0843
     16 N          -3.2974   -0.1598    0.0411 N.ar    1  LIG1       -0.3504
     17 H          -3.1638    0.7731    0.4204 H       1  LIG1        0.1660
     18 H          -2.1107   -3.0991   -0.8015 H       1  LIG1        0.0658
     19 N          -5.0109   -3.2328   -0.7234 N.pl3   1  LIG1       -0.3563
     20 H          -5.9186   -2.8899   -1.0246 H       1  LIG1        0.1424
     21 H          -4.6533   -3.8850   -1.4125 H       1  LIG1        0.1424
     22 C          -5.7824   -0.2957    0.0589 C.ar    1  LIG1        0.0670
     23 C          -6.9977   -0.8685    0.4185 C.ar    1  LIG1       -0.0135
     24 C          -7.9809    0.1608    0.4102 C.ar    1  LIG1        0.0523
     25 C          -7.3561    1.3510    0.0494 C.ar    1  LIG1        0.0843
     26 N          -6.0209    1.0538   -0.1443 N.ar    1  LIG1       -0.3504
     27 H          -5.3578    1.6866   -0.5620 H       1  LIG1        0.1660
     28 H          -7.1365   -1.8953    0.7282 H       1  LIG1        0.0658
     29 N          -9.3806    0.0757    0.7285 N.pl3   1  LIG1       -0.3563
     30 H          -9.8196   -0.6696    0.1920 H       1  LIG1        0.1424
     31 H          -9.5093   -0.1668    1.7096 H       1  LIG1        0.1424
     32 C          -7.8996    2.6770   -0.1205 C.ar    1  LIG1        0.0665
     33 C          -7.3107    3.8940   -0.4594 C.ar    1  LIG1       -0.0142
     34 C          -8.3432    4.8721   -0.4959 C.ar    1  LIG1        0.0427
     35 C          -9.5298    4.2294   -0.1805 C.ar    1  LIG1        0.0230
     36 N          -9.2406    2.9025    0.0513 N.ar    1  LIG1       -0.3578
     37 H          -9.8666    2.1444    0.3006 H       1  LIG1        0.1654
     38 H         -10.5346    4.6144   -0.0919 H       1  LIG1        0.0826
     39 H          -6.2593    4.0745   -0.6409 H       1  LIG1        0.0658
     40 N          -8.1572    6.2532   -0.7308 N.pl3   1  LIG1       -0.3568
     41 H          -7.4827    6.4208   -1.4698 H       1  LIG1        0.1424
     42 H          -9.0246    6.7143   -0.9820 H       1  LIG1        0.1424
@<TRIPOS>BOND
     1    41    40    1
     2    21    19    1
     3    20    19    1
     4    42    40    1
     5    18    13    1
     6    40    34    1
     7    19    14    1
     8    39    33    1
     9     6     5    1
    10    27    26    1
    11    13    14   ar
    12    13    12   ar
    13    34    33   ar
    14    34    35   ar
    15    14    15   ar
    16    33    32   ar
    17     5     1   ar
    18     5     4   ar
    19     7     1    1
    20    12     4    1
    21    12    16   ar
    22    35    38    1
    23    35    36   ar
    24    26    25   ar
    25    26    22   ar
    26    32    25    1
    27    32    36   ar
    28    15    16   ar
    29    15    22    1
    30     1     2   ar
    31     4     3   ar
    32    16    17    1
    33    25    24   ar
    34    36    37    1
    35    22    23   ar
    36    11     9    1
    37    30    29    1
    38     2     3   ar
    39     2     8    1
    40     3     9    1
    41    24    23   ar
    42    24    29    1
    43    23    28    1
    44     9    10    1
    45    29    31    1
