@<TRIPOS>MOLECULE
mol_data/opt/b3lyp/geoms/mol2/13ah13ah13ah-13ah.out
 42 45 0 0 0
SMALL
GASTEIGER

@<TRIPOS>ATOM
      1 C           1.3123   -0.0262    0.3517 C.ar    1  LIG1        0.0040
      2 C           0.8984    1.1351   -0.2643 C.ar    1  LIG1       -0.0230
      3 C          -0.5158    1.0543   -0.4285 C.ar    1  LIG1        0.0516
      4 C          -0.9302   -0.1668    0.0957 C.ar    1  LIG1        0.0839
      5 N           0.2151   -0.8266    0.5437 N.ar    1  LIG1       -0.3580
      6 H           0.1878   -1.6082    1.1792 H       1  LIG1        0.1654
      7 H           2.2969   -0.3418    0.6625 H       1  LIG1        0.0807
      8 H           1.5342    1.9517   -0.5776 H       1  LIG1        0.0651
      9 N          -1.3491    2.0335   -0.9945 N.pl3   1  LIG1       -0.3563
     10 H          -0.8927    2.5442   -1.7419 H       1  LIG1        0.1424
     11 H          -2.2191    1.6358   -1.3358 H       1  LIG1        0.1424
     12 C          -2.2463   -0.7558    0.1524 C.ar    1  LIG1        0.0670
     13 C          -3.4997   -0.1770    0.3020 C.ar    1  LIG1       -0.0135
     14 C          -4.4673   -1.2217    0.2694 C.ar    1  LIG1        0.0523
     15 C          -3.7927   -2.4281    0.1050 C.ar    1  LIG1        0.0843
     16 N          -2.4439   -2.1255    0.0562 N.ar    1  LIG1       -0.3504
     17 H          -1.7364   -2.7690   -0.2607 H       1  LIG1        0.1660
     18 H          -3.6841    0.8725    0.4874 H       1  LIG1        0.0658
     19 N          -5.8954   -1.1352    0.4023 N.pl3   1  LIG1       -0.3563
     20 H          -6.1512   -0.8059    1.3318 H       1  LIG1        0.1424
     21 H          -6.2729   -0.4564   -0.2554 H       1  LIG1        0.1424
     22 C          -4.3022   -3.7721   -0.0024 C.ar    1  LIG1        0.0670
     23 C          -3.6775   -5.0083   -0.1348 C.ar    1  LIG1       -0.0135
     24 C          -4.6986   -5.9934   -0.2028 C.ar    1  LIG1        0.0523
     25 C          -5.9307   -5.3407   -0.1095 C.ar    1  LIG1        0.0843
     26 N          -5.6617   -4.0004    0.0096 N.ar    1  LIG1       -0.3504
     27 H          -6.3147   -3.2293    0.1099 H       1  LIG1        0.1660
     28 H          -2.6113   -5.1919   -0.1717 H       1  LIG1        0.0658
     29 N          -4.5717   -7.4193   -0.3375 N.pl3   1  LIG1       -0.3563
     30 H          -4.0704   -7.6558   -1.1916 H       1  LIG1        0.1424
     31 H          -4.0263   -7.8045    0.4311 H       1  LIG1        0.1424
     32 C          -7.2696   -5.8810   -0.1239 C.ar    1  LIG1        0.0665
     33 C          -8.5219   -5.2752   -0.0447 C.ar    1  LIG1       -0.0142
     34 C          -9.4992   -6.3060   -0.1134 C.ar    1  LIG1        0.0427
     35 C          -8.8208   -7.5092   -0.2330 C.ar    1  LIG1        0.0230
     36 N          -7.4715   -7.2327   -0.2308 N.ar    1  LIG1       -0.3578
     37 H          -6.6872   -7.8707   -0.3096 H       1  LIG1        0.1654
     38 H          -9.1922   -8.5203   -0.3059 H       1  LIG1        0.0826
     39 H          -8.7180   -4.2166    0.0614 H       1  LIG1        0.0658
     40 N         -10.8958   -6.1241    0.0025 N.pl3   1  LIG1       -0.3568
     41 H         -11.2047   -5.2822   -0.4714 H       1  LIG1        0.1424
     42 H         -11.4132   -6.9100   -0.3752 H       1  LIG1        0.1424
@<TRIPOS>BOND
     1    10     9    1
     2    11     9    1
     3    30    29    1
     4     9     3    1
     5     8     2    1
     6    41    40    1
     7     3     2   ar
     8     3     4   ar
     9    42    40    1
    10    29    24    1
    11    29    31    1
    12    37    36    1
    13    38    35    1
    14     2     1   ar
    15    17    16    1
    16    21    19    1
    17    35    36   ar
    18    35    34   ar
    19    36    32   ar
    20    24    23   ar
    21    24    25   ar
    22    28    23    1
    23    23    22   ar
    24    32    25    1
    25    32    33   ar
    26    34    33   ar
    27    34    40    1
    28    25    26   ar
    29    33    39    1
    30    22    26   ar
    31    22    15    1
    32    26    27    1
    33    16    15   ar
    34    16    12   ar
    35     4    12    1
    36     4     5   ar
    37    15    14   ar
    38    12    13   ar
    39    14    13   ar
    40    14    19    1
    41    13    18    1
    42     1     5   ar
    43     1     7    1
    44    19    20    1
    45     5     6    1
