@<TRIPOS>MOLECULE
mol_data/opt/b3lyp/geoms/mol2/13ah13ah-13ah-13ah-.out
 42 45 0 0 0
SMALL
GASTEIGER

@<TRIPOS>ATOM
      1 C           1.4158   -0.4179    0.0075 C.ar    1  LIG1        0.0040
      2 C           1.0030    0.8329    0.4098 C.ar    1  LIG1       -0.0230
      3 C          -0.4224    0.8289    0.4116 C.ar    1  LIG1        0.0516
      4 C          -0.8458   -0.4359    0.0063 C.ar    1  LIG1        0.0839
      5 N           0.2925   -1.1751   -0.2327 N.ar    1  LIG1       -0.3580
      6 H           0.2929   -2.1336   -0.5400 H       1  LIG1        0.1654
      7 H           2.4049   -0.8285   -0.1271 H       1  LIG1        0.0807
      8 H           1.6464    1.6606    0.6758 H       1  LIG1        0.0651
      9 N          -1.3331    1.8844    0.7659 N.pl3   1  LIG1       -0.3563
     10 H          -1.1885    2.1710    1.7324 H       1  LIG1        0.1424
     11 H          -1.1623    2.7102    0.1954 H       1  LIG1        0.1424
     12 C          -2.1803   -0.9623   -0.1523 C.ar    1  LIG1        0.0670
     13 C          -2.6573   -2.2317   -0.4763 C.ar    1  LIG1       -0.0135
     14 C          -4.0739   -2.1777   -0.4396 C.ar    1  LIG1        0.0523
     15 C          -4.4402   -0.8739   -0.0916 C.ar    1  LIG1        0.0843
     16 N          -3.2659   -0.1529    0.0616 N.ar    1  LIG1       -0.3504
     17 H          -3.1365    0.7824    0.4362 H       1  LIG1        0.1660
     18 H          -2.0624   -3.1047   -0.7107 H       1  LIG1        0.0658
     19 N          -4.9612   -3.2409   -0.6811 N.pl3   1  LIG1       -0.3563
     20 H          -5.8689   -2.9074   -0.9913 H       1  LIG1        0.1424
     21 H          -4.5944   -3.9013   -1.3570 H       1  LIG1        0.1424
     22 C          -5.7531   -0.2931    0.0348 C.ar    1  LIG1        0.0670
     23 C          -6.9681   -0.8763    0.3947 C.ar    1  LIG1       -0.0135
     24 C          -7.9637    0.1371    0.3770 C.ar    1  LIG1        0.0523
     25 C          -7.3497    1.3310    0.0045 C.ar    1  LIG1        0.0843
     26 N          -6.0030    1.0389   -0.2100 N.ar    1  LIG1       -0.3504
     27 H          -5.3012    1.7275   -0.4265 H       1  LIG1        0.1660
     28 H          -7.0971   -1.9012    0.7135 H       1  LIG1        0.0658
     29 N          -9.3177   -0.0167    0.7179 N.pl3   1  LIG1       -0.3563
     30 H          -9.8927    0.7166    0.3140 H       1  LIG1        0.1424
     31 H          -9.6816   -0.9245    0.4518 H       1  LIG1        0.1424
     32 C          -7.9159    2.6395   -0.2161 C.ar    1  LIG1        0.0665
     33 C          -8.9861    3.2784    0.3983 C.ar    1  LIG1       -0.0142
     34 C          -9.1631    4.5468   -0.2360 C.ar    1  LIG1        0.0427
     35 C          -8.2029    4.6536   -1.2203 C.ar    1  LIG1        0.0230
     36 N          -7.4199    3.5032   -1.1745 N.ar    1  LIG1       -0.3578
     37 H          -6.8530    3.1905   -1.9469 H       1  LIG1        0.1654
     38 H          -7.9769    5.4602   -1.9013 H       1  LIG1        0.0826
     39 H          -9.5111    2.9194    1.2728 H       1  LIG1        0.0658
     40 N         -10.0821    5.5342    0.1703 N.pl3   1  LIG1       -0.3568
     41 H         -10.2744    6.2108   -0.5592 H       1  LIG1        0.1424
     42 H         -10.9577    5.1329    0.4859 H       1  LIG1        0.1424
@<TRIPOS>BOND
     1    37    36    1
     2    38    35    1
     3    21    19    1
     4    35    36   ar
     5    35    34   ar
     6    36    32   ar
     7    20    19    1
     8    18    13    1
     9    19    14    1
    10    41    40    1
    11     6     5    1
    12    13    14   ar
    13    13    12   ar
    14    14    15   ar
    15    27    26    1
    16    34    40    1
    17    34    33   ar
    18     5     4   ar
    19     5     1   ar
    20    32    25    1
    21    32    33   ar
    22    26    25   ar
    23    26    22   ar
    24    12     4    1
    25    12    16   ar
    26     7     1    1
    27    15    22    1
    28    15    16   ar
    29    25    24   ar
    30     4     3   ar
    31     1     2   ar
    32    22    23   ar
    33    16    17    1
    34    40    42    1
    35    11     9    1
    36    30    29    1
    37    24    23   ar
    38    24    29    1
    39    23    28    1
    40    33    39    1
    41     2     3   ar
    42     2     8    1
    43     3     9    1
    44    31    29    1
    45     9    10    1
