@<TRIPOS>MOLECULE
mol_data/opt/b3lyp/geoms/mol2/13ah13ah-13ah13ah-.out
 42 45 0 0 0
SMALL
GASTEIGER

@<TRIPOS>ATOM
      1 C           1.3579   -0.2770   -0.1139 C.ar    1  LIG1        0.0040
      2 C           0.9193    1.0279   -0.1368 C.ar    1  LIG1       -0.0230
      3 C          -0.5061    0.9970   -0.1257 C.ar    1  LIG1        0.0516
      4 C          -0.9031   -0.3387   -0.0961 C.ar    1  LIG1        0.0839
      5 N           0.2503   -1.0931   -0.0895 N.ar    1  LIG1       -0.3580
      6 H           0.2715   -2.0993   -0.0698 H       1  LIG1        0.1654
      7 H           2.3553   -0.6898   -0.1130 H       1  LIG1        0.0807
      8 H           1.5454    1.9096   -0.1588 H       1  LIG1        0.0651
      9 N          -1.4380    2.0918   -0.1406 N.pl3   1  LIG1       -0.3563
     10 H          -1.2897    2.6993    0.6629 H       1  LIG1        0.1424
     11 H          -1.2981    2.6699   -0.9670 H       1  LIG1        0.1424
     12 C          -2.2266   -0.9156   -0.0750 C.ar    1  LIG1        0.0670
     13 C          -2.6828   -2.2289   -0.0452 C.ar    1  LIG1       -0.0135
     14 C          -4.1026   -2.1837   -0.0370 C.ar    1  LIG1        0.0523
     15 C          -4.4881   -0.8404   -0.0618 C.ar    1  LIG1        0.0843
     16 N          -3.3343   -0.0967   -0.0836 N.ar    1  LIG1       -0.3504
     17 H          -3.2285    0.9132   -0.1062 H       1  LIG1        0.1660
     18 H          -2.0748   -3.1244   -0.0304 H       1  LIG1        0.0658
     19 N          -5.0421   -3.2711   -0.0073 N.pl3   1  LIG1       -0.3563
     20 H          -4.8921   -3.8982   -0.7950 H       1  LIG1        0.1424
     21 H          -4.9194   -3.8309    0.8344 H       1  LIG1        0.1424
     22 C          -5.8075   -0.2581   -0.0659 C.ar    1  LIG1        0.0670
     23 C          -6.2531    1.0596   -0.0794 C.ar    1  LIG1       -0.0135
     24 C          -7.6727    1.0253   -0.0760 C.ar    1  LIG1        0.0523
     25 C          -8.0699   -0.3146   -0.0603 C.ar    1  LIG1        0.0843
     26 N          -6.9231   -1.0678   -0.0544 N.ar    1  LIG1       -0.3504
     27 H          -6.8278   -2.0786   -0.0405 H       1  LIG1        0.1660
     28 H          -5.6329    1.9463   -0.0895 H       1  LIG1        0.0658
     29 N          -8.6040    2.1217   -0.0844 N.pl3   1  LIG1       -0.3563
     30 H          -8.4638    2.7150    0.7313 H       1  LIG1        0.1424
     31 H          -8.4500    2.7144   -0.8979 H       1  LIG1        0.1424
     32 C          -9.3949   -0.8887   -0.0524 C.ar    1  LIG1        0.0665
     33 C          -9.8420   -2.2083   -0.0457 C.ar    1  LIG1       -0.0142
     34 C         -11.2640   -2.1767   -0.0471 C.ar    1  LIG1        0.0427
     35 C         -11.6463   -0.8443   -0.0553 C.ar    1  LIG1        0.0230
     36 N         -10.5009   -0.0789   -0.0510 N.ar    1  LIG1       -0.3578
     37 H         -10.4045    0.9307   -0.0658 H       1  LIG1        0.1654
     38 H         -12.6283   -0.3954   -0.0511 H       1  LIG1        0.0826
     39 H          -9.2240   -3.0961   -0.0295 H       1  LIG1        0.0658
     40 N         -12.1115   -3.3058    0.0281 N.pl3   1  LIG1       -0.3568
     41 H         -13.0529   -3.0926   -0.2829 H       1  LIG1        0.1424
     42 H         -11.7593   -4.0750   -0.5316 H       1  LIG1        0.1424
@<TRIPOS>BOND
     1    11     9    1
     2    31    29    1
     3    20    19    1
     4    42    40    1
     5    41    40    1
     6     8     2    1
     7     9     3    1
     8     9    10    1
     9     2     3   ar
    10     2     1   ar
    11     3     4   ar
    12     1     7    1
    13     1     5   ar
    14    17    16    1
    15     4     5   ar
    16     4    12    1
    17    28    23    1
    18     5     6    1
    19    29    24    1
    20    29    30    1
    21    16    12   ar
    22    16    15   ar
    23    23    24   ar
    24    23    22   ar
    25    24    25   ar
    26    12    13   ar
    27    22    15    1
    28    22    26   ar
    29    37    36    1
    30    15    14   ar
    31    25    26   ar
    32    25    32    1
    33    35    38    1
    34    35    36   ar
    35    35    34   ar
    36    26    27    1
    37    32    36   ar
    38    32    33   ar
    39    34    33   ar
    40    34    40    1
    41    33    39    1
    42    13    14   ar
    43    13    18    1
    44    14    19    1
    45    19    21    1
