@<TRIPOS>MOLECULE
mol_data/opt/b3lyp/geoms/mol2/13ah12al13el6la6dd-4ai-13ah-4fd-.out
 96 103 0 0 0
SMALL
GASTEIGER

@<TRIPOS>ATOM
      1 C           0.2792    0.2732    2.3963 C.ar    1  LIG1        0.0041
      2 C           0.0867    1.5302    1.8533 C.ar    1  LIG1       -0.0230
      3 C          -1.0849    1.4740    1.0514 C.ar    1  LIG1        0.0532
      4 C          -1.5826    0.1700    1.1331 C.ar    1  LIG1        0.1031
      5 N          -0.7174   -0.5445    1.9515 N.ar    1  LIG1       -0.3568
      6 H          -0.8610   -1.5068    2.2098 H       1  LIG1        0.1655
      7 H           1.0528   -0.0915    3.0551 H       1  LIG1        0.0807
      8 H           0.7184    2.3937    2.0077 H       1  LIG1        0.0651
      9 N          -1.6725    2.5244    0.3309 N.pl3   1  LIG1       -0.3562
     10 H          -1.0345    3.2978    0.1868 H       1  LIG1        0.1424
     11 H          -2.0464    2.2239   -0.5636 H       1  LIG1        0.1424
     12 C          -2.7452   -0.4162    0.5439 C.ar    1  LIG1        0.1573
     13 C          -3.8698    0.1156   -0.0490 C.ar    1  LIG1        0.0282
     14 C          -4.6816   -0.9928   -0.4327 C.ar    1  LIG1        0.1678
     15 C          -4.0302   -2.1483   -0.0408 C.ar    1  LIG1        0.1945
     16 O          -2.8249   -1.7811    0.5490 O.2     1  LIG1       -0.4480
     17 H          -4.0999    1.1658   -0.1333 H       1  LIG1        0.0693
     18 O          -5.8606   -0.9885   -1.0900 O.3     1  LIG1       -0.4912
     19 C          -6.4217    0.2835   -1.3846 C.3     1  LIG1        0.0790
     20 H          -7.3584    0.0855   -1.9064 H       1  LIG1        0.0660
     21 H          -6.6287    0.8521   -0.4695 H       1  LIG1        0.0660
     22 H          -5.7618    0.8723   -2.0344 H       1  LIG1        0.0660
     23 C          -4.2551   -3.5565   -0.1660 C.ar    1  LIG1        0.1054
     24 C          -5.4197   -4.3297   -0.3779 C.ar    1  LIG1        0.0953
     25 C          -4.9901   -5.6905   -0.4101 C.ar    1  LIG1        0.1614
     26 C          -3.6055   -5.7396   -0.2037 C.ar    1  LIG1        0.0956
     27 N          -3.2065   -4.4209   -0.0544 N.ar    1  LIG1       -0.3476
     28 H          -2.2404   -4.1566    0.0650 H       1  LIG1        0.1661
     29 C          -6.7639   -3.8875   -0.4020 C.1     1  LIG1       -0.0637
     30 C          -7.9290   -3.5546   -0.4079 C.1     1  LIG1       -0.1137
     31 H          -8.9482   -3.2474   -0.3855 H       1  LIG1        0.1232
     32 O          -5.7815   -6.7929   -0.5485 O.3     1  LIG1       -0.4917
     33 C          -6.5883   -6.8389   -1.7347 C.3     1  LIG1        0.0789
     34 H          -7.1188   -7.7922   -1.6997 H       1  LIG1        0.0660
     35 H          -7.3088   -6.0180   -1.7564 H       1  LIG1        0.0660
     36 H          -5.9595   -6.8003   -2.6322 H       1  LIG1        0.0660
     37 C          -1.2768   -6.7401   -0.0022 C.ar    1  LIG1        0.2245
     38 C          -2.6970   -6.8652   -0.1331 C.ar    1  LIG1        0.0634
     39 C          -3.1596   -8.1912   -0.1956 C.ar    1  LIG1       -0.0454
     40 C          -2.2788   -9.2656   -0.1410 C.ar    1  LIG1       -0.0347
     41 C          -0.9098   -9.0168   -0.0092 C.ar    1  LIG1        0.0776
     42 N          -0.4401   -7.7541    0.0583 N.ar    1  LIG1       -0.2123
     43 H          -4.2238   -8.3615   -0.2918 H       1  LIG1        0.0626
     44 O          -0.7606   -5.4826    0.0735 O.3     1  LIG1       -0.4792
     45 C           0.6697   -5.3608    0.1742 C.3     1  LIG1        0.0804
     46 H           0.8624   -4.2872    0.1800 H       1  LIG1        0.0660
     47 H           1.0306   -5.8191    1.0985 H       1  LIG1        0.0660
     48 H           1.1663   -5.8390   -0.6716 H       1  LIG1        0.0660
     49 H          -2.6591  -10.2775   -0.2249 H       1  LIG1        0.0639
     50 C           1.4252   -9.9969   -0.3659 C.ar    1  LIG1        0.1499
     51 C           0.0811  -10.1064    0.0696 C.ar    1  LIG1        0.0376
     52 C          -0.2576  -11.3466    0.6225 C.ar    1  LIG1       -0.0303
     53 C           0.6684  -12.3892    0.7072 C.ar    1  LIG1        0.0784
     54 C           1.9860  -12.1890    0.2031 C.ar    1  LIG1        0.0898
     55 N           2.3170  -10.9918   -0.3002 N.ar    1  LIG1       -0.2344
     56 H          -1.2484  -11.4975    1.0354 H       1  LIG1        0.0638
     57 N           2.4648   -7.8983   -1.5087 N.1     1  LIG1       -0.1893
     58 C           1.9573   -8.8003   -0.9793 C.1     1  LIG1        0.1198
     59 N          -0.1674  -14.5267    1.9188 N.1     1  LIG1       -0.1908
     60 C           0.2401  -13.5862    1.3676 C.1     1  LIG1        0.1013
     61 C           2.8096  -14.5888    0.1423 C.ar    1  LIG1       -0.0519
     62 C           3.8675  -15.4843    0.1277 C.ar    1  LIG1       -0.0518
     63 C           3.0576  -13.2084    0.2067 C.ar    1  LIG1        0.0019
     64 C           5.2110  -15.0635    0.1856 C.ar    1  LIG1        0.0013
     65 H           3.6583  -16.5449    0.0408 H       1  LIG1        0.0624
     66 C           4.3958  -12.7832    0.2440 C.ar    1  LIG1       -0.0490
     67 C           5.4728  -13.6685    0.2444 C.ar    1  LIG1       -0.0407
     68 H           4.5900  -11.7171    0.2876 H       1  LIG1        0.0627
     69 H           1.8000  -14.9734    0.0704 H       1  LIG1        0.0624
     70 C           6.8686  -13.0915    0.3429 C.3     1  LIG1       -0.0391
     71 H           6.8284  -12.0569    0.6919 H       1  LIG1        0.0278
     72 H           7.3772  -13.0664   -0.6310 H       1  LIG1        0.0278
     73 H           7.4978  -13.6564    1.0370 H       1  LIG1        0.0278
     74 C           6.2382  -16.1080    0.2043 C.ar    1  LIG1        0.0490
     75 C           6.1537  -17.3947    0.7276 C.ar    1  LIG1       -0.0151
     76 C           7.3922  -18.0512    0.5217 C.ar    1  LIG1        0.0509
     77 C           8.2350  -17.1500   -0.1517 C.ar    1  LIG1        0.0714
     78 N           7.4996  -15.9812   -0.3214 N.ar    1  LIG1       -0.3526
     79 H           7.8764  -15.1386   -0.7197 H       1  LIG1        0.1660
     80 H           5.3040  -17.8080    1.2518 H       1  LIG1        0.0657
     81 N           7.6583  -19.3513    0.9486 N.pl3   1  LIG1       -0.3563
     82 H           6.9244  -20.0130    0.7352 H       1  LIG1        0.1424
     83 H           8.5763  -19.6957    0.7125 H       1  LIG1        0.1424
     84 C          10.6347  -17.9738   -0.1774 C.ar    1  LIG1        0.1261
     85 C          11.8937  -18.0151   -0.7810 C.ar    1  LIG1       -0.0183
     86 C           9.5594  -17.2569   -0.7602 C.ar    1  LIG1        0.0427
     87 C          12.1403  -17.3367   -1.9682 C.ar    1  LIG1       -0.0409
     88 H          12.6944  -18.5733   -0.3009 H       1  LIG1        0.0655
     89 C           9.8313  -16.5919   -1.9682 C.ar    1  LIG1       -0.0317
     90 C          11.0985  -16.6145   -2.5687 C.ar    1  LIG1        0.0526
     91 H           9.0284  -16.0647   -2.4717 H       1  LIG1        0.0638
     92 H          13.1215  -17.3662   -2.4279 H       1  LIG1        0.0631
     93 O          10.3982  -18.6130    1.0060 O.3     1  LIG1       -0.5061
     94 H          11.2202  -19.0013    1.3345 H       1  LIG1        0.2922
     95 N          11.5000  -15.3438   -4.7970 N.1     1  LIG1       -0.1909
     96 C          11.3191  -15.9149   -3.7993 C.1     1  LIG1        0.0992
@<TRIPOS>BOND
     1    95    96    3
     2    96    90    1
     3    36    33    1
     4    90    87   ar
     5    90    89   ar
     6    91    89    1
     7    92    87    1
     8    22    19    1
     9    87    85   ar
    10    89    86   ar
    11    20    19    1
    12    35    33    1
    13    33    34    1
    14    33    32    1
    15    57    58    3
    16    19    18    1
    17    19    21    1
    18    18    14    1
    19    58    50    1
    20    85    88    1
    21    85    84   ar
    22    86    84   ar
    23    86    77    1
    24    79    78    1
    25    48    45    1
    26    72    70    1
    27    11     9    1
    28    32    25    1
    29    14    13   ar
    30    14    15   ar
    31    25    24   ar
    32    25    26   ar
    33    30    29    3
    34    30    31    1
    35    29    24    1
    36    24    23   ar
    37    50    55   ar
    38    50    51   ar
    39    78    77   ar
    40    78    74   ar
    41    55    54   ar
    42    43    39    1
    43    49    40    1
    44    26    38    1
    45    26    27   ar
    46    39    40   ar
    47    39    38   ar
    48    84    93    1
    49    23    27   ar
    50    23    15    1
    51    77    76   ar
    52    40    41   ar
    53    17    13    1
    54    38    37   ar
    55    27    28    1
    56    13    12   ar
    57    15    16   ar
    58    41    42   ar
    59    41    51    1
    60    37    42   ar
    61    37    44    1
    62    65    62    1
    63    51    52   ar
    64    69    61    1
    65    44    45    1
    66    62    61   ar
    67    62    64   ar
    68    61    63   ar
    69    45    46    1
    70    45    47    1
    71    64    74    1
    72    64    67   ar
    73    10     9    1
    74    54    63    1
    75    54    53   ar
    76    74    75   ar
    77    63    66   ar
    78    66    67   ar
    79    66    68    1
    80    67    70    1
    81     9     3    1
    82    70    71    1
    83    70    73    1
    84    76    75   ar
    85    76    81    1
    86    12    16   ar
    87    12     4    1
    88    52    53   ar
    89    52    56    1
    90    53    60    1
    91    83    81    1
    92    75    80    1
    93    82    81    1
    94    93    94    1
    95     3     4   ar
    96     3     2   ar
    97     4     5   ar
    98    60    59    3
    99     2     8    1
   100     2     1   ar
   101     5     6    1
   102     5     1   ar
   103     1     7    1
