@<TRIPOS>MOLECULE
mol_data/opt/b3lyp/geoms/mol2/13ah13ah13ah13ah-.out
 42 45 0 0 0
SMALL
GASTEIGER

@<TRIPOS>ATOM
      1 C           0.9968    0.3710    1.2041 C.ar    1  LIG1        0.0040
      2 C           0.8178    1.2821    0.1861 C.ar    1  LIG1       -0.0230
      3 C          -0.4764    1.0568   -0.3696 C.ar    1  LIG1        0.0516
      4 C          -1.0562    0.0022    0.3294 C.ar    1  LIG1        0.0839
      5 N          -0.1195   -0.4237    1.2735 N.ar    1  LIG1       -0.3580
      6 H          -0.3629   -0.9806    2.0776 H       1  LIG1        0.1654
      7 H           1.8284    0.2277    1.8777 H       1  LIG1        0.0807
      8 H           1.5348    2.0230   -0.1396 H       1  LIG1        0.0651
      9 N          -1.0707    1.7780   -1.4179 N.pl3   1  LIG1       -0.3563
     10 H          -0.3963    2.0848   -2.1095 H       1  LIG1        0.1424
     11 H          -1.8090    1.2479   -1.8704 H       1  LIG1        0.1424
     12 C          -2.3323   -0.6458    0.1406 C.ar    1  LIG1        0.0670
     13 C          -3.5611   -0.1248   -0.2593 C.ar    1  LIG1       -0.0135
     14 C          -4.5009   -1.1903   -0.2899 C.ar    1  LIG1        0.0523
     15 C          -3.8380   -2.3551    0.0928 C.ar    1  LIG1        0.0843
     16 N          -2.5146   -1.9951    0.3487 N.ar    1  LIG1       -0.3504
     17 H          -1.7905   -2.6339    0.6329 H       1  LIG1        0.1660
     18 H          -3.7658    0.9222   -0.4344 H       1  LIG1        0.0658
     19 N          -5.8684   -1.0906   -0.5946 N.pl3   1  LIG1       -0.3563
     20 H          -6.0594   -0.3655   -1.2765 H       1  LIG1        0.1424
     21 H          -6.2480   -1.9750   -0.9190 H       1  LIG1        0.1424
     22 C          -4.3264   -3.7076    0.1957 C.ar    1  LIG1        0.0670
     23 C          -5.5785   -4.1983    0.5440 C.ar    1  LIG1       -0.0135
     24 C          -5.5270   -5.6193    0.4627 C.ar    1  LIG1        0.0523
     25 C          -4.2427   -5.9819    0.0706 C.ar    1  LIG1        0.0843
     26 N          -3.5229   -4.8090   -0.0668 N.ar    1  LIG1       -0.3504
     27 H          -2.6384   -4.7568   -0.5466 H       1  LIG1        0.1660
     28 H          -6.4080   -3.5978    0.8918 H       1  LIG1        0.0658
     29 N          -6.5597   -6.5785    0.7454 N.pl3   1  LIG1       -0.3563
     30 H          -6.7928   -6.5720    1.7372 H       1  LIG1        0.1424
     31 H          -7.4145   -6.3326    0.2508 H       1  LIG1        0.1424
     32 C          -3.6727   -7.2849   -0.1738 C.ar    1  LIG1        0.0665
     33 C          -2.3888   -7.6920   -0.5327 C.ar    1  LIG1       -0.0142
     34 C          -2.4086   -9.1094   -0.6532 C.ar    1  LIG1        0.0427
     35 C          -3.6985   -9.5280   -0.3663 C.ar    1  LIG1        0.0230
     36 N          -4.4478   -8.4105   -0.0712 N.ar    1  LIG1       -0.3578
     37 H          -5.4276   -8.3457    0.1825 H       1  LIG1        0.1654
     38 H          -4.1243  -10.5196   -0.3375 H       1  LIG1        0.0826
     39 H          -1.5244   -7.0560   -0.6717 H       1  LIG1        0.0658
     40 N          -1.2894   -9.9249   -0.9312 N.pl3   1  LIG1       -0.3568
     41 H          -1.5619  -10.8516   -1.2391 H       1  LIG1        0.1424
     42 H          -0.6915   -9.5156   -1.6409 H       1  LIG1        0.1424
@<TRIPOS>BOND
     1    10     9    1
     2    11     9    1
     3    42    40    1
     4     9     3    1
     5    20    19    1
     6    41    40    1
     7    40    34    1
     8    21    19    1
     9    39    33    1
    10    34    33   ar
    11    34    35   ar
    12    19    14    1
    13    27    26    1
    14    33    32   ar
    15    18    13    1
    16     3     2   ar
    17     3     4   ar
    18    35    38    1
    19    35    36   ar
    20    14    13   ar
    21    14    15   ar
    22    13    12   ar
    23    32    36   ar
    24    32    25    1
    25     8     2    1
    26    36    37    1
    27    26    25   ar
    28    26    22   ar
    29    25    24   ar
    30    15    22    1
    31    15    16   ar
    32    12     4    1
    33    12    16   ar
    34     2     1   ar
    35    22    23   ar
    36    31    29    1
    37     4     5   ar
    38    16    17    1
    39    24    23   ar
    40    24    29    1
    41    23    28    1
    42    29    30    1
    43     1     5   ar
    44     1     7    1
    45     5     6    1
