@<TRIPOS>MOLECULE
mol_data/opt/b3lyp/geoms/mol2/13ah13ah13ah-13ah-.out
 42 45 0 0 0
SMALL
GASTEIGER

@<TRIPOS>ATOM
      1 C           1.3406   -0.0331    0.2648 C.ar    1  LIG1        0.0040
      2 C           0.9008    1.1627   -0.2609 C.ar    1  LIG1       -0.0230
      3 C          -0.5199    1.0922   -0.3594 C.ar    1  LIG1        0.0516
      4 C          -0.9121   -0.1574    0.1123 C.ar    1  LIG1        0.0839
      5 N           0.2516   -0.8426    0.4640 N.ar    1  LIG1       -0.3580
      6 H           0.2535   -1.6615    1.0514 H       1  LIG1        0.1654
      7 H           2.3382   -0.3669    0.5079 H       1  LIG1        0.0807
      8 H           1.5232    1.9959   -0.5567 H       1  LIG1        0.0651
      9 N          -1.3772    2.1031   -0.8255 N.pl3   1  LIG1       -0.3563
     10 H          -0.9565    2.6563   -1.5635 H       1  LIG1        0.1424
     11 H          -2.2637    1.7254   -1.1464 H       1  LIG1        0.1424
     12 C          -2.2259   -0.7480    0.1978 C.ar    1  LIG1        0.0670
     13 C          -3.4688   -0.1773    0.4407 C.ar    1  LIG1       -0.0135
     14 C          -4.4404   -1.2171    0.3940 C.ar    1  LIG1        0.0523
     15 C          -3.7790   -2.4130    0.1277 C.ar    1  LIG1        0.0843
     16 N          -2.4336   -2.1087    0.0301 N.ar    1  LIG1       -0.3504
     17 H          -1.7429   -2.7369   -0.3488 H       1  LIG1        0.1660
     18 H          -3.6394    0.8597    0.6960 H       1  LIG1        0.0658
     19 N          -5.8596   -1.1386    0.6103 N.pl3   1  LIG1       -0.3563
     20 H          -6.0592   -0.8424    1.5644 H       1  LIG1        0.1424
     21 H          -6.2717   -0.4334    0.0028 H       1  LIG1        0.1424
     22 C          -4.2956   -3.7492   -0.0246 C.ar    1  LIG1        0.0670
     23 C          -3.6663   -4.9820   -0.1976 C.ar    1  LIG1       -0.0135
     24 C          -4.6777   -5.9748   -0.2498 C.ar    1  LIG1        0.0523
     25 C          -5.9102   -5.3319   -0.1053 C.ar    1  LIG1        0.0843
     26 N          -5.6480   -3.9762    0.0145 N.ar    1  LIG1       -0.3504
     27 H          -6.2879   -3.2303    0.2691 H       1  LIG1        0.1660
     28 H          -2.6009   -5.1576   -0.2679 H       1  LIG1        0.0658
     29 N          -4.4868   -7.3608   -0.3908 N.pl3   1  LIG1       -0.3563
     30 H          -5.3180   -7.8144   -0.7585 H       1  LIG1        0.1424
     31 H          -3.6927   -7.5803   -0.9817 H       1  LIG1        0.1424
     32 C          -7.2446   -5.8794   -0.1412 C.ar    1  LIG1        0.0665
     33 C          -7.7199   -7.1357    0.2220 C.ar    1  LIG1       -0.0142
     34 C          -9.1192   -7.1724   -0.0597 C.ar    1  LIG1        0.0427
     35 C          -9.4661   -5.9453   -0.5880 C.ar    1  LIG1        0.0230
     36 N          -8.3234   -5.1545   -0.6011 N.ar    1  LIG1       -0.3578
     37 H          -8.2316   -4.3046   -1.1337 H       1  LIG1        0.1654
     38 H         -10.4222   -5.5583   -0.9065 H       1  LIG1        0.0826
     39 H          -7.1479   -7.8992    0.7308 H       1  LIG1        0.0658
     40 N          -9.9837   -8.2393    0.2587 N.pl3   1  LIG1       -0.3568
     41 H         -10.8467   -8.2103   -0.2719 H       1  LIG1        0.1424
     42 H          -9.5425   -9.1408    0.1166 H       1  LIG1        0.1424
@<TRIPOS>BOND
     1    10     9    1
     2    11     9    1
     3    37    36    1
     4    31    29    1
     5    38    35    1
     6     9     3    1
     7    30    29    1
     8    36    35   ar
     9    36    32   ar
    10    35    34   ar
    11     8     2    1
    12    29    24    1
    13     3     2   ar
    14     3     4   ar
    15    17    16    1
    16    41    40    1
    17    28    23    1
    18     2     1   ar
    19    24    23   ar
    20    24    25   ar
    21    23    22   ar
    22    32    25    1
    23    32    33   ar
    24    25    26   ar
    25    34    33   ar
    26    34    40    1
    27    22    26   ar
    28    22    15    1
    29    21    19    1
    30    26    27    1
    31    16    15   ar
    32    16    12   ar
    33     4    12    1
    34     4     5   ar
    35    42    40    1
    36    15    14   ar
    37    12    13   ar
    38    33    39    1
    39     1     5   ar
    40     1     7    1
    41    14    13   ar
    42    14    19    1
    43    13    18    1
    44     5     6    1
    45    19    20    1
