@<TRIPOS>MOLECULE
mol_data/opt/b3lyp/geoms/mol2/13ah13ah-13ah.out
 32 34 0 0 0
SMALL
GASTEIGER

@<TRIPOS>ATOM
      1 C           1.2884   -0.3122   -0.1193 C.ar    1  LIG1        0.0040
      2 C           0.8540    0.9942   -0.1020 C.ar    1  LIG1       -0.0230
      3 C          -0.5716    0.9677   -0.0823 C.ar    1  LIG1        0.0516
      4 C          -0.9729   -0.3667   -0.0880 C.ar    1  LIG1        0.0839
      5 N           0.1778   -1.1250   -0.1094 N.ar    1  LIG1       -0.3580
      6 H           0.1947   -2.1313   -0.1208 H       1  LIG1        0.1654
      7 H           2.2842   -0.7284   -0.1371 H       1  LIG1        0.0807
      8 H           1.4829    1.8743   -0.1031 H       1  LIG1        0.0651
      9 N          -1.4998    2.0650   -0.0587 N.pl3   1  LIG1       -0.3563
     10 H          -1.3668    2.6305    0.7775 H       1  LIG1        0.1424
     11 H          -1.3442    2.6836   -0.8520 H       1  LIG1        0.1424
     12 C          -2.2984   -0.9399   -0.0759 C.ar    1  LIG1        0.0670
     13 C          -2.7583   -2.2522   -0.0695 C.ar    1  LIG1       -0.0135
     14 C          -4.1784   -2.2025   -0.0588 C.ar    1  LIG1        0.0523
     15 C          -4.5596   -0.8585   -0.0586 C.ar    1  LIG1        0.0843
     16 N          -3.4043   -0.1184   -0.0688 N.ar    1  LIG1       -0.3504
     17 H          -3.2977    0.8917   -0.0694 H       1  LIG1        0.1660
     18 H          -2.1525   -3.1495   -0.0712 H       1  LIG1        0.0658
     19 N          -5.1208   -3.2884   -0.0476 N.pl3   1  LIG1       -0.3563
     20 H          -4.9815   -3.8918   -0.8558 H       1  LIG1        0.1424
     21 H          -4.9830   -3.8736    0.7742 H       1  LIG1        0.1424
     22 C          -5.8776   -0.2681   -0.0505 C.ar    1  LIG1        0.0665
     23 C          -6.3068    1.0574   -0.0592 C.ar    1  LIG1       -0.0142
     24 C          -7.7289    1.0450   -0.0519 C.ar    1  LIG1        0.0427
     25 C          -8.1290   -0.2822   -0.0398 C.ar    1  LIG1        0.0230
     26 N          -6.9943   -1.0629   -0.0319 N.ar    1  LIG1       -0.3578
     27 H          -6.9131   -2.0738   -0.0335 H       1  LIG1        0.1654
     28 H          -9.1169   -0.7175   -0.0241 H       1  LIG1        0.0826
     29 H          -5.6766    1.9367   -0.0589 H       1  LIG1        0.0658
     30 N          -8.5605    2.1861    0.0130 N.pl3   1  LIG1       -0.3568
     31 H          -8.1978    2.9461   -0.5524 H       1  LIG1        0.1424
     32 H          -9.5053    1.9841   -0.2944 H       1  LIG1        0.1424
@<TRIPOS>BOND
     1    20    19    1
     2    11     9    1
     3    31    30    1
     4    32    30    1
     5     7     1    1
     6     6     5    1
     7     1     5   ar
     8     1     2   ar
     9     5     4   ar
    10     8     2    1
    11     2     3   ar
    12     4     3   ar
    13     4    12    1
    14     3     9    1
    15    12    13   ar
    16    12    16   ar
    17    18    13    1
    18    13    14   ar
    19    17    16    1
    20    16    15   ar
    21    23    29    1
    22    23    24   ar
    23    23    22   ar
    24    14    15   ar
    25    14    19    1
    26     9    10    1
    27    15    22    1
    28    24    25   ar
    29    24    30    1
    30    22    26   ar
    31    19    21    1
    32    25    26   ar
    33    25    28    1
    34    27    26    1
