@<TRIPOS>MOLECULE
mol_data/opt/b3lyp/geoms/mol2/13ah6hf6hh6he-.out
 50 53 0 0 0
SMALL
GASTEIGER

@<TRIPOS>ATOM
      1 C           1.4095   -0.0284    0.3690 C.ar    1  LIG1        0.0040
      2 C           0.9547    1.2661    0.2052 C.ar    1  LIG1       -0.0231
      3 C          -0.4512    1.2015    0.0090 C.ar    1  LIG1        0.0503
      4 C          -0.8261   -0.1472    0.0528 C.ar    1  LIG1        0.0708
      5 N           0.3479   -0.8729    0.2584 N.ar    1  LIG1       -0.3591
      6 H           0.3515   -1.8727    0.3981 H       1  LIG1        0.1654
      7 H           2.4081   -0.4012    0.5417 H       1  LIG1        0.0807
      8 H           1.5594    2.1623    0.2204 H       1  LIG1        0.0651
      9 N          -1.3065    2.3037   -0.1528 N.pl3   1  LIG1       -0.3563
     10 H          -0.8163    3.1248   -0.4869 H       1  LIG1        0.1424
     11 H          -2.0985    2.1118   -0.7560 H       1  LIG1        0.1424
     12 C          -2.3452   -2.1174   -0.4284 C.ar    1  LIG1        0.1263
     13 C          -2.1399   -0.7692   -0.0105 C.ar    1  LIG1        0.0431
     14 C          -3.2899   -0.0780    0.3876 C.ar    1  LIG1       -0.0056
     15 C          -4.5448   -0.6858    0.3608 C.ar    1  LIG1        0.1436
     16 C          -4.6505   -2.0204   -0.0721 C.ar    1  LIG1        0.1177
     17 N          -3.5371   -2.6977   -0.4380 N.ar    1  LIG1       -0.2280
     18 H          -3.2156    0.9287    0.7840 H       1  LIG1        0.0662
     19 N          -1.2523   -2.9242   -0.8181 N.pl3   1  LIG1       -0.3426
     20 H          -1.5960   -3.7944   -1.2109 H       1  LIG1        0.1437
     21 H          -0.6448   -2.4562   -1.4849 H       1  LIG1        0.1437
     22 O          -5.6035    0.0634    0.7966 O.3     1  LIG1       -0.5046
     23 H          -6.3535   -0.5266    0.9643 H       1  LIG1        0.2922
     24 C          -6.1049   -4.0981    0.2214 C.ar    1  LIG1        0.1263
     25 C          -5.9503   -2.7288   -0.1473 C.ar    1  LIG1        0.0453
     26 C          -7.0977   -2.0894   -0.6228 C.ar    1  LIG1       -0.0264
     27 C          -8.3484   -2.7206   -0.6737 C.ar    1  LIG1        0.0518
     28 C          -8.4130   -4.0541   -0.2094 C.ar    1  LIG1        0.0970
     29 N          -7.2935   -4.7034    0.1768 N.ar    1  LIG1       -0.2298
     30 H          -7.0176   -1.0725   -0.9997 H       1  LIG1        0.0644
     31 N          -5.0413   -4.8384    0.6915 N.pl3   1  LIG1       -0.3426
     32 H          -5.2230   -5.8291    0.7560 H       1  LIG1        0.1437
     33 H          -4.1388   -4.5618    0.3250 H       1  LIG1        0.1437
     34 N          -9.4648   -2.0087   -1.1457 N.pl3   1  LIG1       -0.3563
     35 H          -9.2153   -1.2573   -1.7774 H       1  LIG1        0.1424
     36 H         -10.1795   -2.5959   -1.5586 H       1  LIG1        0.1424
     37 C          -9.7629   -6.2178   -0.4486 C.ar    1  LIG1        0.1255
     38 C          -9.6884   -4.8178   -0.1466 C.ar    1  LIG1        0.0429
     39 C         -10.8758   -4.2055    0.2515 C.ar    1  LIG1       -0.0323
     40 C         -12.0875   -4.9192    0.3044 C.ar    1  LIG1        0.0435
     41 C         -12.0360   -6.2733   -0.0637 C.ar    1  LIG1        0.0451
     42 N         -10.9214   -6.9037   -0.4181 N.ar    1  LIG1       -0.2388
     43 H         -10.8709   -3.1588    0.5348 H       1  LIG1        0.0638
     44 H         -12.9471   -6.8684   -0.0565 H       1  LIG1        0.0843
     45 N          -8.6608   -6.9280   -0.8278 N.pl3   1  LIG1       -0.3426
     46 H          -8.7966   -7.9281   -0.8470 H       1  LIG1        0.1437
     47 H          -7.7758   -6.5591   -0.4988 H       1  LIG1        0.1437
     48 C         -13.3084   -4.3050    0.7092 C.1     1  LIG1       -0.0681
     49 C         -14.3488   -3.7869    1.0497 C.1     1  LIG1       -0.1139
     50 H         -15.2631   -3.3333    1.3536 H       1  LIG1        0.1232
@<TRIPOS>BOND
     1    35    34    1
     2    36    34    1
     3    21    19    1
     4    20    19    1
     5    34    27    1
     6    30    26    1
     7    46    45    1
     8    45    47    1
     9    45    37    1
    10    19    12    1
    11    11     9    1
    12    27    26   ar
    13    27    28   ar
    14    26    25   ar
    15    10     9    1
    16    37    42   ar
    17    37    38   ar
    18    17    12   ar
    19    17    16   ar
    20    12    13   ar
    21    42    41   ar
    22    28    38    1
    23    28    29   ar
    24     9     3    1
    25    25    16    1
    26    25    24   ar
    27    38    39   ar
    28    16    15   ar
    29    41    44    1
    30    41    40   ar
    31    13     4    1
    32    13    14   ar
    33     3     4   ar
    34     3     2   ar
    35     4     5   ar
    36    29    24   ar
    37     2     8    1
    38     2     1   ar
    39    24    31    1
    40    39    40   ar
    41    39    43    1
    42     5     1   ar
    43     5     6    1
    44    40    48    1
    45    33    31    1
    46    15    14   ar
    47    15    22    1
    48     1     7    1
    49    14    18    1
    50    31    32    1
    51    48    49    3
    52    22    23    1
    53    49    50    1
