@<TRIPOS>MOLECULE
mol_data/opt/b3lyp/geoms/mol2/13ah13ah-4ah13ah.out
 44 47 0 0 0
SMALL
GASTEIGER

@<TRIPOS>ATOM
      1 C           1.3615   -0.2574    0.1698 C.ar    1  LIG1        0.0040
      2 C           0.8802    1.0140    0.3916 C.ar    1  LIG1       -0.0230
      3 C          -0.5403    0.9533    0.2919 C.ar    1  LIG1        0.0516
      4 C          -0.8912   -0.3656    0.0090 C.ar    1  LIG1        0.0839
      5 N           0.2846   -1.0811   -0.0616 N.ar    1  LIG1       -0.3580
      6 H           0.3384   -2.0691   -0.2465 H       1  LIG1        0.1654
      7 H           2.3704   -0.6409    0.1569 H       1  LIG1        0.0807
      8 H           1.4753    1.8922    0.6025 H       1  LIG1        0.0651
      9 N          -1.5086    2.0036    0.4470 N.pl3   1  LIG1       -0.3563
     10 H          -1.4017    2.4587    1.3512 H       1  LIG1        0.1424
     11 H          -1.3722    2.7265   -0.2569 H       1  LIG1        0.1424
     12 C          -2.1923   -0.9616   -0.1809 C.ar    1  LIG1        0.0669
     13 C          -2.5932   -2.2726   -0.4393 C.ar    1  LIG1       -0.0136
     14 C          -4.0088   -2.2822   -0.4860 C.ar    1  LIG1        0.0508
     15 C          -4.4564   -0.9740   -0.2547 C.ar    1  LIG1        0.0679
     16 N          -3.3212   -0.1966   -0.0941 N.ar    1  LIG1       -0.3515
     17 H          -3.2644    0.7823    0.1686 H       1  LIG1        0.1660
     18 H          -1.9489   -3.1301   -0.5842 H       1  LIG1        0.0658
     19 N          -4.8185   -3.4146   -0.7129 N.pl3   1  LIG1       -0.3563
     20 H          -5.6502   -3.1847   -1.2474 H       1  LIG1        0.1424
     21 H          -4.3093   -4.1445   -1.1987 H       1  LIG1        0.1424
     22 C          -6.0285    0.9501   -0.5139 C.ar    1  LIG1       -0.0518
     23 C          -7.3092    1.4768   -0.4442 C.ar    1  LIG1       -0.0502
     24 C          -5.7960   -0.4083   -0.2149 C.ar    1  LIG1        0.0019
     25 C          -8.4291    0.7002   -0.0970 C.ar    1  LIG1        0.0190
     26 H          -7.4612    2.5326   -0.6467 H       1  LIG1        0.0625
     27 C          -6.9099   -1.1969    0.1298 C.ar    1  LIG1       -0.0312
     28 C          -8.2043   -0.6729    0.1808 C.ar    1  LIG1        0.0344
     29 H          -6.7586   -2.2379    0.4017 H       1  LIG1        0.0643
     30 H          -5.2042    1.5904   -0.8125 H       1  LIG1        0.0624
     31 N          -9.2795   -1.5076    0.5680 N.pl3   1  LIG1       -0.3574
     32 H         -10.1069   -1.3672   -0.0038 H       1  LIG1        0.1423
     33 H          -9.0223   -2.4879    0.5662 H       1  LIG1        0.1423
     34 C          -9.7508    1.3270   -0.0264 C.ar    1  LIG1        0.0500
     35 C         -10.2460    2.4499   -0.6829 C.ar    1  LIG1       -0.0157
     36 C         -11.5615    2.6996   -0.2035 C.ar    1  LIG1        0.0427
     37 C         -11.8457    1.7239    0.7366 C.ar    1  LIG1        0.0230
     38 N         -10.7484    0.8896    0.8190 N.ar    1  LIG1       -0.3590
     39 H         -10.6102    0.1551    1.4969 H       1  LIG1        0.1654
     40 H         -12.7311    1.5525    1.3301 H       1  LIG1        0.0826
     41 H          -9.7255    3.0166   -1.4426 H       1  LIG1        0.0657
     42 N         -12.3843    3.7801   -0.5834 N.pl3   1  LIG1       -0.3568
     43 H         -12.2634    4.0251   -1.5595 H       1  LIG1        0.1424
     44 H         -13.3664    3.5972   -0.4132 H       1  LIG1        0.1424
@<TRIPOS>BOND
     1    43    42    1
     2    41    35    1
     3    20    19    1
     4    21    19    1
     5    30    22    1
     6    19    14    1
     7    35    36   ar
     8    35    34   ar
     9    26    23    1
    10    18    13    1
    11    42    44    1
    12    42    36    1
    13    22    23   ar
    14    22    24   ar
    15    14    13   ar
    16    14    15   ar
    17    23    25   ar
    18    13    12   ar
    19    11     9    1
    20    15    24    1
    21    15    16   ar
    22     6     5    1
    23    24    27   ar
    24    36    37   ar
    25    12    16   ar
    26    12     4    1
    27    25    34    1
    28    25    28   ar
    29    16    17    1
    30     5     4   ar
    31     5     1   ar
    32    34    38   ar
    33    32    31    1
    34     4     3   ar
    35    27    28   ar
    36    27    29    1
    37     7     1    1
    38     1     2   ar
    39    28    31    1
    40     3     2   ar
    41     3     9    1
    42     2     8    1
    43     9    10    1
    44    33    31    1
    45    37    38   ar
    46    37    40    1
    47    38    39    1
