@<TRIPOS>MOLECULE
mol_data/opt/b3lyp/geoms/mol2/13ah13ah13ah.out
 32 34 0 0 0
SMALL
GASTEIGER

@<TRIPOS>ATOM
      1 C           1.2444   -0.0433    0.6839 C.ar    1  LIG1        0.0040
      2 C           0.8969    1.0882   -0.0215 C.ar    1  LIG1       -0.0230
      3 C          -0.4963    1.0011   -0.3142 C.ar    1  LIG1        0.0516
      4 C          -0.9647   -0.1941    0.2228 C.ar    1  LIG1        0.0839
      5 N           0.1300   -0.8343    0.8070 N.ar    1  LIG1       -0.3580
      6 H           0.0369   -1.5727    1.4868 H       1  LIG1        0.1654
      7 H           2.1930   -0.3438    1.1031 H       1  LIG1        0.0807
      8 H           1.5635    1.8891   -0.3104 H       1  LIG1        0.0651
      9 N          -1.2658    1.9548   -1.0008 N.pl3   1  LIG1       -0.3563
     10 H          -0.7465    2.4126   -1.7412 H       1  LIG1        0.1424
     11 H          -2.1168    1.5500   -1.3787 H       1  LIG1        0.1424
     12 C          -2.2837   -0.7801    0.1720 C.ar    1  LIG1        0.0670
     13 C          -3.5411   -0.1811    0.2050 C.ar    1  LIG1       -0.0135
     14 C          -4.5198   -1.2092    0.1246 C.ar    1  LIG1        0.0523
     15 C          -3.8506   -2.4282    0.0422 C.ar    1  LIG1        0.0843
     16 N          -2.4868   -2.1385    0.0714 N.ar    1  LIG1       -0.3504
     17 H          -1.7555   -2.8288    0.0248 H       1  LIG1        0.1660
     18 H          -3.7240    0.8747    0.3491 H       1  LIG1        0.0658
     19 N          -5.9130   -1.0404    0.1753 N.pl3   1  LIG1       -0.3563
     20 H          -6.2156   -0.1842   -0.2749 H       1  LIG1        0.1424
     21 H          -6.4037   -1.8336   -0.2261 H       1  LIG1        0.1424
     22 C          -4.3700   -3.7677   -0.1011 C.ar    1  LIG1        0.0665
     23 C          -5.5324   -4.3444    0.3949 C.ar    1  LIG1       -0.0142
     24 C          -5.5947   -5.6894   -0.0841 C.ar    1  LIG1        0.0427
     25 C          -4.4747   -5.9026   -0.8605 C.ar    1  LIG1        0.0230
     26 N          -3.7124   -4.7382   -0.8331 N.ar    1  LIG1       -0.3578
     27 H          -3.0165   -4.5189   -1.5283 H       1  LIG1        0.1654
     28 H          -4.1320   -6.7863   -1.3773 H       1  LIG1        0.0826
     29 H          -6.2050   -3.8838    1.1053 H       1  LIG1        0.0658
     30 N          -6.5711   -6.6354    0.2832 N.pl3   1  LIG1       -0.3568
     31 H          -7.4886   -6.2175    0.3862 H       1  LIG1        0.1424
     32 H          -6.6316   -7.4079   -0.3698 H       1  LIG1        0.1424
@<TRIPOS>BOND
     1    10     9    1
     2    27    26    1
     3    11     9    1
     4    28    25    1
     5     9     3    1
     6    25    26   ar
     7    25    24   ar
     8    26    22   ar
     9    32    30    1
    10     3     2   ar
    11     3     4   ar
    12     8     2    1
    13    20    19    1
    14    21    19    1
    15    22    15    1
    16    22    23   ar
    17    24    30    1
    18    24    23   ar
    19     2     1   ar
    20    17    16    1
    21    15    16   ar
    22    15    14   ar
    23    16    12   ar
    24    14    19    1
    25    14    13   ar
    26    12    13   ar
    27    12     4    1
    28    13    18    1
    29     4     5   ar
    30    30    31    1
    31    23    29    1
    32     1     5   ar
    33     1     7    1
    34     5     6    1
