@<TRIPOS>MOLECULE
mol_data/opt/b3lyp/geoms/mol2/13ah13ah13ah13ah.out
 42 45 0 0 0
SMALL
GASTEIGER

@<TRIPOS>ATOM
      1 C           1.0244    0.3792    1.2619 C.ar    1  LIG1        0.0040
      2 C           0.8478    1.3009    0.2532 C.ar    1  LIG1       -0.0230
      3 C          -0.4452    1.0818   -0.3077 C.ar    1  LIG1        0.0516
      4 C          -1.0265    0.0198    0.3785 C.ar    1  LIG1        0.0839
      5 N          -0.0920   -0.4165    1.3203 N.ar    1  LIG1       -0.3580
      6 H          -0.3387   -0.9780    2.1203 H       1  LIG1        0.1654
      7 H           1.8540    0.2293    1.9364 H       1  LIG1        0.0807
      8 H           1.5656    2.0454   -0.0627 H       1  LIG1        0.0651
      9 N          -1.0372    1.8145   -1.3493 N.pl3   1  LIG1       -0.3563
     10 H          -0.3623    2.1235   -2.0395 H       1  LIG1        0.1424
     11 H          -1.7791    1.2918   -1.8046 H       1  LIG1        0.1424
     12 C          -2.3024   -0.6260    0.1793 C.ar    1  LIG1        0.0670
     13 C          -3.5321   -0.0990   -0.2093 C.ar    1  LIG1       -0.0135
     14 C          -4.4722   -1.1639   -0.2534 C.ar    1  LIG1        0.0523
     15 C          -3.8081   -2.3350    0.1074 C.ar    1  LIG1        0.0843
     16 N          -2.4831   -1.9793    0.3623 N.ar    1  LIG1       -0.3504
     17 H          -1.7634   -2.6161    0.6616 H       1  LIG1        0.1660
     18 H          -3.7368    0.9506   -0.3682 H       1  LIG1        0.0658
     19 N          -5.8396   -1.0576   -0.5530 N.pl3   1  LIG1       -0.3563
     20 H          -6.0323   -0.3322   -1.2339 H       1  LIG1        0.1424
     21 H          -6.2285   -1.9407   -0.8686 H       1  LIG1        0.1424
     22 C          -4.2986   -3.6894    0.1819 C.ar    1  LIG1        0.0670
     23 C          -5.5552   -4.1728    0.5433 C.ar    1  LIG1       -0.0135
     24 C          -5.5258   -5.5906    0.4489 C.ar    1  LIG1        0.0523
     25 C          -4.2508   -5.9630    0.0289 C.ar    1  LIG1        0.0843
     26 N          -3.5211   -4.7845   -0.1279 N.ar    1  LIG1       -0.3504
     27 H          -2.5654   -4.7492   -0.4418 H       1  LIG1        0.1660
     28 H          -6.3710   -3.5669    0.9122 H       1  LIG1        0.0658
     29 N          -6.5707   -6.4703    0.7743 N.pl3   1  LIG1       -0.3563
     30 H          -7.4825   -6.0864    0.5541 H       1  LIG1        0.1424
     31 H          -6.4577   -7.3733    0.3238 H       1  LIG1        0.1424
     32 C          -3.7123   -7.2700   -0.2634 C.ar    1  LIG1        0.0665
     33 C          -3.9765   -8.5056    0.3139 C.ar    1  LIG1       -0.0142
     34 C          -3.2108   -9.4899   -0.3844 C.ar    1  LIG1        0.0427
     35 C          -2.5004   -8.8365   -1.3697 C.ar    1  LIG1        0.0230
     36 N          -2.7802   -7.4769   -1.2634 N.ar    1  LIG1       -0.3578
     37 H          -2.6409   -6.8268   -2.0209 H       1  LIG1        0.1654
     38 H          -1.7883   -9.2086   -2.0907 H       1  LIG1        0.0826
     39 H          -4.5708   -8.6662    1.2028 H       1  LIG1        0.0658
     40 N          -3.1267  -10.8504   -0.0316 N.pl3   1  LIG1       -0.3568
     41 H          -4.0108  -11.2133    0.3059 H       1  LIG1        0.1424
     42 H          -2.8004  -11.4324   -0.7942 H       1  LIG1        0.1424
@<TRIPOS>BOND
     1    38    35    1
     2    10     9    1
     3    37    36    1
     4    11     9    1
     5    35    36   ar
     6    35    34   ar
     7     9     3    1
     8    36    32   ar
     9    20    19    1
    10    21    19    1
    11    42    40    1
    12    19    14    1
    13    27    26    1
    14    34    40    1
    15    34    33   ar
    16    18    13    1
    17     3     2   ar
    18     3     4   ar
    19    32    25    1
    20    32    33   ar
    21    14    13   ar
    22    14    15   ar
    23    13    12   ar
    24    26    25   ar
    25    26    22   ar
    26     8     2    1
    27    40    41    1
    28    25    24   ar
    29    15    22    1
    30    15    16   ar
    31    12    16   ar
    32    12     4    1
    33    22    23   ar
    34     2     1   ar
    35    33    39    1
    36    31    29    1
    37    16    17    1
    38     4     5   ar
    39    24    23   ar
    40    24    29    1
    41    23    28    1
    42    30    29    1
    43     1     5   ar
    44     1     7    1
    45     5     6    1
