@<TRIPOS>MOLECULE
mol_data/opt/b3lyp/geoms/mol2/13ah13ah.out
 22 23 0 0 0
SMALL
GASTEIGER

@<TRIPOS>ATOM
      1 C           1.2398   -0.2736    0.3158 C.ar    1  LIG1        0.0040
      2 C           0.8417    1.0015   -0.0242 C.ar    1  LIG1       -0.0230
      3 C          -0.5765    0.9829   -0.1751 C.ar    1  LIG1        0.0516
      4 C          -1.0083   -0.3154    0.0769 C.ar    1  LIG1        0.0838
      5 N           0.1282   -1.0761    0.3508 N.ar    1  LIG1       -0.3580
      6 H           0.0911   -1.9805    0.7935 H       1  LIG1        0.1654
      7 H           2.2216   -0.6667    0.5331 H       1  LIG1        0.0807
      8 H           1.4897    1.8562   -0.1613 H       1  LIG1        0.0651
      9 N          -1.3964    2.0786   -0.4955 N.pl3   1  LIG1       -0.3563
     10 H          -0.9556    2.7116   -1.1534 H       1  LIG1        0.1424
     11 H          -2.2953    1.7785   -0.8607 H       1  LIG1        0.1424
     12 C          -2.3355   -0.8846    0.0191 C.ar    1  LIG1        0.0665
     13 C          -3.5737   -0.3283    0.3138 C.ar    1  LIG1       -0.0142
     14 C          -4.5730   -1.3120    0.0388 C.ar    1  LIG1        0.0427
     15 C          -3.9247   -2.4416   -0.4166 C.ar    1  LIG1        0.0230
     16 N          -2.5581   -2.1839   -0.3896 N.ar    1  LIG1       -0.3578
     17 H          -1.8778   -2.7190   -0.9055 H       1  LIG1        0.1654
     18 H          -4.3091   -3.4086   -0.7040 H       1  LIG1        0.0826
     19 H          -3.7331    0.6393    0.7695 H       1  LIG1        0.0658
     20 N          -5.9487   -1.1657    0.3037 N.pl3   1  LIG1       -0.3568
     21 H          -6.2735   -0.2228    0.1229 H       1  LIG1        0.1424
     22 H          -6.5184   -1.8166   -0.2242 H       1  LIG1        0.1424
@<TRIPOS>BOND
     1    10     9    1
     2    17    16    1
     3    11     9    1
     4    18    15    1
     5     9     3    1
     6    15    16   ar
     7    15    14   ar
     8    16    12   ar
     9    22    20    1
    10     3     2   ar
    11     3     4   ar
    12     8     2    1
    13     2     1   ar
    14    12     4    1
    15    12    13   ar
    16    14    20    1
    17    14    13   ar
    18     4     5   ar
    19    21    20    1
    20    13    19    1
    21     1     5   ar
    22     1     7    1
    23     5     6    1
