@<TRIPOS>MOLECULE
mol_data/opt/b3lyp/geoms/mol2/13ai13ai13ai-13ai-.out
 46 49 0 0 0
SMALL
GASTEIGER

@<TRIPOS>ATOM
      1 C           1.1658   -0.2287   -1.2099 C.ar    1  LIG1        0.0025
      2 C           0.9983    0.9381   -0.4997 C.ar    1  LIG1       -0.0409
      3 C          -0.3457    0.9809   -0.0225 C.ar    1  LIG1       -0.0238
      4 C          -0.9688   -0.1814   -0.4655 C.ar    1  LIG1        0.0658
      5 N          -0.0237   -0.9158   -1.1699 N.ar    1  LIG1       -0.3593
      6 H          -0.2478   -1.7108   -1.7470 H       1  LIG1        0.1654
      7 H           2.0253   -0.6275   -1.7279 H       1  LIG1        0.0807
      8 H           1.7618    1.6823   -0.3173 H       1  LIG1        0.0635
      9 C          -0.9568    2.0557    0.8276 C.3     1  LIG1       -0.0377
     10 H          -1.8276    1.6799    1.3729 H       1  LIG1        0.0278
     11 H          -1.2909    2.9142    0.2306 H       1  LIG1        0.0278
     12 H          -0.2365    2.4364    1.5595 H       1  LIG1        0.0278
     13 C          -2.3146   -0.6837   -0.2698 C.ar    1  LIG1        0.0639
     14 C          -3.5447   -0.0428   -0.2247 C.ar    1  LIG1       -0.0314
     15 C          -4.5589   -1.0170   -0.0202 C.ar    1  LIG1       -0.0231
     16 C          -3.9248   -2.2584    0.0522 C.ar    1  LIG1        0.0663
     17 N          -2.5701   -2.0326   -0.1141 N.ar    1  LIG1       -0.3517
     18 H          -1.8636   -2.7420   -0.0001 H       1  LIG1        0.1660
     19 H          -3.6998    1.0183   -0.3600 H       1  LIG1        0.0642
     20 C          -6.0308   -0.7424    0.0990 C.3     1  LIG1       -0.0376
     21 H          -6.5125   -1.4229    0.8095 H       1  LIG1        0.0278
     22 H          -6.5587   -0.8367   -0.8609 H       1  LIG1        0.0278
     23 H          -6.2052    0.2783    0.4525 H       1  LIG1        0.0278
     24 C          -4.4242   -3.5964    0.2772 C.ar    1  LIG1        0.0639
     25 C          -3.7954   -4.7296    0.7765 C.ar    1  LIG1       -0.0314
     26 C          -4.7208   -5.8100    0.7624 C.ar    1  LIG1       -0.0231
     27 C          -5.9144   -5.3138    0.2487 C.ar    1  LIG1        0.0663
     28 N          -5.7243   -3.9637   -0.0167 N.ar    1  LIG1       -0.3517
     29 H          -6.3337   -3.4233   -0.6100 H       1  LIG1        0.1660
     30 H          -2.7898   -4.7684    1.1756 H       1  LIG1        0.0642
     31 C          -4.4712   -7.2032    1.2594 C.3     1  LIG1       -0.0376
     32 H          -3.8354   -7.1964    2.1513 H       1  LIG1        0.0278
     33 H          -3.9646   -7.8234    0.5087 H       1  LIG1        0.0278
     34 H          -5.4098   -7.7035    1.5148 H       1  LIG1        0.0278
     35 C          -7.2013   -5.9423    0.0279 C.ar    1  LIG1        0.0634
     36 C          -7.5495   -7.2216   -0.3777 C.ar    1  LIG1       -0.0321
     37 C          -8.9737   -7.3053   -0.4336 C.ar    1  LIG1       -0.0325
     38 C          -9.4569   -6.0684   -0.0618 C.ar    1  LIG1        0.0051
     39 N          -8.3845   -5.2412    0.1951 N.ar    1  LIG1       -0.3593
     40 H          -8.4452   -4.3488    0.6591 H       1  LIG1        0.1654
     41 H         -10.4727   -5.7116    0.0280 H       1  LIG1        0.0809
     42 H          -6.8505   -7.9988   -0.6532 H       1  LIG1        0.0642
     43 C          -9.7900   -8.4965   -0.8428 C.3     1  LIG1       -0.0383
     44 H          -9.5825   -9.3655   -0.2073 H       1  LIG1        0.0278
     45 H          -9.5801   -8.7981   -1.8760 H       1  LIG1        0.0278
     46 H         -10.8613   -8.2851   -0.7732 H       1  LIG1        0.0278
@<TRIPOS>BOND
     1    45    43    1
     2     6     5    1
     3     7     1    1
     4     1     5   ar
     5     1     2   ar
     6     5     4   ar
     7    22    20    1
     8    43    46    1
     9    43    37    1
    10    43    44    1
    11    42    36    1
    12    29    28    1
    13     2     8    1
    14     2     3   ar
    15     4    13    1
    16     4     3   ar
    17    37    36   ar
    18    37    38   ar
    19    36    35   ar
    20    19    14    1
    21    13    14   ar
    22    13    17   ar
    23    14    15   ar
    24    17    18    1
    25    17    16   ar
    26    38    41    1
    27    38    39   ar
    28     3     9    1
    29    15    16   ar
    30    15    20    1
    31    28    27   ar
    32    28    24   ar
    33    35    39   ar
    34    35    27    1
    35    16    24    1
    36    20    23    1
    37    20    21    1
    38    39    40    1
    39    11     9    1
    40    27    26   ar
    41    24    25   ar
    42    33    31    1
    43    26    25   ar
    44    26    31    1
    45    25    30    1
    46     9    10    1
    47     9    12    1
    48    31    34    1
    49    31    32    1
