@<TRIPOS>MOLECULE
mol_data/opt/b3lyp/geoms/mol2/13ai13ai-13ai13ai-.out
 46 49 0 0 0
SMALL
GASTEIGER

@<TRIPOS>ATOM
      1 C           1.2574   -0.3388   -0.9128 C.ar    1  LIG1        0.0025
      2 C           0.9681    0.9592   -0.5528 C.ar    1  LIG1       -0.0409
      3 C          -0.3977    1.0146   -0.1499 C.ar    1  LIG1       -0.0238
      4 C          -0.9106   -0.2761   -0.2810 C.ar    1  LIG1        0.0658
      5 N           0.1164   -1.0798   -0.7404 N.ar    1  LIG1       -0.3593
      6 H           0.0000   -2.0485   -0.9898 H       1  LIG1        0.1654
      7 H           2.1707   -0.7899   -1.2706 H       1  LIG1        0.0807
      8 H           1.6623    1.7885   -0.5602 H       1  LIG1        0.0635
      9 C          -1.1230    2.2314    0.3509 C.3     1  LIG1       -0.0377
     10 H          -1.8675    1.9750    1.1121 H       1  LIG1        0.0278
     11 H          -1.6433    2.7743   -0.4514 H       1  LIG1        0.0278
     12 H          -0.4229    2.9403    0.8036 H       1  LIG1        0.0278
     13 C          -2.2155   -0.8393   -0.0063 C.ar    1  LIG1        0.0639
     14 C          -2.5951   -2.1336    0.3286 C.ar    1  LIG1       -0.0314
     15 C          -4.0085   -2.1719    0.4676 C.ar    1  LIG1       -0.0231
     16 C          -4.4761   -0.8820    0.2122 C.ar    1  LIG1        0.0663
     17 N          -3.3734   -0.0935   -0.0617 N.ar    1  LIG1       -0.3517
     18 H          -3.4313    0.8458   -0.4202 H       1  LIG1        0.1660
     19 H          -1.9201   -2.9582    0.5175 H       1  LIG1        0.0642
     20 C          -4.8239   -3.3684    0.8675 C.3     1  LIG1       -0.0376
     21 H          -4.2268   -4.0622    1.4672 H       1  LIG1        0.0278
     22 H          -5.1907   -3.9376    0.0014 H       1  LIG1        0.0278
     23 H          -5.6943   -3.0820    1.4670 H       1  LIG1        0.0278
     24 C          -5.8018   -0.3062    0.2241 C.ar    1  LIG1        0.0639
     25 C          -6.2211    1.0027    0.4328 C.ar    1  LIG1       -0.0314
     26 C          -7.6363    1.0504    0.3160 C.ar    1  LIG1       -0.0231
     27 C          -8.0646   -0.2465    0.0319 C.ar    1  LIG1        0.0663
     28 N          -6.9399   -1.0497   -0.0080 N.ar    1  LIG1       -0.3517
     29 H          -6.9455   -2.0022   -0.3348 H       1  LIG1        0.1660
     30 H          -5.5813    1.8318    0.7051 H       1  LIG1        0.0642
     31 C          -8.4961    2.2656    0.5182 C.3     1  LIG1       -0.0376
     32 H          -9.4699    2.0049    0.9457 H       1  LIG1        0.0278
     33 H          -8.6794    2.8138   -0.4170 H       1  LIG1        0.0278
     34 H          -8.0165    2.9709    1.2039 H       1  LIG1        0.0278
     35 C          -9.3783   -0.8202   -0.1717 C.ar    1  LIG1        0.0634
     36 C          -9.8443   -2.1127    0.0345 C.ar    1  LIG1       -0.0321
     37 C         -11.2165   -2.1635   -0.3506 C.ar    1  LIG1       -0.0325
     38 C         -11.5512   -0.8961   -0.7820 C.ar    1  LIG1        0.0051
     39 N         -10.4415   -0.0900   -0.6642 N.ar    1  LIG1       -0.3593
     40 H         -10.3739    0.8592   -0.9918 H       1  LIG1        0.1654
     41 H         -12.4886   -0.5069   -1.1519 H       1  LIG1        0.0809
     42 H          -9.2716   -2.9238    0.4647 H       1  LIG1        0.0642
     43 C         -12.1299   -3.3525   -0.2814 C.3     1  LIG1       -0.0383
     44 H         -12.2343   -3.7255    0.7445 H       1  LIG1        0.0278
     45 H         -11.7574   -4.1861   -0.8887 H       1  LIG1        0.0278
     46 H         -13.1317   -3.1033   -0.6438 H       1  LIG1        0.0278
@<TRIPOS>BOND
     1     7     1    1
     2    41    38    1
     3    40    39    1
     4     6     5    1
     5     1     5   ar
     6     1     2   ar
     7    45    43    1
     8    38    39   ar
     9    38    37   ar
    10     5     4   ar
    11    39    35   ar
    12    46    43    1
    13     8     2    1
    14     2     3   ar
    15    11     9    1
    16    18    17    1
    17    33    31    1
    18    37    43    1
    19    37    36   ar
    20    29    28    1
    21    43    44    1
    22     4     3   ar
    23     4    13    1
    24    35    27    1
    25    35    36   ar
    26     3     9    1
    27    17    13   ar
    28    17    16   ar
    29    28    27   ar
    30    28    24   ar
    31    13    14   ar
    32    22    20    1
    33    27    26   ar
    34    36    42    1
    35    16    24    1
    36    16    15   ar
    37    24    25   ar
    38    26    25   ar
    39    26    31    1
    40    14    15   ar
    41    14    19    1
    42     9    12    1
    43     9    10    1
    44    25    30    1
    45    15    20    1
    46    31    32    1
    47    31    34    1
    48    20    23    1
    49    20    21    1
