@<TRIPOS>MOLECULE
mol_data/opt/b3lyp/geoms/mol2/13ai13ai-13ai.out
 35 37 0 0 0
SMALL
GASTEIGER

@<TRIPOS>ATOM
      1 C           1.2588   -0.3307   -0.5796 C.ar    1  LIG1        0.0025
      2 C           0.9297    0.9599   -0.2273 C.ar    1  LIG1       -0.0409
      3 C          -0.4671    1.0017    0.0523 C.ar    1  LIG1       -0.0238
      4 C          -0.9575   -0.2894   -0.1436 C.ar    1  LIG1        0.0658
      5 N           0.1118   -1.0803   -0.5215 N.ar    1  LIG1       -0.3593
      6 H           0.0246   -2.0458   -0.7942 H       1  LIG1        0.1654
      7 H           2.2034   -0.7712   -0.8610 H       1  LIG1        0.0807
      8 H           1.6161    1.7931   -0.1601 H       1  LIG1        0.0635
      9 C          -1.2429    2.2068    0.5035 C.3     1  LIG1       -0.0377
     10 H          -2.0537    1.9342    1.1873 H       1  LIG1        0.0278
     11 H          -1.6890    2.7609   -0.3348 H       1  LIG1        0.0278
     12 H          -0.5923    2.9108    1.0314 H       1  LIG1        0.0278
     13 C          -2.2782   -0.8641    0.0045 C.ar    1  LIG1        0.0639
     14 C          -2.6769   -2.1634    0.2940 C.ar    1  LIG1       -0.0314
     15 C          -4.0975   -2.2118    0.3018 C.ar    1  LIG1       -0.0231
     16 C          -4.5487   -0.9243    0.0124 C.ar    1  LIG1        0.0663
     17 N          -3.4318   -0.1267   -0.1536 N.ar    1  LIG1       -0.3517
     18 H          -3.4651    0.8163   -0.5055 H       1  LIG1        0.1660
     19 H          -2.0156   -2.9844    0.5387 H       1  LIG1        0.0642
     20 C          -4.9364   -3.4170    0.6194 C.3     1  LIG1       -0.0376
     21 H          -4.4069   -4.0906    1.3004 H       1  LIG1        0.0278
     22 H          -5.1841   -4.0067   -0.2747 H       1  LIG1        0.0278
     23 H          -5.8780   -3.1372    1.1032 H       1  LIG1        0.0278
     24 C          -5.8757   -0.3538   -0.0955 C.ar    1  LIG1        0.0634
     25 C          -6.3247    0.9432    0.1187 C.ar    1  LIG1       -0.0321
     26 C          -7.7237    0.9865   -0.1550 C.ar    1  LIG1       -0.0325
     27 C          -8.0911   -0.2901   -0.5290 C.ar    1  LIG1        0.0051
     28 N          -6.9746   -1.0942   -0.4834 N.ar    1  LIG1       -0.3593
     29 H          -6.9323   -2.0502   -0.7949 H       1  LIG1        0.1654
     30 H          -9.0550   -0.6865   -0.8128 H       1  LIG1        0.0809
     31 H          -5.7199    1.7634    0.4825 H       1  LIG1        0.0642
     32 C          -8.6292    2.1779   -0.0396 C.3     1  LIG1       -0.0383
     33 H          -9.6552    1.9240   -0.3225 H       1  LIG1        0.0278
     34 H          -8.3021    2.9997   -0.6878 H       1  LIG1        0.0278
     35 H          -8.6572    2.5697    0.9843 H       1  LIG1        0.0278
@<TRIPOS>BOND
     1     7     1    1
     2    30    27    1
     3    29    28    1
     4     6     5    1
     5    34    32    1
     6     1     5   ar
     7     1     2   ar
     8    27    28   ar
     9    27    26   ar
    10     5     4   ar
    11    18    17    1
    12    28    24   ar
    13    11     9    1
    14    33    32    1
    15    22    20    1
    16     2     8    1
    17     2     3   ar
    18    26    32    1
    19    26    25   ar
    20    17    13   ar
    21    17    16   ar
    22     4    13    1
    23     4     3   ar
    24    24    16    1
    25    24    25   ar
    26    32    35    1
    27    13    14   ar
    28    16    15   ar
    29     3     9    1
    30    25    31    1
    31    14    15   ar
    32    14    19    1
    33    15    20    1
    34     9    12    1
    35     9    10    1
    36    20    23    1
    37    20    21    1
