@<TRIPOS>MOLECULE
mol_data/opt/b3lyp/geoms/mol2/13ai13ai13ai13ai-.out
 46 49 0 0 0
SMALL
GASTEIGER

@<TRIPOS>ATOM
      1 C           0.8049    0.2760   -1.7698 C.ar    1  LIG1        0.0025
      2 C           0.8325    1.1181   -0.6820 C.ar    1  LIG1       -0.0409
      3 C          -0.3727    0.9295    0.0590 C.ar    1  LIG1       -0.0238
      4 C          -1.1125   -0.0376   -0.6122 C.ar    1  LIG1        0.0658
      5 N          -0.3669   -0.4407   -1.7132 N.ar    1  LIG1       -0.3593
      6 H          -0.7407   -0.9883   -2.4719 H       1  LIG1        0.1654
      7 H           1.5170    0.1220   -2.5668 H       1  LIG1        0.0807
      8 H           1.6396    1.7902   -0.4233 H       1  LIG1        0.0635
      9 C          -0.7493    1.6145    1.3397 C.3     1  LIG1       -0.0377
     10 H          -1.5268    1.0573    1.8703 H       1  LIG1        0.0278
     11 H          -1.1338    2.6280    1.1667 H       1  LIG1        0.0278
     12 H           0.1147    1.7103    2.0062 H       1  LIG1        0.0278
     13 C          -2.3985   -0.6413   -0.3155 C.ar    1  LIG1        0.0639
     14 C          -3.5826   -0.1059    0.1701 C.ar    1  LIG1       -0.0314
     15 C          -4.5506   -1.1434    0.2620 C.ar    1  LIG1       -0.0231
     16 C          -3.9378   -2.3135   -0.1800 C.ar    1  LIG1        0.0663
     17 N          -2.6343   -1.9876   -0.5251 N.ar    1  LIG1       -0.3517
     18 H          -1.9482   -2.6415   -0.8664 H       1  LIG1        0.1660
     19 H          -3.7401    0.9365    0.4098 H       1  LIG1        0.0642
     20 C          -5.9615   -1.0053    0.7526 C.3     1  LIG1       -0.0376
     21 H          -6.3468   -1.9613    1.1195 H       1  LIG1        0.0278
     22 H          -6.6423   -0.6609   -0.0367 H       1  LIG1        0.0278
     23 H          -6.0233   -0.2779    1.5686 H       1  LIG1        0.0278
     24 C          -4.4301   -3.6729   -0.2779 C.ar    1  LIG1        0.0639
     25 C          -5.6720   -4.1810   -0.6320 C.ar    1  LIG1       -0.0314
     26 C          -5.6180   -5.6002   -0.5739 C.ar    1  LIG1       -0.0231
     27 C          -4.3230   -5.9441   -0.1860 C.ar    1  LIG1        0.0663
     28 N          -3.6188   -4.7641   -0.0266 N.ar    1  LIG1       -0.3517
     29 H          -2.6935   -4.7166    0.3699 H       1  LIG1        0.1660
     30 H          -6.5238   -3.5890   -0.9359 H       1  LIG1        0.0642
     31 C          -6.7550   -6.5361   -0.8708 C.3     1  LIG1       -0.0376
     32 H          -6.7242   -7.4263   -0.2332 H       1  LIG1        0.0278
     33 H          -6.7628   -6.8756   -1.9165 H       1  LIG1        0.0278
     34 H          -7.7159   -6.0429   -0.6962 H       1  LIG1        0.0278
     35 C          -3.6880   -7.2196    0.0762 C.ar    1  LIG1        0.0634
     36 C          -2.6165   -7.5492    0.8969 C.ar    1  LIG1       -0.0321
     37 C          -2.3723   -8.9492    0.7801 C.ar    1  LIG1       -0.0325
     38 C          -3.3065   -9.4378   -0.1107 C.ar    1  LIG1        0.0051
     39 N          -4.0999   -8.3924   -0.5247 N.ar    1  LIG1       -0.3593
     40 H          -4.8083   -8.4458   -1.2375 H       1  LIG1        0.1654
     41 H          -3.4718  -10.4426   -0.4708 H       1  LIG1        0.0809
     42 H          -2.0924   -6.8663    1.5530 H       1  LIG1        0.0642
     43 C          -1.3230   -9.7455    1.4994 C.3     1  LIG1       -0.0383
     44 H          -1.4487   -9.6941    2.5875 H       1  LIG1        0.0278
     45 H          -0.3132   -9.3812    1.2762 H       1  LIG1        0.0278
     46 H          -1.3627  -10.8010    1.2138 H       1  LIG1        0.0278
@<TRIPOS>BOND
     1     7     1    1
     2     6     5    1
     3    33    31    1
     4     1     5   ar
     5     1     2   ar
     6     5     4   ar
     7    40    39    1
     8    30    25    1
     9    31    34    1
    10    31    26    1
    11    31    32    1
    12    18    17    1
    13     2     8    1
    14     2     3   ar
    15    25    26   ar
    16    25    24   ar
    17     4    13    1
    18     4     3   ar
    19    26    27   ar
    20    17    13   ar
    21    17    16   ar
    22    39    38   ar
    23    39    35   ar
    24    41    38    1
    25    13    14   ar
    26    24    16    1
    27    24    28   ar
    28    27    28   ar
    29    27    35    1
    30    16    15   ar
    31    38    37   ar
    32    22    20    1
    33    28    29    1
    34     3     9    1
    35    35    36   ar
    36    14    15   ar
    37    14    19    1
    38    15    20    1
    39    20    21    1
    40    20    23    1
    41    37    36   ar
    42    37    43    1
    43    36    42    1
    44    11     9    1
    45    46    43    1
    46    45    43    1
    47     9    10    1
    48     9    12    1
    49    43    44    1
