@<TRIPOS>MOLECULE
mol_data/opt/b3lyp/geoms/mol2/13ai13ai13ai.out
 35 37 0 0 0
SMALL
GASTEIGER

@<TRIPOS>ATOM
      1 C           1.2066   -0.1819   -0.8878 C.ar    1  LIG1        0.0025
      2 C           0.9460    0.9654   -0.1743 C.ar    1  LIG1       -0.0409
      3 C          -0.4357    0.9635    0.1843 C.ar    1  LIG1       -0.0238
      4 C          -0.9855   -0.2046   -0.3320 C.ar    1  LIG1        0.0658
      5 N           0.0375   -0.9012   -0.9631 N.ar    1  LIG1       -0.3593
      6 H          -0.1163   -1.6825   -1.5806 H       1  LIG1        0.1654
      7 H           2.1182   -0.5472   -1.3367 H       1  LIG1        0.0807
      8 H           1.6701    1.7253    0.0870 H       1  LIG1        0.0635
      9 C          -1.1487    2.0036    0.9974 C.3     1  LIG1       -0.0377
     10 H          -2.0836    1.6100    1.4065 H       1  LIG1        0.0278
     11 H          -1.4003    2.8904    0.4015 H       1  LIG1        0.0278
     12 H          -0.5296    2.3461    1.8338 H       1  LIG1        0.0278
     13 C          -2.3308   -0.7456   -0.2640 C.ar    1  LIG1        0.0639
     14 C          -3.5766   -0.1453   -0.3717 C.ar    1  LIG1       -0.0314
     15 C          -4.5796   -1.1466   -0.2474 C.ar    1  LIG1       -0.0231
     16 C          -3.9228   -2.3610   -0.0692 C.ar    1  LIG1        0.0663
     17 N          -2.5616   -2.0966   -0.0817 N.ar    1  LIG1       -0.3517
     18 H          -1.8417   -2.7913    0.0379 H       1  LIG1        0.1660
     19 H          -3.7440    0.9079   -0.5495 H       1  LIG1        0.0642
     20 C          -6.0640   -0.9330   -0.2900 C.3     1  LIG1       -0.0376
     21 H          -6.5950   -1.7674    0.1771 H       1  LIG1        0.0278
     22 H          -6.4384   -0.8421   -1.3178 H       1  LIG1        0.0278
     23 H          -6.3444   -0.0137    0.2352 H       1  LIG1        0.0278
     24 C          -4.4267   -3.7057    0.1412 C.ar    1  LIG1        0.0634
     25 C          -5.4928   -4.3905   -0.4189 C.ar    1  LIG1       -0.0321
     26 C          -5.5389   -5.6999    0.1498 C.ar    1  LIG1       -0.0325
     27 C          -4.4927   -5.7784    1.0440 C.ar    1  LIG1        0.0051
     28 N          -3.8081   -4.5815    1.0207 N.ar    1  LIG1       -0.3593
     29 H          -3.1369   -4.2949    1.7156 H       1  LIG1        0.1654
     30 H          -4.1770   -6.5908    1.6825 H       1  LIG1        0.0809
     31 H          -6.1402   -4.0046   -1.1940 H       1  LIG1        0.0642
     32 C          -6.5163   -6.7903   -0.1792 C.3     1  LIG1       -0.0383
     33 H          -6.3305   -7.6840    0.4241 H       1  LIG1        0.0278
     34 H          -6.4565   -7.0862   -1.2335 H       1  LIG1        0.0278
     35 H          -7.5498   -6.4752    0.0063 H       1  LIG1        0.0278
@<TRIPOS>BOND
     1     6     5    1
     2     7     1    1
     3    22    20    1
     4    34    32    1
     5    31    25    1
     6     5     1   ar
     7     5     4   ar
     8     1     2   ar
     9    19    14    1
    10    25    24   ar
    11    25    26   ar
    12    14    13   ar
    13    14    15   ar
    14     4    13    1
    15     4     3   ar
    16    20    15    1
    17    20    21    1
    18    20    23    1
    19    13    17   ar
    20    15    16   ar
    21    32    35    1
    22    32    26    1
    23    32    33    1
    24     2     8    1
    25     2     3   ar
    26    17    16   ar
    27    17    18    1
    28    16    24    1
    29    24    28   ar
    30    26    27   ar
    31     3     9    1
    32    11     9    1
    33     9    10    1
    34     9    12    1
    35    28    27   ar
    36    28    29    1
    37    27    30    1
