@<TRIPOS>MOLECULE
mol_data/opt/b3lyp/geoms/mol2/13ai13ai-.out
 24 25 0 0 0
SMALL
GASTEIGER

@<TRIPOS>ATOM
      1 C           1.2288   -0.3119   -0.2935 C.ar    1  LIG1        0.0025
      2 C           0.8640    0.9847   -0.0050 C.ar    1  LIG1       -0.0409
      3 C          -0.5562    1.0305    0.1123 C.ar    1  LIG1       -0.0238
      4 C          -1.0227   -0.2630   -0.1162 C.ar    1  LIG1        0.0658
      5 N           0.0811   -1.0601   -0.3546 N.ar    1  LIG1       -0.3593
      6 H           0.0223   -2.0312   -0.6148 H       1  LIG1        0.1654
      7 H           2.1987   -0.7573   -0.4557 H       1  LIG1        0.0807
      8 H           1.5402    1.8190    0.1255 H       1  LIG1        0.0635
      9 C          -1.3768    2.2420    0.4538 C.3     1  LIG1       -0.0377
     10 H          -2.2981    1.9698    0.9794 H       1  LIG1        0.0278
     11 H          -1.6606    2.8249   -0.4340 H       1  LIG1        0.0278
     12 H          -0.8169    2.9199    1.1058 H       1  LIG1        0.0278
     13 C          -2.3545   -0.8386   -0.1117 C.ar    1  LIG1        0.0634
     14 C          -2.7894   -2.1182    0.2067 C.ar    1  LIG1       -0.0321
     15 C          -4.2021   -2.1745    0.0164 C.ar    1  LIG1       -0.0325
     16 C          -4.5911   -0.9219   -0.4126 C.ar    1  LIG1        0.0051
     17 N          -3.4739   -0.1205   -0.4805 N.ar    1  LIG1       -0.3593
     18 H          -3.4488    0.8160   -0.8485 H       1  LIG1        0.1654
     19 H          -5.5701   -0.5402   -0.6630 H       1  LIG1        0.0809
     20 H          -2.1643   -2.9161    0.5857 H       1  LIG1        0.0642
     21 C          -5.0990   -3.3536    0.2569 C.3     1  LIG1       -0.0383
     22 H          -5.0657   -3.6834    1.3023 H       1  LIG1        0.0278
     23 H          -4.8121   -4.2142   -0.3593 H       1  LIG1        0.0278
     24 H          -6.1401   -3.1131    0.0215 H       1  LIG1        0.0278
@<TRIPOS>BOND
     1    18    17    1
     2    19    16    1
     3     6     5    1
     4    17    16   ar
     5    17    13   ar
     6     7     1    1
     7    11     9    1
     8    16    15   ar
     9    23    21    1
    10     5     1   ar
    11     5     4   ar
    12     1     2   ar
    13     4    13    1
    14     4     3   ar
    15    13    14   ar
    16     2     3   ar
    17     2     8    1
    18    15    14   ar
    19    15    21    1
    20    24    21    1
    21     3     9    1
    22    14    20    1
    23    21    22    1
    24     9    10    1
    25     9    12    1
