@<TRIPOS>MOLECULE
mol_data/opt/b3lyp/geoms/mol2/13ai13ai13ai13ai.out
 46 49 0 0 0
SMALL
GASTEIGER

@<TRIPOS>ATOM
      1 C           0.9106    0.1857   -1.6546 C.ar    1  LIG1        0.0025
      2 C           0.8927    1.0763   -0.6059 C.ar    1  LIG1       -0.0409
      3 C          -0.3494    0.9302    0.0822 C.ar    1  LIG1       -0.0238
      4 C          -1.0642   -0.0614   -0.5804 C.ar    1  LIG1        0.0658
      5 N          -0.2690   -0.5195   -1.6237 N.ar    1  LIG1       -0.3593
      6 H          -0.6108   -1.0961   -2.3762 H       1  LIG1        0.1654
      7 H           1.6593   -0.0092   -2.4078 H       1  LIG1        0.0807
      8 H           1.6922    1.7539   -0.3382 H       1  LIG1        0.0635
      9 C          -0.7826    1.6765    1.3096 C.3     1  LIG1       -0.0377
     10 H          -1.5935    1.1522    1.8234 H       1  LIG1        0.0278
     11 H          -1.1448    2.6849    1.0714 H       1  LIG1        0.0278
     12 H           0.0471    1.7937    2.0152 H       1  LIG1        0.0278
     13 C          -2.3692   -0.6415   -0.3212 C.ar    1  LIG1        0.0639
     14 C          -3.5717   -0.0756    0.0760 C.ar    1  LIG1       -0.0314
     15 C          -4.5535   -1.1011    0.1636 C.ar    1  LIG1       -0.0231
     16 C          -3.9300   -2.2945   -0.1911 C.ar    1  LIG1        0.0663
     17 N          -2.6063   -1.9947   -0.4791 N.ar    1  LIG1       -0.3517
     18 H          -1.9131   -2.6665   -0.7674 H       1  LIG1        0.1660
     19 H          -3.7309    0.9779    0.2589 H       1  LIG1        0.0642
     20 C          -5.9873   -0.9307    0.5712 C.3     1  LIG1       -0.0376
     21 H          -6.4173   -1.8795    0.9051 H       1  LIG1        0.0278
     22 H          -6.6097   -0.5632   -0.2548 H       1  LIG1        0.0278
     23 H          -6.0810   -0.2079    1.3887 H       1  LIG1        0.0278
     24 C          -4.4299   -3.6546   -0.2562 C.ar    1  LIG1        0.0639
     25 C          -5.6367   -4.1733   -0.7028 C.ar    1  LIG1       -0.0314
     26 C          -5.6064   -5.5886   -0.5648 C.ar    1  LIG1       -0.0231
     27 C          -4.3631   -5.9197   -0.0335 C.ar    1  LIG1        0.0663
     28 N          -3.6645   -4.7349    0.1452 N.ar    1  LIG1       -0.3517
     29 H          -2.7420   -4.6724    0.5454 H       1  LIG1        0.1660
     30 H          -6.4477   -3.5892   -1.1148 H       1  LIG1        0.0642
     31 C          -6.7095   -6.5428   -0.9162 C.3     1  LIG1       -0.0376
     32 H          -6.5868   -7.4959   -0.3937 H       1  LIG1        0.0278
     33 H          -6.7390   -6.7616   -1.9915 H       1  LIG1        0.0278
     34 H          -7.6873   -6.1296   -0.6468 H       1  LIG1        0.0278
     35 C          -3.7891   -7.1982    0.3438 C.ar    1  LIG1        0.0634
     36 C          -3.8438   -8.4458   -0.2560 C.ar    1  LIG1       -0.0321
     37 C          -3.0954   -9.3646    0.5412 C.ar    1  LIG1       -0.0325
     38 C          -2.6007   -8.6473    1.6095 C.ar    1  LIG1        0.0051
     39 N          -3.0010   -7.3344    1.4766 N.ar    1  LIG1       -0.3593
     40 H          -2.9567   -6.6485    2.2136 H       1  LIG1        0.1654
     41 H          -1.9898   -8.9640    2.4425 H       1  LIG1        0.0809
     42 H          -4.3309   -8.6612   -1.1968 H       1  LIG1        0.0642
     43 C          -2.8659  -10.8210    0.2601 C.3     1  LIG1       -0.0383
     44 H          -2.2780  -11.2900    1.0548 H       1  LIG1        0.0278
     45 H          -2.3266  -10.9738   -0.6825 H       1  LIG1        0.0278
     46 H          -3.8115  -11.3700    0.1803 H       1  LIG1        0.0278
@<TRIPOS>BOND
     1     7     1    1
     2     6     5    1
     3    33    31    1
     4     1     5   ar
     5     1     2   ar
     6     5     4   ar
     7    42    36    1
     8    30    25    1
     9    31    34    1
    10    31    26    1
    11    31    32    1
    12    18    17    1
    13    25    26   ar
    14    25    24   ar
    15    45    43    1
    16     2     8    1
    17     2     3   ar
    18     4    13    1
    19     4     3   ar
    20    26    27   ar
    21    17    13   ar
    22    17    16   ar
    23    13    14   ar
    24    24    16    1
    25    24    28   ar
    26    36    35   ar
    27    36    37   ar
    28    22    20    1
    29    16    15   ar
    30    27    28   ar
    31    27    35    1
    32    14    15   ar
    33    14    19    1
    34     3     9    1
    35    28    29    1
    36    15    20    1
    37    46    43    1
    38    43    37    1
    39    43    44    1
    40    35    39   ar
    41    37    38   ar
    42    20    21    1
    43    20    23    1
    44    11     9    1
    45     9    10    1
    46     9    12    1
    47    39    38   ar
    48    39    40    1
    49    38    41    1
