@<TRIPOS>MOLECULE
mol_data/opt/b3lyp/geoms/mol2/13ai13ai-13ai-13ai-.out
 46 49 0 0 0
SMALL
GASTEIGER

@<TRIPOS>ATOM
      1 C           1.3172   -0.4577   -0.7901 C.ar    1  LIG1        0.0025
      2 C           1.0096    0.8725   -0.6056 C.ar    1  LIG1       -0.0409
      3 C          -0.3735    0.9665   -0.2753 C.ar    1  LIG1       -0.0238
      4 C          -0.8776   -0.3344   -0.2702 C.ar    1  LIG1        0.0658
      5 N           0.1710   -1.1805   -0.5801 N.ar    1  LIG1       -0.3593
      6 H           0.0671   -2.1730   -0.7153 H       1  LIG1        0.1654
      7 H           2.2467   -0.9421   -1.0487 H       1  LIG1        0.0807
      8 H           1.7021    1.6997   -0.6835 H       1  LIG1        0.0635
      9 C          -1.1234    2.2301    0.0383 C.3     1  LIG1       -0.0377
     10 H          -1.9283    2.0518    0.7591 H       1  LIG1        0.0278
     11 H          -1.5733    2.6878   -0.8544 H       1  LIG1        0.0278
     12 H          -0.4552    2.9812    0.4709 H       1  LIG1        0.0278
     13 C          -2.1933   -0.8700    0.0094 C.ar    1  LIG1        0.0639
     14 C          -2.5868   -2.1113    0.4885 C.ar    1  LIG1       -0.0314
     15 C          -4.0086   -2.1502    0.5434 C.ar    1  LIG1       -0.0231
     16 C          -4.4653   -0.9162    0.0922 C.ar    1  LIG1        0.0663
     17 N          -3.3490   -0.1418   -0.2033 N.ar    1  LIG1       -0.3517
     18 H          -3.3798    0.6793   -0.7873 H       1  LIG1        0.1660
     19 H          -1.9201   -2.8923    0.8307 H       1  LIG1        0.0642
     20 C          -4.8498   -3.2854    1.0471 C.3     1  LIG1       -0.0376
     21 H          -4.3690   -3.7886    1.8927 H       1  LIG1        0.0278
     22 H          -5.0189   -4.0466    0.2744 H       1  LIG1        0.0278
     23 H          -5.8317   -2.9322    1.3751 H       1  LIG1        0.0278
     24 C          -5.8038   -0.3797   -0.0402 C.ar    1  LIG1        0.0639
     25 C          -7.0077   -0.9710   -0.3990 C.ar    1  LIG1       -0.0314
     26 C          -8.0253    0.0222   -0.3893 C.ar    1  LIG1       -0.0231
     27 C          -7.4206    1.2226   -0.0259 C.ar    1  LIG1        0.0663
     28 N          -6.0752    0.9578    0.1811 N.ar    1  LIG1       -0.3517
     29 H          -5.3935    1.6431    0.4647 H       1  LIG1        0.1660
     30 H          -7.1337   -2.0101   -0.6689 H       1  LIG1        0.0642
     31 C          -9.4778   -0.1868   -0.7011 C.3     1  LIG1       -0.0376
     32 H          -9.8303   -1.1459   -0.3069 H       1  LIG1        0.0278
     33 H          -9.6714   -0.1934   -1.7815 H       1  LIG1        0.0278
     34 H         -10.0920    0.6068   -0.2657 H       1  LIG1        0.0278
     35 C          -7.9677    2.5509    0.1763 C.ar    1  LIG1        0.0634
     36 C          -8.9385    3.2629   -0.5097 C.ar    1  LIG1       -0.0321
     37 C          -9.0940    4.5365    0.1176 C.ar    1  LIG1       -0.0325
     38 C          -8.2074    4.5671    1.1728 C.ar    1  LIG1        0.0051
     39 N          -7.5116    3.3767    1.1927 N.ar    1  LIG1       -0.3593
     40 H          -6.9582    3.0537    1.9706 H       1  LIG1        0.1654
     41 H          -8.0101    5.3423    1.8990 H       1  LIG1        0.0809
     42 H          -9.4466    2.9205   -1.4004 H       1  LIG1        0.0642
     43 C         -10.0197    5.6401   -0.3038 C.3     1  LIG1       -0.0383
     44 H         -11.0644    5.3079   -0.3147 H       1  LIG1        0.0278
     45 H          -9.7886    6.0023   -1.3128 H       1  LIG1        0.0278
     46 H          -9.9523    6.4951    0.3757 H       1  LIG1        0.0278
@<TRIPOS>BOND
     1    33    31    1
     2    42    36    1
     3    45    43    1
     4     7     1    1
     5    11     9    1
     6     1     2   ar
     7     1     5   ar
     8    18    17    1
     9     6     5    1
    10    31    26    1
    11    31    32    1
    12    31    34    1
    13     8     2    1
    14    30    25    1
    15     2     3   ar
    16     5     4   ar
    17    36    37   ar
    18    36    35   ar
    19    25    26   ar
    20    25    24   ar
    21    26    27   ar
    22    44    43    1
    23    43    37    1
    24    43    46    1
    25     3     4   ar
    26     3     9    1
    27     4    13    1
    28    17    13   ar
    29    17    16   ar
    30    24    16    1
    31    24    28   ar
    32    27    35    1
    33    27    28   ar
    34    13    14   ar
    35     9    12    1
    36     9    10    1
    37    16    15   ar
    38    37    38   ar
    39    35    39   ar
    40    28    29    1
    41    22    20    1
    42    14    15   ar
    43    14    19    1
    44    15    20    1
    45    20    23    1
    46    20    21    1
    47    38    39   ar
    48    38    41    1
    49    39    40    1
