@<TRIPOS>MOLECULE
mol_data/opt/b3lyp/geoms/mol2/13ai12hf-4fe6ai-.out
 48 51 0 0 0
SMALL
GASTEIGER

@<TRIPOS>ATOM
      1 C           1.2000   -0.0860   -0.5893 C.ar    1  LIG1        0.0025
      2 C           0.8908    1.0829    0.0724 C.ar    1  LIG1       -0.0408
      3 C          -0.5046    1.0775    0.3625 C.ar    1  LIG1       -0.0221
      4 C          -1.0145   -0.1135   -0.1589 C.ar    1  LIG1        0.0870
      5 N           0.0438   -0.8049   -0.7254 N.ar    1  LIG1       -0.3580
      6 H          -0.0542   -1.7020   -1.1724 H       1  LIG1        0.1654
      7 H           2.1404   -0.4596   -0.9664 H       1  LIG1        0.0807
      8 H           1.5917    1.8608    0.3434 H       1  LIG1        0.0635
      9 C          -1.2287    2.1168    1.1714 C.3     1  LIG1       -0.0376
     10 H          -2.3121    1.9824    1.1502 H       1  LIG1        0.0278
     11 H          -1.0049    3.1276    0.8095 H       1  LIG1        0.0278
     12 H          -0.9156    2.0818    2.2223 H       1  LIG1        0.0278
     13 C          -2.3375   -0.6890   -0.1953 C.ar    1  LIG1        0.1762
     14 C          -3.6104   -0.1793   -0.3084 C.ar    1  LIG1        0.1152
     15 C          -4.4910   -1.3021   -0.3658 C.ar    1  LIG1        0.1846
     16 C          -3.7220   -2.4515   -0.3233 C.ar    1  LIG1        0.1824
     17 O          -2.3972   -2.0670   -0.2179 O.2     1  LIG1       -0.4475
     18 N          -4.0458    1.1505   -0.3437 N.pl3   1  LIG1       -0.3521
     19 H          -3.4317    1.7513   -0.8825 H       1  LIG1        0.1425
     20 H          -4.9966    1.2104   -0.6916 H       1  LIG1        0.1425
     21 O          -5.8271   -1.1118   -0.4554 O.3     1  LIG1       -0.5020
     22 H          -6.2380   -1.9728   -0.6572 H       1  LIG1        0.2924
     23 C          -5.1825   -4.4957   -0.6458 C.ar    1  LIG1        0.1283
     24 C          -5.3456   -5.8737   -0.5933 C.ar    1  LIG1       -0.0105
     25 C          -3.9592   -3.8826   -0.2969 C.ar    1  LIG1        0.0635
     26 C          -4.3078   -6.7367   -0.2178 C.ar    1  LIG1        0.0024
     27 H          -6.3002   -6.3012   -0.8929 H       1  LIG1        0.0661
     28 C          -2.9224   -4.7540    0.0813 C.ar    1  LIG1       -0.0314
     29 C          -3.0635   -6.1486    0.1245 C.ar    1  LIG1        0.0333
     30 H          -1.9720   -4.3235    0.3692 H       1  LIG1        0.0638
     31 O          -6.2199   -3.6913   -1.0800 O.3     1  LIG1       -0.5060
     32 H          -6.9880   -4.2373   -1.2921 H       1  LIG1        0.2922
     33 C          -1.9467   -6.9240    0.5706 C.1     1  LIG1       -0.0690
     34 C          -0.9792   -7.5385    0.9593 C.1     1  LIG1       -0.1139
     35 H          -0.1379   -8.0958    1.3007 H       1  LIG1        0.1232
     36 C          -3.6785   -9.1152   -0.7932 C.ar    1  LIG1        0.0353
     37 C          -4.5568   -8.1977   -0.1881 C.ar    1  LIG1        0.0018
     38 C          -5.7085   -8.7229    0.4101 C.ar    1  LIG1       -0.0482
     39 C          -5.9477  -10.1002    0.4023 C.ar    1  LIG1       -0.0318
     40 C          -4.9903  -10.9019   -0.2278 C.ar    1  LIG1        0.0305
     41 N          -3.8837  -10.4327   -0.8172 N.ar    1  LIG1       -0.2624
     42 H          -6.4094   -8.0539    0.9044 H       1  LIG1        0.0627
     43 H          -5.1265  -11.9826   -0.2579 H       1  LIG1        0.0832
     44 H          -2.7792   -8.7584   -1.2873 H       1  LIG1        0.0836
     45 C          -7.1722  -10.6971    1.0499 C.3     1  LIG1       -0.0383
     46 H          -7.1717  -11.7873    0.9665 H       1  LIG1        0.0278
     47 H          -8.0928  -10.3277    0.5837 H       1  LIG1        0.0278
     48 H          -7.2246  -10.4433    2.1144 H       1  LIG1        0.0278
@<TRIPOS>BOND
     1    32    31    1
     2    44    36    1
     3     6     5    1
     4    31    23    1
     5     7     1    1
     6    27    24    1
     7    19    18    1
     8    41    36   ar
     9    41    40   ar
    10    36    37   ar
    11     5     1   ar
    12     5     4   ar
    13    20    18    1
    14    22    21    1
    15    23    24   ar
    16    23    25   ar
    17    24    26   ar
    18     1     2   ar
    19    21    15    1
    20    15    16   ar
    21    15    14   ar
    22    18    14    1
    23    16    25    1
    24    16    17   ar
    25    14    13   ar
    26    25    28   ar
    27    43    40    1
    28    40    39   ar
    29    17    13   ar
    30    26    37    1
    31    26    29   ar
    32    13     4    1
    33    37    38   ar
    34     4     3   ar
    35     2     8    1
    36     2     3   ar
    37    28    29   ar
    38    28    30    1
    39    29    33    1
    40     3     9    1
    41    39    38   ar
    42    39    45    1
    43    38    42    1
    44    33    34    3
    45    47    45    1
    46    11     9    1
    47    34    35    1
    48    46    45    1
    49    45    48    1
    50    10     9    1
    51     9    12    1
