@<TRIPOS>MOLECULE
mol_data/opt/b3lyp/geoms/mol2/13ai13ai.out
 24 25 0 0 0
SMALL
GASTEIGER

@<TRIPOS>ATOM
      1 C           1.2347   -0.3500   -0.4145 C.ar    1  LIG1        0.0025
      2 C           0.8844    0.9490   -0.1247 C.ar    1  LIG1       -0.0409
      3 C          -0.5278    0.9954    0.0781 C.ar    1  LIG1       -0.0238
      4 C          -1.0038   -0.2988   -0.0996 C.ar    1  LIG1        0.0658
      5 N           0.0890   -1.1081   -0.3791 N.ar    1  LIG1       -0.3593
      6 H           0.0117   -2.0550   -0.7143 H       1  LIG1        0.1654
      7 H           2.1941   -0.7948   -0.6333 H       1  LIG1        0.0807
      8 H           1.5666    1.7846   -0.0447 H       1  LIG1        0.0635
      9 C          -1.3381    2.2027    0.4488 C.3     1  LIG1       -0.0377
     10 H          -2.3064    1.9128    0.8666 H       1  LIG1        0.0278
     11 H          -1.5356    2.8479   -0.4170 H       1  LIG1        0.0278
     12 H          -0.8172    2.8163    1.1921 H       1  LIG1        0.0278
     13 C          -2.3411   -0.8565   -0.0012 C.ar    1  LIG1        0.0634
     14 C          -3.5772   -0.3713   -0.3957 C.ar    1  LIG1       -0.0321
     15 C          -4.5720   -1.3385   -0.0561 C.ar    1  LIG1       -0.0325
     16 C          -3.9106   -2.3935    0.5359 C.ar    1  LIG1        0.0051
     17 N          -2.5614   -2.1092    0.5484 N.ar    1  LIG1       -0.3593
     18 H          -1.8732   -2.6120    1.0858 H       1  LIG1        0.1654
     19 H          -4.2905   -3.3224    0.9358 H       1  LIG1        0.0809
     20 H          -3.7408    0.5614   -0.9174 H       1  LIG1        0.0642
     21 C          -6.0469   -1.2429   -0.3168 C.3     1  LIG1       -0.0383
     22 H          -6.5770   -2.1125    0.0833 H       1  LIG1        0.0278
     23 H          -6.2685   -1.1871   -1.3894 H       1  LIG1        0.0278
     24 H          -6.4813   -0.3491    0.1462 H       1  LIG1        0.0278
@<TRIPOS>BOND
     1    23    21    1
     2    20    14    1
     3     6     5    1
     4     7     1    1
     5    11     9    1
     6     1     5   ar
     7     1     2   ar
     8    14    15   ar
     9    14    13   ar
    10     5     4   ar
    11    21    15    1
    12    21    22    1
    13    21    24    1
    14     2     8    1
    15     2     3   ar
    16     4    13    1
    17     4     3   ar
    18    15    16   ar
    19    13    17   ar
    20     3     9    1
    21     9    10    1
    22     9    12    1
    23    16    17   ar
    24    16    19    1
    25    17    18    1
