@<TRIPOS>MOLECULE
mol_data/opt/b3lyp/geoms/mol2/13ai13ai-13ai-13ai.out
 46 49 0 0 0
SMALL
GASTEIGER

@<TRIPOS>ATOM
      1 C           1.3126   -0.5342   -0.7221 C.ar    1  LIG1        0.0025
      2 C           1.0106    0.8062   -0.6221 C.ar    1  LIG1       -0.0409
      3 C          -0.3764    0.9273   -0.3180 C.ar    1  LIG1       -0.0238
      4 C          -0.8885   -0.3682   -0.2424 C.ar    1  LIG1        0.0658
      5 N           0.1590   -1.2370   -0.4862 N.ar    1  LIG1       -0.3593
      6 H           0.0514   -2.2355   -0.5609 H       1  LIG1        0.1654
      7 H           2.2427   -1.0383   -0.9373 H       1  LIG1        0.0807
      8 H           1.7093    1.6236   -0.7390 H       1  LIG1        0.0635
      9 C          -1.1223    2.2115   -0.0904 C.3     1  LIG1       -0.0377
     10 H          -1.9356    2.0825    0.6315 H       1  LIG1        0.0278
     11 H          -1.5603    2.6160   -1.0142 H       1  LIG1        0.0278
     12 H          -0.4543    2.9841    0.3025 H       1  LIG1        0.0278
     13 C          -2.2112   -0.8789    0.0501 C.ar    1  LIG1        0.0639
     14 C          -2.6190   -2.0890    0.5940 C.ar    1  LIG1       -0.0314
     15 C          -4.0409   -2.1150    0.6361 C.ar    1  LIG1       -0.0231
     16 C          -4.4839   -0.9046    0.1110 C.ar    1  LIG1        0.0663
     17 N          -3.3591   -0.1574   -0.2168 N.ar    1  LIG1       -0.3517
     18 H          -3.3783    0.6397   -0.8334 H       1  LIG1        0.1660
     19 H          -1.9619   -2.8542    0.9866 H       1  LIG1        0.0642
     20 C          -4.8956   -3.2139    1.1944 C.3     1  LIG1       -0.0376
     21 H          -4.4073   -3.6984    2.0464 H       1  LIG1        0.0278
     22 H          -5.0982   -3.9971    0.4521 H       1  LIG1        0.0278
     23 H          -5.8624   -2.8283    1.5314 H       1  LIG1        0.0278
     24 C          -5.8158   -0.3678   -0.0657 C.ar    1  LIG1        0.0639
     25 C          -7.0271   -0.9758   -0.3684 C.ar    1  LIG1       -0.0314
     26 C          -8.0338    0.0248   -0.4368 C.ar    1  LIG1       -0.0231
     27 C          -7.4134    1.2477   -0.1789 C.ar    1  LIG1        0.0663
     28 N          -6.0713    0.9868    0.0296 N.ar    1  LIG1       -0.3517
     29 H          -5.4062    1.6773    0.3396 H       1  LIG1        0.1660
     30 H          -7.1667   -2.0313   -0.5548 H       1  LIG1        0.0642
     31 C          -9.4888   -0.2113   -0.7263 C.3     1  LIG1       -0.0376
     32 H          -9.7770   -1.2294   -0.4478 H       1  LIG1        0.0278
     33 H          -9.7331   -0.0972   -1.7923 H       1  LIG1        0.0278
     34 H         -10.1309    0.4750   -0.1635 H       1  LIG1        0.0278
     35 C          -7.9232    2.5997   -0.0796 C.ar    1  LIG1        0.0634
     36 C          -7.4414    3.7039    0.6129 C.ar    1  LIG1       -0.0321
     37 C          -8.3066    4.8086    0.3594 C.ar    1  LIG1       -0.0325
     38 C          -9.2978    4.3461   -0.4822 C.ar    1  LIG1        0.0051
     39 N          -9.0651    3.0137   -0.7364 N.ar    1  LIG1       -0.3593
     40 H          -9.5825    2.4461   -1.3867 H       1  LIG1        0.1654
     41 H         -10.1489    4.8566   -0.9085 H       1  LIG1        0.0809
     42 H          -6.5837    3.7081    1.2731 H       1  LIG1        0.0642
     43 C          -8.1828    6.1980    0.9133 C.3     1  LIG1       -0.0383
     44 H          -8.9868    6.8428    0.5459 H       1  LIG1        0.0278
     45 H          -7.2313    6.6640    0.6309 H       1  LIG1        0.0278
     46 H          -8.2299    6.2047    2.0089 H       1  LIG1        0.0278
@<TRIPOS>BOND
     1    33    31    1
     2    40    39    1
     3    11     9    1
     4     7     1    1
     5    41    38    1
     6    18    17    1
     7     8     2    1
     8    39    38   ar
     9    39    35   ar
    10    31    32    1
    11    31    26    1
    12    31    34    1
    13     1     2   ar
    14     1     5   ar
    15     2     3   ar
    16     6     5    1
    17    30    25    1
    18     5     4   ar
    19    38    37   ar
    20    26    25   ar
    21    26    27   ar
    22    25    24   ar
    23     3     4   ar
    24     3     9    1
    25     4    13    1
    26    17    13   ar
    27    17    16   ar
    28    27    35    1
    29    27    28   ar
    30     9    12    1
    31     9    10    1
    32    35    36   ar
    33    24    28   ar
    34    24    16    1
    35    28    29    1
    36    13    14   ar
    37    16    15   ar
    38    37    36   ar
    39    37    43    1
    40    22    20    1
    41    44    43    1
    42    14    15   ar
    43    14    19    1
    44    36    42    1
    45    45    43    1
    46    15    20    1
    47    43    46    1
    48    20    23    1
    49    20    21    1
