@<TRIPOS>MOLECULE
mol_data/opt/b3lyp/geoms/mol2/13ai13ai-4ai13ai.out
 48 51 0 0 0
SMALL
GASTEIGER

@<TRIPOS>ATOM
      1 C           1.3004   -0.3935   -0.8046 C.ar    1  LIG1        0.0025
      2 C           0.9742    0.9322   -0.6176 C.ar    1  LIG1       -0.0409
      3 C          -0.4021    1.0040   -0.2564 C.ar    1  LIG1       -0.0238
      4 C          -0.8835   -0.3053   -0.2354 C.ar    1  LIG1        0.0658
      5 N           0.1721   -1.1348   -0.5662 N.ar    1  LIG1       -0.3593
      6 H           0.0830   -2.1299   -0.6929 H       1  LIG1        0.1654
      7 H           2.2322   -0.8630   -1.0819 H       1  LIG1        0.0807
      8 H           1.6505    1.7708   -0.7140 H       1  LIG1        0.0635
      9 C          -1.1670    2.2555    0.0692 C.3     1  LIG1       -0.0377
     10 H          -1.9291    2.0763    0.8350 H       1  LIG1        0.0278
     11 H          -1.6732    2.6821   -0.8086 H       1  LIG1        0.0278
     12 H          -0.4962    3.0316    0.4501 H       1  LIG1        0.0278
     13 C          -2.1825   -0.8616    0.0785 C.ar    1  LIG1        0.0638
     14 C          -2.5411   -2.1125    0.5671 C.ar    1  LIG1       -0.0315
     15 C          -3.9568   -2.1761    0.6588 C.ar    1  LIG1       -0.0246
     16 C          -4.4511   -0.9445    0.2248 C.ar    1  LIG1        0.0499
     17 N          -3.3541   -0.1621   -0.1018 N.ar    1  LIG1       -0.3528
     18 H          -3.4172    0.7123   -0.5979 H       1  LIG1        0.1660
     19 H          -1.8531   -2.8843    0.8868 H       1  LIG1        0.0642
     20 C          -4.7368   -3.3397    1.2013 C.3     1  LIG1       -0.0377
     21 H          -4.1264   -3.9177    1.9022 H       1  LIG1        0.0278
     22 H          -5.0586   -4.0315    0.4117 H       1  LIG1        0.0278
     23 H          -5.6354   -3.0128    1.7329 H       1  LIG1        0.0278
     24 C          -6.0528    0.9721    0.2916 C.ar    1  LIG1       -0.0520
     25 C          -7.3369    1.4797    0.1681 C.ar    1  LIG1       -0.0518
     26 C          -5.8048   -0.4043    0.1273 C.ar    1  LIG1       -0.0012
     27 C          -8.4460    0.6545   -0.1009 C.ar    1  LIG1        0.0012
     28 H          -7.5016    2.5471    0.2768 H       1  LIG1        0.0624
     29 C          -6.9116   -1.2259   -0.1478 C.ar    1  LIG1       -0.0491
     30 C          -8.2163   -0.7363   -0.2524 C.ar    1  LIG1       -0.0407
     31 H          -6.7503   -2.2885   -0.2973 H       1  LIG1        0.0627
     32 H          -5.2368    1.6456    0.5381 H       1  LIG1        0.0624
     33 C          -9.3333   -1.7250   -0.5106 C.3     1  LIG1       -0.0391
     34 H          -9.0221   -2.7351   -0.2314 H       1  LIG1        0.0278
     35 H          -9.6146   -1.7697   -1.5721 H       1  LIG1        0.0278
     36 H         -10.2344   -1.4771    0.0569 H       1  LIG1        0.0278
     37 C          -9.7685    1.2888   -0.1727 C.ar    1  LIG1        0.0470
     38 C         -10.2699    2.3682    0.5431 C.ar    1  LIG1       -0.0335
     39 C         -11.5886    2.6493    0.0844 C.ar    1  LIG1       -0.0326
     40 C         -11.8585    1.7319   -0.9119 C.ar    1  LIG1        0.0051
     41 N         -10.7673    0.9076   -1.0496 N.ar    1  LIG1       -0.3604
     42 H         -10.6604    0.2117   -1.7682 H       1  LIG1        0.1653
     43 H         -12.7408    1.5984   -1.5210 H       1  LIG1        0.0809
     44 H          -9.7499    2.8769    1.3437 H       1  LIG1        0.0641
     45 C         -12.5155    3.7158    0.5907 C.3     1  LIG1       -0.0383
     46 H         -13.4610    3.7126    0.0399 H       1  LIG1        0.0278
     47 H         -12.0774    4.7156    0.4878 H       1  LIG1        0.0278
     48 H         -12.7527    3.5781    1.6524 H       1  LIG1        0.0278
@<TRIPOS>BOND
     1    42    41    1
     2    35    33    1
     3    43    40    1
     4     7     1    1
     5    41    40   ar
     6    41    37   ar
     7    40    39   ar
     8    11     9    1
     9     1     2   ar
    10     1     5   ar
    11     8     2    1
    12     6     5    1
    13     2     3   ar
    14    18    17    1
    15     5     4   ar
    16    33    30    1
    17    33    34    1
    18    33    36    1
    19    31    29    1
    20     3     4   ar
    21     3     9    1
    22    30    29   ar
    23    30    27   ar
    24     4    13    1
    25    37    27    1
    26    37    38   ar
    27    29    26   ar
    28    17    13   ar
    29    17    16   ar
    30    27    25   ar
    31    46    45    1
    32     9    12    1
    33     9    10    1
    34    13    14   ar
    35    39    38   ar
    36    39    45    1
    37    26    16    1
    38    26    24   ar
    39    25    28    1
    40    25    24   ar
    41    16    15   ar
    42    24    32    1
    43    22    20    1
    44    47    45    1
    45    38    44    1
    46    14    15   ar
    47    14    19    1
    48    45    48    1
    49    15    20    1
    50    20    23    1
    51    20    21    1
