@<TRIPOS>MOLECULE
mol_data/opt/b3lyp/geoms/mol2/13ai13ai13ai-13ai.out
 46 49 0 0 0
SMALL
GASTEIGER

@<TRIPOS>ATOM
      1 C           1.1621   -0.1750   -1.1872 C.ar    1  LIG1        0.0025
      2 C           0.9856    0.9697   -0.4440 C.ar    1  LIG1       -0.0409
      3 C          -0.3570    0.9856    0.0391 C.ar    1  LIG1       -0.0238
      4 C          -0.9701   -0.1700   -0.4340 C.ar    1  LIG1        0.0658
      5 N          -0.0205   -0.8749   -1.1621 N.ar    1  LIG1       -0.3593
      6 H          -0.2394   -1.6553   -1.7605 H       1  LIG1        0.1654
      7 H           2.0235   -0.5504   -1.7191 H       1  LIG1        0.0807
      8 H           1.7423    1.7163   -0.2436 H       1  LIG1        0.0635
      9 C          -0.9757    2.0300    0.9208 C.3     1  LIG1       -0.0377
     10 H          -1.8417    1.6306    1.4569 H       1  LIG1        0.0278
     11 H          -1.3194    2.9020    0.3493 H       1  LIG1        0.0278
     12 H          -0.2574    2.3966    1.6618 H       1  LIG1        0.0278
     13 C          -2.3104   -0.6908   -0.2484 C.ar    1  LIG1        0.0639
     14 C          -3.5466   -0.0638   -0.1820 C.ar    1  LIG1       -0.0314
     15 C          -4.5507   -1.0530   -0.0022 C.ar    1  LIG1       -0.0231
     16 C          -3.9044   -2.2897    0.0333 C.ar    1  LIG1        0.0663
     17 N          -2.5522   -2.0463   -0.1307 N.ar    1  LIG1       -0.3517
     18 H          -1.8376   -2.7501   -0.0351 H       1  LIG1        0.1660
     19 H          -3.7130    0.9991   -0.2871 H       1  LIG1        0.0642
     20 C          -6.0249   -0.7957    0.1283 C.3     1  LIG1       -0.0376
     21 H          -6.4942   -1.4744    0.8489 H       1  LIG1        0.0278
     22 H          -6.5598   -0.9038   -0.8262 H       1  LIG1        0.0278
     23 H          -6.2078    0.2258    0.4746 H       1  LIG1        0.0278
     24 C          -4.3919   -3.6376    0.2224 C.ar    1  LIG1        0.0639
     25 C          -3.7493   -4.7817    0.6823 C.ar    1  LIG1       -0.0314
     26 C          -4.6717   -5.8620    0.6607 C.ar    1  LIG1       -0.0231
     27 C          -5.8792   -5.3546    0.1809 C.ar    1  LIG1        0.0663
     28 N          -5.6883   -4.0082   -0.0668 N.ar    1  LIG1       -0.3517
     29 H          -6.3570   -3.4292   -0.5481 H       1  LIG1        0.1660
     30 H          -2.7346   -4.8295    1.0564 H       1  LIG1        0.0642
     31 C          -4.3973   -7.2656    1.1207 C.3     1  LIG1       -0.0376
     32 H          -3.6277   -7.2765    1.8988 H       1  LIG1        0.0278
     33 H          -4.0323   -7.9118    0.3096 H       1  LIG1        0.0278
     34 H          -5.2929   -7.7352    1.5407 H       1  LIG1        0.0278
     35 C          -7.1749   -5.9613   -0.0427 C.ar    1  LIG1        0.0634
     36 C          -8.4487   -5.4071   -0.0351 C.ar    1  LIG1       -0.0321
     37 C          -9.3883   -6.4334   -0.3473 C.ar    1  LIG1       -0.0325
     38 C          -8.6593   -7.5899   -0.5364 C.ar    1  LIG1        0.0051
     39 N          -7.3275   -7.3002   -0.3434 N.ar    1  LIG1       -0.3593
     40 H          -6.5636   -7.9346   -0.5073 H       1  LIG1        0.1654
     41 H          -8.9844   -8.5903   -0.7820 H       1  LIG1        0.0809
     42 H          -8.6842   -4.3816    0.2177 H       1  LIG1        0.0642
     43 C         -10.8803   -6.2950   -0.4338 C.3     1  LIG1       -0.0383
     44 H         -11.3509   -7.2458   -0.7016 H       1  LIG1        0.0278
     45 H         -11.1755   -5.5567   -1.1888 H       1  LIG1        0.0278
     46 H         -11.3144   -5.9695    0.5191 H       1  LIG1        0.0278
@<TRIPOS>BOND
     1     6     5    1
     2     7     1    1
     3    45    43    1
     4     1     5   ar
     5     1     2   ar
     6     5     4   ar
     7    22    20    1
     8    41    38    1
     9    44    43    1
    10    29    28    1
    11    38    37   ar
    12    38    39   ar
    13    40    39    1
    14     2     8    1
    15     2     3   ar
    16     4    13    1
    17     4     3   ar
    18    43    37    1
    19    43    46    1
    20    37    36   ar
    21    39    35   ar
    22    19    14    1
    23    13    14   ar
    24    13    17   ar
    25    14    15   ar
    26    17    18    1
    27    17    16   ar
    28    28    27   ar
    29    28    24   ar
    30    35    36   ar
    31    35    27    1
    32    36    42    1
    33    15    16   ar
    34    15    20    1
    35    16    24    1
    36     3     9    1
    37    20    23    1
    38    20    21    1
    39    27    26   ar
    40    24    25   ar
    41    33    31    1
    42    11     9    1
    43    26    25   ar
    44    26    31    1
    45    25    30    1
    46     9    10    1
    47     9    12    1
    48    31    34    1
    49    31    32    1
