@<TRIPOS>MOLECULE
mol_data/opt/b3lyp/geoms/mol2/13al13al13al13al-.out
 50 53 0 0 0
SMALL
GASTEIGER

@<TRIPOS>ATOM
      1 C           1.4618    0.0467   -0.0022 C.ar    1  LIG1        0.0058
      2 C           0.9756    1.3390   -0.0016 C.ar    1  LIG1       -0.0019
      3 C          -0.4419    1.2439   -0.0004 C.ar    1  LIG1        0.1467
      4 C          -0.8035   -0.1047   -0.0004 C.ar    1  LIG1        0.1052
      5 N           0.3928   -0.8110   -0.0017 N.ar    1  LIG1       -0.3566
      6 H           0.4797   -1.8127   -0.0026 H       1  LIG1        0.1655
      7 H           2.4759   -0.3218   -0.0032 H       1  LIG1        0.0808
      8 H           1.5728    2.2379   -0.0018 H       1  LIG1        0.0669
      9 O          -1.3714    2.2443    0.0008 O.3     1  LIG1       -0.4929
     10 C          -0.8572    3.5655    0.0008 C.3     1  LIG1        0.0789
     11 H          -1.7207    4.2326    0.0017 H       1  LIG1        0.0660
     12 H          -0.2490    3.7608    0.8939 H       1  LIG1        0.0660
     13 H          -0.2505    3.7614   -0.8932 H       1  LIG1        0.0660
     14 C          -2.1125   -0.7052    0.0007 C.ar    1  LIG1        0.0705
     15 C          -3.3634   -0.0902    0.0015 C.ar    1  LIG1        0.0076
     16 C          -4.3363   -1.1157    0.0022 C.ar    1  LIG1        0.1473
     17 C          -3.6948   -2.3559    0.0019 C.ar    1  LIG1        0.1057
     18 N          -2.3320   -2.0684    0.0010 N.ar    1  LIG1       -0.3488
     19 H          -1.6096   -2.7666   -0.0002 H       1  LIG1        0.1661
     20 H          -3.5158    0.9758    0.0016 H       1  LIG1        0.0676
     21 O          -5.6967   -1.0058    0.0032 O.3     1  LIG1       -0.4929
     22 C          -6.2077    0.3173    0.0037 C.3     1  LIG1        0.0789
     23 H          -7.2953    0.2277    0.0045 H       1  LIG1        0.0660
     24 H          -5.8886    0.8707    0.8964 H       1  LIG1        0.0660
     25 H          -5.8901    0.8709   -0.8894 H       1  LIG1        0.0660
     26 C          -4.2481   -3.6817    0.0026 C.ar    1  LIG1        0.0706
     27 C          -5.5872   -4.0803    0.0024 C.ar    1  LIG1        0.0076
     28 C          -5.5983   -5.4936    0.0032 C.ar    1  LIG1        0.1473
     29 C          -4.2870   -5.9627    0.0040 C.ar    1  LIG1        0.1057
     30 N          -3.4846   -4.8317    0.0036 N.ar    1  LIG1       -0.3488
     31 H          -2.4806   -4.8811    0.0039 H       1  LIG1        0.1661
     32 H          -6.4242   -3.4025    0.0017 H       1  LIG1        0.0676
     33 O          -6.6665   -6.3562    0.0033 O.3     1  LIG1       -0.4929
     34 C          -7.9497   -5.7495    0.0028 C.3     1  LIG1        0.0789
     35 H          -8.6775   -6.5626    0.0031 H       1  LIG1        0.0660
     36 H          -8.0975   -5.1289    0.8956 H       1  LIG1        0.0660
     37 H          -8.0972   -5.1298   -0.8907 H       1  LIG1        0.0660
     38 C          -3.7687   -7.3047    0.0051 C.ar    1  LIG1        0.0701
     39 C          -2.4651   -7.7947    0.0062 C.ar    1  LIG1        0.0069
     40 C          -2.5544   -9.2116    0.0070 C.ar    1  LIG1        0.1379
     41 C          -3.8929   -9.5659    0.0063 C.ar    1  LIG1        0.0444
     42 N          -4.6151   -8.3872    0.0053 N.ar    1  LIG1       -0.3564
     43 H          -5.6190   -8.2922    0.0045 H       1  LIG1        0.1655
     44 H          -4.3805  -10.5265    0.0067 H       1  LIG1        0.0844
     45 H          -1.5463   -7.2256    0.0064 H       1  LIG1        0.0676
     46 O          -1.4493  -10.0136    0.0082 O.3     1  LIG1       -0.4936
     47 C          -1.7150  -11.4037    0.0086 C.3     1  LIG1        0.0789
     48 H          -0.7478  -11.9094    0.0093 H       1  LIG1        0.0660
     49 H          -2.2821  -11.7036    0.9012 H       1  LIG1        0.0660
     50 H          -2.2811  -11.7043   -0.8845 H       1  LIG1        0.0660
@<TRIPOS>BOND
     1    13    10    1
     2    37    34    1
     3    25    22    1
     4    50    47    1
     5     7     1    1
     6     6     5    1
     7     1     5   ar
     8     1     2   ar
     9     8     2    1
    10     5     4   ar
    11     2     3   ar
    12     4     3   ar
    13     4    14    1
    14     3     9    1
    15    19    18    1
    16    14    18   ar
    17    14    15   ar
    18    10     9    1
    19    10    11    1
    20    10    12    1
    21    18    17   ar
    22    15    20    1
    23    15    16   ar
    24    32    27    1
    25    17    16   ar
    26    17    26    1
    27    16    21    1
    28    27    26   ar
    29    27    28   ar
    30    26    30   ar
    31    34    35    1
    32    34    33    1
    33    34    36    1
    34    21    22    1
    35    28    33    1
    36    28    29   ar
    37    30    31    1
    38    30    29   ar
    39    22    23    1
    40    22    24    1
    41    29    38    1
    42    43    42    1
    43    38    42   ar
    44    38    39   ar
    45    42    41   ar
    46    39    45    1
    47    39    40   ar
    48    41    44    1
    49    41    40   ar
    50    40    46    1
    51    46    47    1
    52    47    48    1
    53    47    49    1
