@<TRIPOS>MOLECULE
mol_data/opt/b3lyp/geoms/mol2/13al13al.out
 26 27 0 0 0
SMALL
GASTEIGER

@<TRIPOS>ATOM
      1 C           1.3361   -0.3798   -0.0008 C.ar    1  LIG1        0.0058
      2 C           0.9354    0.9412   -0.0003 C.ar    1  LIG1       -0.0019
      3 C          -0.4864    0.9384    0.0004 C.ar    1  LIG1        0.1467
      4 C          -0.9342   -0.3823    0.0002 C.ar    1  LIG1        0.1052
      5 N           0.2127   -1.1650   -0.0006 N.ar    1  LIG1       -0.3566
      6 H           0.2306   -2.1703   -0.0016 H       1  LIG1        0.1655
      7 H           2.3236   -0.8142   -0.0014 H       1  LIG1        0.0808
      8 H           1.5898    1.7993   -0.0002 H       1  LIG1        0.0669
      9 O          -1.3488    1.9986    0.0013 O.3     1  LIG1       -0.4929
     10 C          -0.7490    3.2822    0.0015 C.3     1  LIG1        0.0789
     11 H          -1.5664    4.0051    0.0021 H       1  LIG1        0.0660
     12 H          -0.1289    3.4379    0.8945 H       1  LIG1        0.0660
     13 H          -0.1298    3.4385   -0.8921 H       1  LIG1        0.0660
     14 C          -2.2814   -0.9036    0.0007 C.ar    1  LIG1        0.0701
     15 C          -3.4933   -0.2164    0.0010 C.ar    1  LIG1        0.0069
     16 C          -4.5292   -1.1900    0.0015 C.ar    1  LIG1        0.1379
     17 C          -3.9498   -2.4432    0.0013 C.ar    1  LIG1        0.0444
     18 N          -2.5796   -2.2493    0.0009 N.ar    1  LIG1       -0.3564
     19 H          -1.9147   -3.0032    0.0005 H       1  LIG1        0.1655
     20 H          -4.3935   -3.4250    0.0016 H       1  LIG1        0.0844
     21 H          -3.5844    0.8572    0.0010 H       1  LIG1        0.0676
     22 O          -5.8830   -1.0058    0.0020 O.3     1  LIG1       -0.4936
     23 C          -6.3190    0.3418    0.0021 C.3     1  LIG1        0.0789
     24 H          -7.4103    0.3130    0.0026 H       1  LIG1        0.0660
     25 H          -5.9720    0.8804    0.8944 H       1  LIG1        0.0660
     26 H          -5.9727    0.8803   -0.8904 H       1  LIG1        0.0660
@<TRIPOS>BOND
     1    13    10    1
     2    26    23    1
     3     6     5    1
     4     7     1    1
     5     1     5   ar
     6     1     2   ar
     7     5     4   ar
     8     2     8    1
     9     2     3   ar
    10     4     3   ar
    11     4    14    1
    12     3     9    1
    13    19    18    1
    14    14    18   ar
    15    14    15   ar
    16    18    17   ar
    17    21    15    1
    18    15    16   ar
    19     9    10    1
    20    17    16   ar
    21    17    20    1
    22    10    11    1
    23    10    12    1
    24    16    22    1
    25    22    23    1
    26    23    24    1
    27    23    25    1
