@<TRIPOS>MOLECULE
mol_data/opt/b3lyp/geoms/mol2/13al13hi-12hh-13li-.out
 53 56 0 0 0
SMALL
GASTEIGER

@<TRIPOS>ATOM
      1 C           1.3687    0.0704   -0.1936 C.ar    1  LIG1        0.0058
      2 C           0.9312    1.3498   -0.4717 C.ar    1  LIG1       -0.0019
      3 C          -0.4894    1.3220   -0.3977 C.ar    1  LIG1        0.1467
      4 C          -0.8986    0.0321   -0.0716 C.ar    1  LIG1        0.1069
      5 N           0.2672   -0.7168    0.0276 N.ar    1  LIG1       -0.3565
      6 H           0.2879   -1.6423    0.4246 H       1  LIG1        0.1655
      7 H           2.3683   -0.3332   -0.1448 H       1  LIG1        0.0808
      8 H           1.5594    2.1921   -0.7186 H       1  LIG1        0.0669
      9 O          -1.3858    2.3404   -0.6196 O.3     1  LIG1       -0.4929
     10 C          -0.8215    3.5940   -0.9698 C.3     1  LIG1        0.0789
     11 H          -1.6572    4.2805   -1.1156 H       1  LIG1        0.0660
     12 H          -0.1701    3.9797   -0.1745 H       1  LIG1        0.0660
     13 H          -0.2444    3.5244   -1.9008 H       1  LIG1        0.0660
     14 C          -2.2032   -0.5541    0.1234 C.ar    1  LIG1        0.0882
     15 C          -3.3878   -0.0266    0.6268 C.ar    1  LIG1        0.0554
     16 C          -4.3579   -1.0776    0.6769 C.ar    1  LIG1       -0.0008
     17 C          -3.7439   -2.2268    0.1839 C.ar    1  LIG1        0.0892
     18 N          -2.4245   -1.9152   -0.1005 N.ar    1  LIG1       -0.3488
     19 H          -1.8934   -2.4457   -0.7745 H       1  LIG1        0.1661
     20 N          -3.5787    1.2586    1.1501 N.pl3   1  LIG1       -0.3561
     21 H          -2.9549    1.9406    0.7284 H       1  LIG1        0.1424
     22 H          -4.5398    1.5678    1.0676 H       1  LIG1        0.1424
     23 C          -5.7124   -0.9548    1.3110 C.3     1  LIG1       -0.0358
     24 H          -6.1857   -1.9313    1.4355 H       1  LIG1        0.0279
     25 H          -6.4028   -0.3292    0.7265 H       1  LIG1        0.0279
     26 H          -5.6326   -0.4910    2.3021 H       1  LIG1        0.0279
     27 C          -4.2591   -3.5489   -0.0635 C.ar    1  LIG1        0.1745
     28 C          -5.4585   -4.0088   -0.5584 C.ar    1  LIG1        0.0941
     29 C          -5.3721   -5.4398   -0.6206 C.ar    1  LIG1        0.0942
     30 C          -4.1055   -5.7710   -0.1877 C.ar    1  LIG1        0.1778
     31 O          -3.4198   -4.6238    0.1654 O.2     1  LIG1       -0.4479
     32 N          -6.5880   -3.2565   -0.9343 N.pl3   1  LIG1       -0.3536
     33 H          -6.3573   -2.2706   -1.0072 H       1  LIG1        0.1425
     34 H          -6.9630   -3.5598   -1.8294 H       1  LIG1        0.1425
     35 N          -6.4009   -6.3031   -0.9986 N.pl3   1  LIG1       -0.3535
     36 H          -7.0891   -5.8916   -1.6139 H       1  LIG1        0.1425
     37 H          -6.0624   -7.1982   -1.3370 H       1  LIG1        0.1425
     38 C          -3.3830   -7.0038   -0.0230 C.ar    1  LIG1        0.1264
     39 C          -3.6899   -8.3427   -0.2668 C.ar    1  LIG1        0.1512
     40 C          -2.5546   -9.1462    0.0516 C.ar    1  LIG1        0.0092
     41 C          -1.5788   -8.2726    0.4885 C.ar    1  LIG1        0.0088
     42 N          -2.0819   -6.9949    0.4374 N.ar    1  LIG1       -0.3550
     43 H          -1.6064   -6.1509    0.7106 H       1  LIG1        0.1655
     44 H          -0.5691   -8.4645    0.8198 H       1  LIG1        0.0811
     45 O          -4.8804   -8.8156   -0.7908 O.3     1  LIG1       -0.4926
     46 C          -5.7560   -9.3953    0.1861 C.3     1  LIG1        0.0789
     47 H          -6.6068   -9.8067   -0.3626 H       1  LIG1        0.0660
     48 H          -5.2575  -10.2012    0.7358 H       1  LIG1        0.0660
     49 H          -6.1101   -8.6362    0.8925 H       1  LIG1        0.0660
     50 C          -2.4478  -10.6352   -0.0902 C.3     1  LIG1       -0.0348
     51 H          -1.4025  -10.9575   -0.0781 H       1  LIG1        0.0279
     52 H          -2.8933  -10.9720   -1.0322 H       1  LIG1        0.0279
     53 H          -2.9624  -11.1713    0.7178 H       1  LIG1        0.0279
@<TRIPOS>BOND
     1    13    10    1
     2    34    32    1
     3    36    35    1
     4    37    35    1
     5    11    10    1
     6    52    50    1
     7    33    32    1
     8    35    29    1
     9    10     9    1
    10    10    12    1
    11    32    28    1
    12    45    39    1
    13    45    46    1
    14    19    18    1
    15     8     2    1
    16    29    28   ar
    17    29    30   ar
    18     9     3    1
    19    28    27   ar
    20     2     3   ar
    21     2     1   ar
    22     3     4   ar
    23    47    46    1
    24    39    38   ar
    25    39    40   ar
    26     1     7    1
    27     1     5   ar
    28    30    38    1
    29    30    31   ar
    30    18    14   ar
    31    18    17   ar
    32    50    51    1
    33    50    40    1
    34    50    53    1
    35     4     5   ar
    36     4    14    1
    37    27    31   ar
    38    27    17    1
    39    38    42   ar
    40     5     6    1
    41    40    41   ar
    42    14    15   ar
    43    17    16   ar
    44    46    48    1
    45    46    49    1
    46    42    41   ar
    47    42    43    1
    48    41    44    1
    49    15    16   ar
    50    15    20    1
    51    16    23    1
    52    25    23    1
    53    21    20    1
    54    22    20    1
    55    23    24    1
    56    23    26    1
