@<TRIPOS>MOLECULE
mol_data/opt/b3lyp/geoms/mol2/13al13al-.out
 26 27 0 0 0
SMALL
GASTEIGER

@<TRIPOS>ATOM
      1 C           1.2912   -0.3863   -0.0002 C.ar    1  LIG1        0.0058
      2 C           0.9208    0.9458   -0.0002 C.ar    1  LIG1       -0.0019
      3 C          -0.4997    0.9687    0.0004 C.ar    1  LIG1        0.1467
      4 C          -0.9710   -0.3414    0.0004 C.ar    1  LIG1        0.1052
      5 N           0.1529   -1.1465    0.0000 N.ar    1  LIG1       -0.3566
      6 H           0.1238   -2.1526   -0.0003 H       1  LIG1        0.1655
      7 H           2.2697   -0.8399   -0.0005 H       1  LIG1        0.0808
      8 H           1.5939    1.7896   -0.0004 H       1  LIG1        0.0669
      9 O          -1.3572    2.0424    0.0008 O.3     1  LIG1       -0.4929
     10 C          -0.7454    3.3222    0.0006 C.3     1  LIG1        0.0789
     11 H          -1.5547    4.0542    0.0009 H       1  LIG1        0.0660
     12 H          -0.1245    3.4685    0.8939 H       1  LIG1        0.0660
     13 H          -0.1252    3.4685   -0.8933 H       1  LIG1        0.0660
     14 C          -2.3207   -0.8526    0.0009 C.ar    1  LIG1        0.0701
     15 C          -2.8177   -2.1515    0.0007 C.ar    1  LIG1        0.0069
     16 C          -4.2343   -2.0530    0.0014 C.ar    1  LIG1        0.1379
     17 C          -4.5791   -0.7118    0.0016 C.ar    1  LIG1        0.0444
     18 N          -3.3959    0.0019    0.0014 N.ar    1  LIG1       -0.3564
     19 H          -3.2952    1.0053    0.0013 H       1  LIG1        0.1655
     20 H          -5.5365   -0.2175    0.0021 H       1  LIG1        0.0844
     21 H          -2.2538   -3.0731    0.0004 H       1  LIG1        0.0676
     22 O          -5.0435   -3.1521    0.0016 O.3     1  LIG1       -0.4936
     23 C          -6.4319   -2.8775    0.0020 C.3     1  LIG1        0.0789
     24 H          -6.9436   -3.8415    0.0020 H       1  LIG1        0.0660
     25 H          -6.7282   -2.3092    0.8950 H       1  LIG1        0.0660
     26 H          -6.7287   -2.3090   -0.8908 H       1  LIG1        0.0660
@<TRIPOS>BOND
     1    13    10    1
     2    26    23    1
     3     7     1    1
     4     8     2    1
     5     6     5    1
     6     2     1   ar
     7     2     3   ar
     8     1     5   ar
     9     5     4   ar
    10     3     4   ar
    11     3     9    1
    12    21    15    1
    13     4    14    1
    14    10     9    1
    15    10    11    1
    16    10    12    1
    17    15    14   ar
    18    15    16   ar
    19    14    18   ar
    20    19    18    1
    21    16    22    1
    22    16    17   ar
    23    18    17   ar
    24    22    23    1
    25    17    20    1
    26    23    24    1
    27    23    25    1
