@<TRIPOS>MOLECULE
mol_data/opt/b3lyp/geoms/mol2/13al13al-13al-13al-.out
 50 53 0 0 0
SMALL
GASTEIGER

@<TRIPOS>ATOM
      1 C           1.2098   -0.6467   -0.2684 C.ar    1  LIG1        0.0058
      2 C           0.9058    0.6844   -0.4863 C.ar    1  LIG1       -0.0019
      3 C          -0.5103    0.7843   -0.4540 C.ar    1  LIG1        0.1467
      4 C          -1.0461   -0.4807   -0.2190 C.ar    1  LIG1        0.1052
      5 N           0.0368   -1.3340   -0.1086 N.ar    1  LIG1       -0.3566
      6 H          -0.0395   -2.3232    0.0605 H       1  LIG1        0.1655
      7 H           2.1649   -1.1459   -0.2160 H       1  LIG1        0.0808
      8 H           1.6195    1.4776   -0.6482 H       1  LIG1        0.0669
      9 O          -1.3141    1.8876   -0.6158 O.3     1  LIG1       -0.4929
     10 C          -0.6462    3.0968   -0.9450 C.3     1  LIG1        0.0789
     11 H          -1.4194    3.8575   -1.0640 H       1  LIG1        0.0660
     12 H           0.0414    3.4015   -0.1458 H       1  LIG1        0.0660
     13 H          -0.0851    2.9993   -1.8829 H       1  LIG1        0.0660
     14 C          -2.4177   -0.9058   -0.1118 C.ar    1  LIG1        0.0705
     15 C          -2.9976   -2.1589    0.0598 C.ar    1  LIG1        0.0076
     16 C          -4.4020   -1.9740    0.0390 C.ar    1  LIG1        0.1473
     17 C          -4.6738   -0.6175   -0.1325 C.ar    1  LIG1        0.1057
     18 N          -3.4434    0.0128   -0.2085 N.ar    1  LIG1       -0.3488
     19 H          -3.2702    0.9647   -0.4974 H       1  LIG1        0.1661
     20 H          -2.4875   -3.1050    0.1748 H       1  LIG1        0.0676
     21 O          -5.3483   -2.9623    0.1592 O.3     1  LIG1       -0.4929
     22 C          -5.7489   -3.2210    1.5060 C.3     1  LIG1        0.0789
     23 H          -6.4702   -4.0406    1.4668 H       1  LIG1        0.0660
     24 H          -4.8931   -3.5207    2.1246 H       1  LIG1        0.0660
     25 H          -6.2232   -2.3401    1.9554 H       1  LIG1        0.0660
     26 C          -5.9335    0.0792   -0.1983 C.ar    1  LIG1        0.0706
     27 C          -7.2020   -0.3970   -0.5270 C.ar    1  LIG1        0.0076
     28 C          -8.0914    0.7038   -0.4694 C.ar    1  LIG1        0.1473
     29 C          -7.3761    1.8416   -0.0983 C.ar    1  LIG1        0.1057
     30 N          -6.0601    1.4257    0.0675 N.ar    1  LIG1       -0.3488
     31 H          -5.2984    2.0526    0.2680 H       1  LIG1        0.1661
     32 H          -7.4192   -1.4193   -0.7923 H       1  LIG1        0.0676
     33 O          -9.4333    0.7407   -0.7067 O.3     1  LIG1       -0.4929
     34 C         -10.0375   -0.5007   -1.0292 C.3     1  LIG1        0.0789
     35 H         -11.1001   -0.2977   -1.1726 H       1  LIG1        0.0660
     36 H          -9.6218   -0.9236   -1.9532 H       1  LIG1        0.0660
     37 H          -9.9142   -1.2315   -0.2188 H       1  LIG1        0.0660
     38 C          -7.8040    3.1963    0.1482 C.ar    1  LIG1        0.0701
     39 C          -8.8813    3.9101   -0.3470 C.ar    1  LIG1        0.0069
     40 C          -8.8352    5.2043    0.2444 C.ar    1  LIG1        0.1379
     41 C          -7.7404    5.2669    1.0830 C.ar    1  LIG1        0.0444
     42 N          -7.0878    4.0402    0.9857 N.ar    1  LIG1       -0.3564
     43 H          -6.4942    3.6888    1.7213 H       1  LIG1        0.1655
     44 H          -7.3518    6.0605    1.6997 H       1  LIG1        0.0844
     45 H          -9.5982    3.5595   -1.0727 H       1  LIG1        0.0676
     46 O          -9.7484    6.1714   -0.0534 O.3     1  LIG1       -0.4936
     47 C          -9.5739    7.3984    0.6305 C.3     1  LIG1        0.0789
     48 H         -10.3761    8.0603    0.2999 H       1  LIG1        0.0660
     49 H          -9.6400    7.2628    1.7193 H       1  LIG1        0.0660
     50 H          -8.6036    7.8563    0.3913 H       1  LIG1        0.0660
@<TRIPOS>BOND
     1    36    34    1
     2    13    10    1
     3    35    34    1
     4    45    39    1
     5    11    10    1
     6    34    33    1
     7    34    37    1
     8    10     9    1
     9    10    12    1
    10    32    27    1
    11    33    28    1
    12     8     2    1
    13     9     3    1
    14    27    28   ar
    15    27    26   ar
    16    19    18    1
    17     2     3   ar
    18     2     1   ar
    19    28    29   ar
    20     3     4   ar
    21    39    38   ar
    22    39    40   ar
    23     1     7    1
    24     1     5   ar
    25     4    14    1
    26     4     5   ar
    27    18    17   ar
    28    18    14   ar
    29    26    17    1
    30    26    30   ar
    31    17    16   ar
    32    14    15   ar
    33     5     6    1
    34    29    30   ar
    35    29    38    1
    36    46    40    1
    37    46    47    1
    38    16    15   ar
    39    16    21    1
    40    15    20    1
    41    30    31    1
    42    38    42   ar
    43    21    22    1
    44    40    41   ar
    45    48    47    1
    46    50    47    1
    47    47    49    1
    48    42    41   ar
    49    42    43    1
    50    41    44    1
    51    23    22    1
    52    22    25    1
    53    22    24    1
