@<TRIPOS>MOLECULE
mol_data/opt/b3lyp/geoms/mol2/13al13al-13al.out
 38 40 0 0 0
SMALL
GASTEIGER

@<TRIPOS>ATOM
      1 C           1.1168   -0.5636    0.1068 C.ar    1  LIG1        0.0058
      2 C           0.8112    0.7834    0.0486 C.ar    1  LIG1       -0.0019
      3 C          -0.6057    0.8751    0.0242 C.ar    1  LIG1        0.1467
      4 C          -1.1415   -0.4107    0.0677 C.ar    1  LIG1        0.1052
      5 N          -0.0573   -1.2688    0.1177 N.ar    1  LIG1       -0.3566
      6 H          -0.1323   -2.2714    0.1571 H       1  LIG1        0.1655
      7 H           2.0724   -1.0634    0.1408 H       1  LIG1        0.0808
      8 H           1.5244    1.5931    0.0266 H       1  LIG1        0.0669
      9 O          -1.4103    1.9865   -0.0319 O.3     1  LIG1       -0.4929
     10 C          -0.7396    3.2364   -0.0741 C.3     1  LIG1        0.0789
     11 H          -1.5141    4.0038   -0.1164 H       1  LIG1        0.0660
     12 H          -0.1257    3.3900    0.8227 H       1  LIG1        0.0660
     13 H          -0.1009    3.3164   -0.9632 H       1  LIG1        0.0660
     14 C          -2.5130   -0.8482    0.0650 C.ar    1  LIG1        0.0705
     15 C          -3.0809   -2.1233    0.1084 C.ar    1  LIG1        0.0076
     16 C          -4.4847   -1.9432    0.0801 C.ar    1  LIG1        0.1473
     17 C          -4.7672   -0.5787    0.0204 C.ar    1  LIG1        0.1057
     18 N          -3.5428    0.0595    0.0126 N.ar    1  LIG1       -0.3488
     19 H          -3.3899    1.0560   -0.0253 H       1  LIG1        0.1661
     20 H          -2.5465   -3.0606    0.1545 H       1  LIG1        0.0676
     21 O          -5.4859   -2.8837    0.1034 O.3     1  LIG1       -0.4929
     22 C          -5.0648   -4.2360    0.1650 C.3     1  LIG1        0.0789
     23 H          -5.9703   -4.8449    0.1762 H       1  LIG1        0.0660
     24 H          -4.4582   -4.5057   -0.7095 H       1  LIG1        0.0660
     25 H          -4.4850   -4.4328    1.0763 H       1  LIG1        0.0660
     26 C          -6.0317    0.1090   -0.0262 C.ar    1  LIG1        0.0701
     27 C          -6.3450    1.4678   -0.0861 C.ar    1  LIG1        0.0069
     28 C          -7.7636    1.5624   -0.1108 C.ar    1  LIG1        0.1379
     29 C          -8.2853    0.2825   -0.0662 C.ar    1  LIG1        0.0444
     30 N          -7.2162   -0.5851   -0.0152 N.ar    1  LIG1       -0.3564
     31 H          -7.2571   -1.5918    0.0254 H       1  LIG1        0.1655
     32 H          -9.3083   -0.0563   -0.0671 H       1  LIG1        0.0844
     33 H          -5.6370    2.2827   -0.1090 H       1  LIG1        0.0676
     34 O          -8.5534    2.6777   -0.1680 O.3     1  LIG1       -0.4936
     35 C          -7.8681    3.9146   -0.2070 C.3     1  LIG1        0.0789
     36 H          -8.6330    4.6924   -0.2497 H       1  LIG1        0.0660
     37 H          -7.2513    4.0661    0.6900 H       1  LIG1        0.0660
     38 H          -7.2242    3.9948   -1.0940 H       1  LIG1        0.0660
@<TRIPOS>BOND
     1    38    35    1
     2    13    10    1
     3    24    22    1
     4    36    35    1
     5    35    34    1
     6    35    37    1
     7    34    28    1
     8    11    10    1
     9    28    27   ar
    10    28    29   ar
    11    33    27    1
    12    27    26   ar
    13    10     9    1
    14    10    12    1
    15    32    29    1
    16    29    30   ar
    17     9     3    1
    18    26    30   ar
    19    26    17    1
    20    19    18    1
    21    30    31    1
    22    18    17   ar
    23    18    14   ar
    24    17    16   ar
    25     3     2   ar
    26     3     4   ar
    27     8     2    1
    28     2     1   ar
    29    14     4    1
    30    14    15   ar
    31     4     5   ar
    32    16    21    1
    33    16    15   ar
    34    21    22    1
    35     1     5   ar
    36     1     7    1
    37    15    20    1
    38     5     6    1
    39    22    23    1
    40    22    25    1
