@<TRIPOS>MOLECULE
mol_data/opt/b3lyp/geoms/mol2/13al6ee-13ha12ee.out
 48 51 0 0 0
SMALL
GASTEIGER

@<TRIPOS>ATOM
      1 C           1.3804   -0.3067    0.3270 C.ar    1  LIG1        0.0057
      2 C           0.9959    1.0197    0.2355 C.ar    1  LIG1       -0.0019
      3 C          -0.4124    1.0194    0.0868 C.ar    1  LIG1        0.1453
      4 C          -0.8706   -0.3103    0.0892 C.ar    1  LIG1        0.0914
      5 N           0.2712   -1.0856    0.2401 N.ar    1  LIG1       -0.3577
      6 H           0.2505   -2.0944    0.2752 H       1  LIG1        0.1654
      7 H           2.3618   -0.7404    0.4466 H       1  LIG1        0.0808
      8 H           1.6526    1.8747    0.2730 H       1  LIG1        0.0669
      9 O          -1.2426    2.0946   -0.0364 O.3     1  LIG1       -0.4930
     10 C          -0.6251    3.3727    0.0032 C.3     1  LIG1        0.0789
     11 H          -1.4276    4.1037   -0.1039 H       1  LIG1        0.0660
     12 H          -0.1085    3.5368    0.9573 H       1  LIG1        0.0660
     13 H           0.0913    3.4960   -0.8189 H       1  LIG1        0.0660
     14 C          -2.5718   -2.2283    0.0588 C.ar    1  LIG1        0.1231
     15 C          -2.2165   -0.8477   -0.0217 C.ar    1  LIG1        0.0369
     16 C          -3.3006    0.0156   -0.2649 C.ar    1  LIG1       -0.0323
     17 C          -4.6185   -0.4393   -0.3477 C.ar    1  LIG1        0.0528
     18 C          -4.8762   -1.8232   -0.1051 C.ar    1  LIG1        0.1056
     19 N          -3.8370   -2.6668    0.0332 N.ar    1  LIG1       -0.2350
     20 H          -3.1069    1.0669   -0.4270 H       1  LIG1        0.0638
     21 C          -1.6110   -3.2919    0.1781 C.1     1  LIG1       -0.0491
     22 C          -0.8366   -4.2193    0.2731 C.1     1  LIG1       -0.1124
     23 H          -0.1800   -5.0545    0.3589 H       1  LIG1        0.1232
     24 C          -5.6089    0.4850   -0.7923 C.1     1  LIG1       -0.0674
     25 C          -6.4049    1.3002   -1.2070 C.1     1  LIG1       -0.1138
     26 H          -7.0958    2.0053   -1.6083 H       1  LIG1        0.1232
     27 C          -6.1769   -2.4646   -0.0294 C.ar    1  LIG1        0.0876
     28 C          -7.4858   -2.0778    0.3464 C.ar    1  LIG1        0.0524
     29 C          -8.2897   -3.2415    0.3244 C.ar    1  LIG1       -0.0120
     30 C          -7.4763   -4.3167   -0.0335 C.ar    1  LIG1        0.0856
     31 N          -6.2195   -3.8326   -0.2422 N.ar    1  LIG1       -0.3490
     32 H          -5.3836   -4.3680   -0.4228 H       1  LIG1        0.1661
     33 N          -7.9176   -0.8401    0.8088 N.pl3   1  LIG1       -0.3563
     34 H          -7.4918   -0.0370    0.3624 H       1  LIG1        0.1424
     35 H          -8.9252   -0.7599    0.8383 H       1  LIG1        0.1424
     36 H          -9.3416   -3.3018    0.5602 H       1  LIG1        0.0658
     37 C          -7.7835   -5.7070   -0.2001 C.ar    1  LIG1        0.1674
     38 C          -8.9384   -6.4573   -0.0662 C.ar    1  LIG1        0.0872
     39 C          -8.5615   -7.8290   -0.3759 C.ar    1  LIG1        0.0784
     40 C          -7.2275   -7.7936   -0.6676 C.ar    1  LIG1        0.1092
     41 O          -6.7458   -6.5251   -0.5663 O.2     1  LIG1       -0.4589
     42 H          -6.5207   -8.5564   -0.9514 H       1  LIG1        0.1042
     43 C         -10.2259   -6.0023    0.2959 C.1     1  LIG1       -0.0646
     44 C         -11.3348   -5.6264    0.6049 C.1     1  LIG1       -0.1138
     45 H         -12.3134   -5.3064    0.8779 H       1  LIG1        0.1232
     46 C          -9.4049   -8.9679   -0.3757 C.1     1  LIG1       -0.0653
     47 C         -10.1281   -9.9372   -0.3743 C.1     1  LIG1       -0.1138
     48 H         -10.7673  -10.7893   -0.3720 H       1  LIG1        0.1232
@<TRIPOS>BOND
     1    26    25    1
     2    25    24    3
     3    42    40    1
     4    13    10    1
     5    24    17    1
     6    40    41   ar
     7    40    39   ar
     8    41    37   ar
     9    20    16    1
    10    32    31    1
    11    39    46    1
    12    39    38   ar
    13    46    47    3
    14    47    48    1
    15    17    16   ar
    16    17    18   ar
    17    16    15   ar
    18    31    30   ar
    19    31    27   ar
    20    37    38   ar
    21    37    30    1
    22    18    27    1
    23    18    19   ar
    24    11    10    1
    25    38    43    1
    26     9    10    1
    27     9     3    1
    28    30    29   ar
    29    27    28   ar
    30    15    14   ar
    31    15     4    1
    32    10    12    1
    33    19    14   ar
    34    14    21    1
    35     3     4   ar
    36     3     2   ar
    37     4     5   ar
    38    21    22    3
    39     2     8    1
    40     2     1   ar
    41     5     6    1
    42     5     1   ar
    43    22    23    1
    44    43    44    3
    45    29    28   ar
    46    29    36    1
    47     1     7    1
    48    28    33    1
    49    34    33    1
    50    44    45    1
    51    33    35    1
