@<TRIPOS>MOLECULE
mol_data/opt/b3lyp/geoms/mol2/13al13al13al-13al-.out
 50 53 0 0 0
SMALL
GASTEIGER

@<TRIPOS>ATOM
      1 C           1.3601   -0.2224   -0.5409 C.ar    1  LIG1        0.0058
      2 C           0.9987    1.0166   -0.0505 C.ar    1  LIG1       -0.0019
      3 C          -0.4151    0.9989    0.1111 C.ar    1  LIG1        0.1467
      4 C          -0.8900   -0.2519   -0.2757 C.ar    1  LIG1        0.1052
      5 N           0.2278   -0.9872   -0.6537 N.ar    1  LIG1       -0.3566
      6 H           0.1744   -1.8482   -1.1742 H       1  LIG1        0.1655
      7 H           2.3290   -0.6111   -0.8148 H       1  LIG1        0.0808
      8 H           1.6744    1.8272    0.1761 H       1  LIG1        0.0669
      9 O          -1.2449    1.9775    0.5763 O.3     1  LIG1       -0.4929
     10 C          -0.6123    3.1686    1.0137 C.3     1  LIG1        0.0789
     11 H          -1.4065    3.8270    1.3695 H       1  LIG1        0.0660
     12 H           0.0904    2.9734    1.8345 H       1  LIG1        0.0660
     13 H          -0.0737    3.6639    0.1947 H       1  LIG1        0.0660
     14 C          -2.2245   -0.7938   -0.2814 C.ar    1  LIG1        0.0705
     15 C          -3.4577   -0.1522   -0.3348 C.ar    1  LIG1        0.0076
     16 C          -4.4485   -1.1644   -0.3142 C.ar    1  LIG1        0.1473
     17 C          -3.8286   -2.4100   -0.2550 C.ar    1  LIG1        0.1057
     18 N          -2.4630   -2.1557   -0.2617 N.ar    1  LIG1       -0.3488
     19 H          -1.7842   -2.8357    0.0422 H       1  LIG1        0.1661
     20 H          -3.5923    0.9151   -0.4039 H       1  LIG1        0.0676
     21 O          -5.8150   -1.0453   -0.3619 O.3     1  LIG1       -0.4929
     22 C          -6.3174    0.2762   -0.4996 C.3     1  LIG1        0.0789
     23 H          -7.4051    0.1936   -0.5302 H       1  LIG1        0.0660
     24 H          -6.0244    0.9039    0.3513 H       1  LIG1        0.0660
     25 H          -5.9621    0.7425   -1.4270 H       1  LIG1        0.0660
     26 C          -4.3906   -3.7315   -0.2151 C.ar    1  LIG1        0.0706
     27 C          -3.8042   -4.9946   -0.2392 C.ar    1  LIG1        0.0076
     28 C          -4.8554   -5.9441   -0.2196 C.ar    1  LIG1        0.1473
     29 C          -6.0706   -5.2641   -0.1744 C.ar    1  LIG1        0.1057
     30 N          -5.7573   -3.9154   -0.1539 N.ar    1  LIG1       -0.3488
     31 H          -6.4038   -3.1534   -0.2994 H       1  LIG1        0.1661
     32 H          -2.7490   -5.2236   -0.2870 H       1  LIG1        0.0676
     33 O          -4.6985   -7.3077   -0.2571 O.3     1  LIG1       -0.4929
     34 C          -4.7670   -7.9395    1.0224 C.3     1  LIG1        0.0789
     35 H          -4.5856   -9.0038    0.8550 H       1  LIG1        0.0660
     36 H          -4.0007   -7.5431    1.7014 H       1  LIG1        0.0660
     37 H          -5.7551   -7.8087    1.4791 H       1  LIG1        0.0660
     38 C          -7.4277   -5.7537   -0.1232 C.ar    1  LIG1        0.0701
     39 C          -7.9643   -6.9678   -0.5245 C.ar    1  LIG1        0.0069
     40 C          -9.3558   -6.9270   -0.2344 C.ar    1  LIG1        0.1379
     41 C          -9.6507   -5.7020    0.3344 C.ar    1  LIG1        0.0444
     42 N          -8.4638   -4.9811    0.3678 N.ar    1  LIG1       -0.3564
     43 H          -8.3222   -4.1719    0.9511 H       1  LIG1        0.1655
     44 H         -10.5761   -5.2764    0.6857 H       1  LIG1        0.0844
     45 H          -7.4295   -7.7682   -1.0117 H       1  LIG1        0.0676
     46 O         -10.1919   -7.9630   -0.5280 O.3     1  LIG1       -0.4936
     47 C         -11.5496   -7.7609   -0.1821 C.3     1  LIG1        0.0789
     48 H         -12.0869   -8.6648   -0.4738 H       1  LIG1        0.0660
     49 H         -11.6684   -7.6009    0.8990 H       1  LIG1        0.0660
     50 H         -11.9744   -6.8980   -0.7142 H       1  LIG1        0.0660
@<TRIPOS>BOND
     1    25    22    1
     2     6     5    1
     3    45    39    1
     4     7     1    1
     5    50    47    1
     6     5     1   ar
     7     5     4   ar
     8     1     2   ar
     9    23    22    1
    10    46    40    1
    11    46    47    1
    12    39    40   ar
    13    39    38   ar
    14    22    21    1
    15    22    24    1
    16    48    47    1
    17    20    15    1
    18    21    16    1
    19    15    16   ar
    20    15    14   ar
    21    16    17   ar
    22    31    30    1
    23    32    27    1
    24    14     4    1
    25    14    18   ar
    26     4     3   ar
    27    18    17   ar
    28    18    19    1
    29    33    28    1
    30    33    34    1
    31    17    26    1
    32    27    28   ar
    33    27    26   ar
    34    40    41   ar
    35    28    29   ar
    36    26    30   ar
    37    47    49    1
    38    29    30   ar
    39    29    38    1
    40    38    42   ar
    41     2     3   ar
    42     2     8    1
    43     3     9    1
    44    13    10    1
    45    41    42   ar
    46    41    44    1
    47    42    43    1
    48     9    10    1
    49    35    34    1
    50    10    11    1
    51    10    12    1
    52    34    37    1
    53    34    36    1
