@<TRIPOS>MOLECULE
mol_data/opt/b3lyp/geoms/mol2/13al13al-13al-13al.out
 50 53 0 0 0
SMALL
GASTEIGER

@<TRIPOS>ATOM
      1 C           1.1701   -0.6410   -0.5953 C.ar    1  LIG1        0.0058
      2 C           0.8571    0.6959   -0.7583 C.ar    1  LIG1       -0.0019
      3 C          -0.5570    0.7918   -0.6716 C.ar    1  LIG1        0.1467
      4 C          -1.0827   -0.4813   -0.4589 C.ar    1  LIG1        0.1052
      5 N           0.0043   -1.3357   -0.4160 N.ar    1  LIG1       -0.3566
      6 H          -0.0647   -2.3298   -0.2751 H       1  LIG1        0.1655
      7 H           2.1270   -1.1396   -0.5935 H       1  LIG1        0.0808
      8 H           1.5637    1.4955   -0.9197 H       1  LIG1        0.0669
      9 O          -1.3671    1.8974   -0.7686 O.3     1  LIG1       -0.4929
     10 C          -0.7118    3.1201   -1.0717 C.3     1  LIG1        0.0789
     11 H          -1.4899    3.8823   -1.1379 H       1  LIG1        0.0660
     12 H          -0.0004    3.3963   -0.2830 H       1  LIG1        0.0660
     13 H          -0.1797    3.0603   -2.0294 H       1  LIG1        0.0660
     14 C          -2.4490   -0.9123   -0.3149 C.ar    1  LIG1        0.0705
     15 C          -3.0199   -2.1725   -0.1637 C.ar    1  LIG1        0.0076
     16 C          -4.4249   -1.9913   -0.1262 C.ar    1  LIG1        0.1473
     17 C          -4.7041   -0.6308   -0.2422 C.ar    1  LIG1        0.1057
     18 N          -3.4792    0.0056   -0.3441 N.ar    1  LIG1       -0.3488
     19 H          -3.3257    0.9683   -0.6080 H       1  LIG1        0.1661
     20 H          -2.5027   -3.1197   -0.1010 H       1  LIG1        0.0676
     21 O          -5.3701   -2.9807   -0.0046 O.3     1  LIG1       -0.4929
     22 C          -5.6374   -3.3647    1.3448 C.3     1  LIG1        0.0789
     23 H          -6.3771   -4.1677    1.3023 H       1  LIG1        0.0660
     24 H          -4.7309   -3.7340    1.8415 H       1  LIG1        0.0660
     25 H          -6.0429   -2.5256    1.9235 H       1  LIG1        0.0660
     26 C          -5.9602    0.0729   -0.2327 C.ar    1  LIG1        0.0706
     27 C          -7.2463   -0.3791   -0.5176 C.ar    1  LIG1        0.0076
     28 C          -8.1157    0.7258   -0.3505 C.ar    1  LIG1        0.1473
     29 C          -7.3710    1.8404    0.0292 C.ar    1  LIG1        0.1057
     30 N          -6.0509    1.4176    0.0716 N.ar    1  LIG1       -0.3488
     31 H          -5.3211    1.9401    0.5292 H       1  LIG1        0.1661
     32 H          -7.4868   -1.3802   -0.8379 H       1  LIG1        0.0676
     33 O          -9.4756    0.7982   -0.5234 O.3     1  LIG1       -0.4929
     34 C         -10.1112   -0.4010   -0.9404 C.3     1  LIG1        0.0789
     35 H         -11.1748   -0.1741   -1.0296 H       1  LIG1        0.0660
     36 H          -9.7282   -0.7375   -1.9119 H       1  LIG1        0.0660
     37 H          -9.9713   -1.2031   -0.2046 H       1  LIG1        0.0660
     38 C          -7.7892    3.1839    0.3312 C.ar    1  LIG1        0.0701
     39 C          -7.0645    4.3258    0.6792 C.ar    1  LIG1        0.0069
     40 C          -8.0102    5.3697    0.8744 C.ar    1  LIG1        0.1379
     41 C          -9.2747    4.8586    0.6457 C.ar    1  LIG1        0.0444
     42 N          -9.1176    3.5297    0.3185 N.ar    1  LIG1       -0.3564
     43 H          -9.8473    2.8740    0.0843 H       1  LIG1        0.1655
     44 H         -10.2402    5.3352    0.6909 H       1  LIG1        0.0844
     45 H          -5.9906    4.3960    0.7681 H       1  LIG1        0.0676
     46 O          -7.7959    6.6746    1.2235 O.3     1  LIG1       -0.4936
     47 C          -6.4467    7.0405    1.4384 C.3     1  LIG1        0.0789
     48 H          -6.4514    8.0970    1.7136 H       1  LIG1        0.0660
     49 H          -5.9926    6.4591    2.2530 H       1  LIG1        0.0660
     50 H          -5.8400    6.9089    0.5314 H       1  LIG1        0.0660
@<TRIPOS>BOND
     1    13    10    1
     2    36    34    1
     3    11    10    1
     4    10     9    1
     5    10    12    1
     6    35    34    1
     7    34    33    1
     8    34    37    1
     9     8     2    1
    10    32    27    1
    11     9     3    1
    12     2     3   ar
    13     2     1   ar
    14     3     4   ar
    15    19    18    1
    16     1     7    1
    17     1     5   ar
    18    33    28    1
    19    27    28   ar
    20    27    26   ar
    21     4     5   ar
    22     4    14    1
    23     5     6    1
    24    28    29   ar
    25    18    14   ar
    26    18    17   ar
    27    14    15   ar
    28    17    26    1
    29    17    16   ar
    30    26    30   ar
    31    15    16   ar
    32    15    20    1
    33    16    21    1
    34    21    22    1
    35    29    30   ar
    36    29    38    1
    37    30    31    1
    38    43    42    1
    39    42    38   ar
    40    42    41   ar
    41    38    39   ar
    42    50    47    1
    43    41    44    1
    44    41    40   ar
    45    39    45    1
    46    39    40   ar
    47    40    46    1
    48    46    47    1
    49    23    22    1
    50    22    24    1
    51    22    25    1
    52    47    48    1
    53    47    49    1
