@<TRIPOS>MOLECULE
mol_data/opt/b3lyp/geoms/mol2/13al13al13al-13al.out
 50 53 0 0 0
SMALL
GASTEIGER

@<TRIPOS>ATOM
      1 C           1.3819   -0.0976   -0.0044 C.ar    1  LIG1        0.0058
      2 C           0.8798    1.1888   -0.0034 C.ar    1  LIG1       -0.0019
      3 C          -0.5365    1.0758    0.0000 C.ar    1  LIG1        0.1467
      4 C          -0.8802   -0.2771   -0.0005 C.ar    1  LIG1        0.1052
      5 N           0.3243   -0.9686   -0.0034 N.ar    1  LIG1       -0.3566
      6 H           0.4210   -1.9695   -0.0046 H       1  LIG1        0.1655
      7 H           2.4004   -0.4531   -0.0064 H       1  LIG1        0.0808
      8 H           1.4653    2.0950   -0.0043 H       1  LIG1        0.0669
      9 O          -1.4792    2.0641    0.0031 O.3     1  LIG1       -0.4929
     10 C          -0.9836    3.3923    0.0029 C.3     1  LIG1        0.0789
     11 H          -1.8564    4.0473    0.0053 H       1  LIG1        0.0660
     12 H          -0.3769    3.5960    0.8952 H       1  LIG1        0.0660
     13 H          -0.3810    3.5973   -0.8919 H       1  LIG1        0.0660
     14 C          -2.1802   -0.8980    0.0016 C.ar    1  LIG1        0.0705
     15 C          -3.4413   -0.3002    0.0044 C.ar    1  LIG1        0.0076
     16 C          -4.3938   -1.3443    0.0064 C.ar    1  LIG1        0.1473
     17 C          -3.7296   -2.5690    0.0034 C.ar    1  LIG1        0.1057
     18 N          -2.3769   -2.2629    0.0006 N.ar    1  LIG1       -0.3488
     19 H          -1.6605   -2.9684   -0.0021 H       1  LIG1        0.1661
     20 H          -3.6107    0.7635    0.0056 H       1  LIG1        0.0676
     21 O          -5.7637   -1.2727    0.0104 O.3     1  LIG1       -0.4929
     22 C          -6.3144    0.0362    0.0136 C.3     1  LIG1        0.0789
     23 H          -7.3990   -0.0834    0.0167 H       1  LIG1        0.0660
     24 H          -6.0074    0.5949    0.9066 H       1  LIG1        0.0660
     25 H          -6.0127    0.5968   -0.8801 H       1  LIG1        0.0660
     26 C          -4.2406   -3.9113    0.0033 C.ar    1  LIG1        0.0706
     27 C          -3.6081   -5.1463    0.0006 C.ar    1  LIG1        0.0076
     28 C          -4.6109   -6.1469    0.0027 C.ar    1  LIG1        0.1473
     29 C          -5.8746   -5.5211    0.0073 C.ar    1  LIG1        0.1057
     30 N          -5.5864   -4.1570    0.0062 N.ar    1  LIG1       -0.3488
     31 H          -6.2706   -3.4176    0.0130 H       1  LIG1        0.1661
     32 H          -2.5479   -5.3528   -0.0034 H       1  LIG1        0.0676
     33 O          -4.1669   -7.4459   -0.0034 O.3     1  LIG1       -0.4929
     34 C          -5.0497   -8.5391   -0.0126 C.3     1  LIG1        0.0789
     35 H          -4.4267   -9.4362   -0.0283 H       1  LIG1        0.0660
     36 H          -5.6692   -8.5747    0.8957 H       1  LIG1        0.0660
     37 H          -5.6823   -8.5502   -0.9120 H       1  LIG1        0.0660
     38 C          -7.2909   -5.8662    0.0133 C.ar    1  LIG1        0.0701
     39 C          -8.3711   -4.9763   -0.0018 C.ar    1  LIG1        0.0069
     40 C          -9.5662   -5.7447    0.0140 C.ar    1  LIG1        0.1379
     41 C          -9.2160   -7.0777    0.0367 C.ar    1  LIG1        0.0444
     42 N          -7.8352   -7.1278    0.0365 N.ar    1  LIG1       -0.3564
     43 H          -7.3108   -7.9811    0.0558 H       1  LIG1        0.1655
     44 H          -9.8242   -7.9668    0.0535 H       1  LIG1        0.0844
     45 H          -8.3119   -3.8994   -0.0245 H       1  LIG1        0.0676
     46 O         -10.8651   -5.3201    0.0080 O.3     1  LIG1       -0.4936
     47 C         -11.0569   -3.9179   -0.0168 C.3     1  LIG1        0.0789
     48 H         -12.1360   -3.7534   -0.0182 H       1  LIG1        0.0660
     49 H         -10.6208   -3.4326    0.8673 H       1  LIG1        0.0660
     50 H         -10.6233   -3.4645   -0.9188 H       1  LIG1        0.0660
@<TRIPOS>BOND
     1    50    47    1
     2    37    34    1
     3    13    10    1
     4    25    22    1
     5    35    34    1
     6    45    39    1
     7    48    47    1
     8    47    46    1
     9    47    49    1
    10    34    33    1
    11    34    36    1
    12     7     1    1
    13     6     5    1
    14     1     2   ar
    15     1     5   ar
    16     8     2    1
    17    33    28    1
    18     2     3   ar
    19    32    27    1
    20     5     4   ar
    21    19    18    1
    22    39    38   ar
    23    39    40   ar
    24     4     3   ar
    25     4    14    1
    26     3     9    1
    27    18    14   ar
    28    18    17   ar
    29    27    28   ar
    30    27    26   ar
    31    14    15   ar
    32    28    29   ar
    33    10     9    1
    34    10    11    1
    35    10    12    1
    36    26    17    1
    37    26    30   ar
    38    17    16   ar
    39    15    20    1
    40    15    16   ar
    41    30    29   ar
    42    30    31    1
    43    16    21    1
    44    29    38    1
    45    46    40    1
    46    21    22    1
    47    38    42   ar
    48    22    23    1
    49    22    24    1
    50    40    41   ar
    51    42    41   ar
    52    42    43    1
    53    41    44    1
