@<TRIPOS>MOLECULE
mol_data/opt/b3lyp/geoms/mol2/13al4ei6eh13al.out
 54 57 0 0 0
SMALL
GASTEIGER

@<TRIPOS>ATOM
      1 C           1.4704   -0.2792    0.2005 C.ar    1  LIG1        0.0057
      2 C           1.1132    1.0534    0.2775 C.ar    1  LIG1       -0.0019
      3 C          -0.3045    1.1059    0.1631 C.ar    1  LIG1        0.1452
      4 C          -0.7867   -0.1935    0.0122 C.ar    1  LIG1        0.0899
      5 N           0.3307   -1.0187    0.0715 N.ar    1  LIG1       -0.3577
      6 H           0.2972   -2.0051   -0.1300 H       1  LIG1        0.1654
      7 H           2.4446   -0.7441    0.2172 H       1  LIG1        0.0808
      8 H           1.7907    1.8824    0.4136 H       1  LIG1        0.0669
      9 O          -1.1243    2.1874    0.2568 O.3     1  LIG1       -0.4930
     10 C          -0.4854    3.4458    0.3731 C.3     1  LIG1        0.0789
     11 H          -1.2809    4.1920    0.4064 H       1  LIG1        0.0660
     12 H           0.1111    3.5134    1.2932 H       1  LIG1        0.0660
     13 H           0.1658    3.6500   -0.4872 H       1  LIG1        0.0660
     14 C          -3.1507   -0.2291   -0.8998 C.ar    1  LIG1        0.0345
     15 C          -4.4191   -0.8350   -0.8885 C.ar    1  LIG1       -0.0376
     16 C          -2.1351   -0.7541   -0.0600 C.ar    1  LIG1        0.0175
     17 C          -4.7101   -1.9604   -0.1150 C.ar    1  LIG1       -0.0111
     18 H          -5.1872   -0.4262   -1.5369 H       1  LIG1        0.0636
     19 C          -2.4494   -1.8834    0.7171 C.ar    1  LIG1       -0.0478
     20 C          -3.6989   -2.5039    0.7102 C.ar    1  LIG1       -0.0420
     21 H          -1.6886   -2.2656    1.3928 H       1  LIG1        0.0627
     22 C          -2.9254    0.8475   -1.8109 C.1     1  LIG1       -0.0690
     23 C          -2.7908    1.7303   -2.6279 C.1     1  LIG1       -0.1139
     24 H          -2.6477    2.5153   -3.3330 H       1  LIG1        0.1232
     25 C          -3.9516   -3.6941    1.6038 C.3     1  LIG1       -0.0391
     26 H          -3.1420   -3.8152    2.3285 H       1  LIG1        0.0278
     27 H          -4.0249   -4.6180    1.0205 H       1  LIG1        0.0278
     28 H          -4.8903   -3.5887    2.1569 H       1  LIG1        0.0278
     29 C          -6.4129   -3.7707   -0.7214 C.ar    1  LIG1        0.1217
     30 C          -6.0941   -2.5141   -0.1550 C.ar    1  LIG1        0.0180
     31 C          -7.1606   -1.7541    0.3295 C.ar    1  LIG1       -0.0285
     32 C          -8.4746   -2.2289    0.2952 C.ar    1  LIG1        0.0530
     33 C          -8.6795   -3.5389   -0.2205 C.ar    1  LIG1        0.1092
     34 N          -7.6674   -4.2506   -0.7360 N.ar    1  LIG1       -0.2345
     35 H          -6.9613   -0.7665    0.7381 H       1  LIG1        0.0643
     36 C          -5.4125   -4.5914   -1.3414 C.1     1  LIG1       -0.0492
     37 C          -4.5777   -5.2878   -1.8729 C.1     1  LIG1       -0.1124
     38 H          -3.8465   -5.8975   -2.3507 H       1  LIG1        0.1232
     39 N          -9.5306   -1.4621    0.7743 N.pl3   1  LIG1       -0.3563
     40 H          -9.3247   -0.4752    0.8594 H       1  LIG1        0.1424
     41 H         -10.4133   -1.6290    0.3067 H       1  LIG1        0.1424
     42 C          -9.9867   -4.1879   -0.2743 C.ar    1  LIG1        0.0704
     43 C         -11.2151   -3.9694    0.3627 C.ar    1  LIG1        0.0070
     44 C         -12.0947   -4.9922   -0.0799 C.ar    1  LIG1        0.1379
     45 C         -11.4019   -5.8025   -0.9663 C.ar    1  LIG1        0.0444
     46 N         -10.1346   -5.2945   -1.0674 N.ar    1  LIG1       -0.3563
     47 H          -9.3516   -5.6753   -1.5790 H       1  LIG1        0.1655
     48 H         -11.7274   -6.6711   -1.5158 H       1  LIG1        0.0844
     49 H         -11.4164   -3.2276    1.1186 H       1  LIG1        0.0676
     50 O         -13.3999   -5.2142    0.2513 O.3     1  LIG1       -0.4936
     51 C         -13.9584   -4.3176    1.1949 C.3     1  LIG1        0.0789
     52 H         -14.9942   -4.6285    1.3414 H       1  LIG1        0.0660
     53 H         -13.4299   -4.3602    2.1569 H       1  LIG1        0.0660
     54 H         -13.9418   -3.2820    0.8280 H       1  LIG1        0.0660
@<TRIPOS>BOND
     1    24    23    1
     2    23    22    3
     3    38    37    1
     4    37    36    3
     5    22    14    1
     6    47    46    1
     7    18    15    1
     8    48    45    1
     9    36    29    1
    10    46    45   ar
    11    46    42   ar
    12    45    44   ar
    13    14    15   ar
    14    14    16   ar
    15    15    17   ar
    16    34    29   ar
    17    34    33   ar
    18    29    30   ar
    19    13    10    1
    20    42    33    1
    21    42    43   ar
    22    33    32   ar
    23    30    17    1
    24    30    31   ar
    25     6     5    1
    26    17    20   ar
    27    44    50    1
    28    44    43   ar
    29    16     4    1
    30    16    19   ar
    31     4     5   ar
    32     4     3   ar
    33     5     1   ar
    34     3     9    1
    35     3     2   ar
    36     1     7    1
    37     1     2   ar
    38    50    51    1
    39     9    10    1
    40     2     8    1
    41    32    31   ar
    42    32    39    1
    43    41    39    1
    44    31    35    1
    45    43    49    1
    46    10    11    1
    47    10    12    1
    48    20    19   ar
    49    20    25    1
    50    19    21    1
    51    39    40    1
    52    54    51    1
    53    27    25    1
    54    51    52    1
    55    51    53    1
    56    25    28    1
    57    25    26    1
