@<TRIPOS>MOLECULE
mol_data/opt/b3lyp/geoms/mol2/13al12ea-13el6li.out
 53 56 0 0 0
SMALL
GASTEIGER

@<TRIPOS>ATOM
      1 C           1.2150   -0.1814    0.7353 C.ar    1  LIG1        0.0058
      2 C           0.9390    1.0896    0.2626 C.ar    1  LIG1       -0.0018
      3 C          -0.4568    1.1398    0.0053 C.ar    1  LIG1        0.1483
      4 C          -1.0085   -0.1030    0.3356 C.ar    1  LIG1        0.1255
      5 N           0.0522   -0.8896    0.7676 N.ar    1  LIG1       -0.3553
      6 H          -0.0631   -1.8319    1.1025 H       1  LIG1        0.1655
      7 H           2.1500   -0.6201    1.0493 H       1  LIG1        0.0808
      8 H           1.6599    1.8783    0.1130 H       1  LIG1        0.0669
      9 O          -1.1949    2.1536   -0.5078 O.3     1  LIG1       -0.4929
     10 C          -0.4993    3.3557   -0.7947 C.3     1  LIG1        0.0789
     11 H          -1.2429    4.0509   -1.1863 H       1  LIG1        0.0660
     12 H          -0.0442    3.7818    0.1089 H       1  LIG1        0.0660
     13 H           0.2828    3.1978   -1.5491 H       1  LIG1        0.0660
     14 C          -2.3347   -0.6419    0.2696 C.ar    1  LIG1        0.1707
     15 C          -3.6261   -0.1309    0.2431 C.ar    1  LIG1        0.0726
     16 C          -4.5076   -1.2651    0.2055 C.ar    1  LIG1        0.0018
     17 C          -3.7283   -2.3866    0.2279 C.ar    1  LIG1        0.1544
     18 O          -2.3973   -2.0166    0.2647 O.2     1  LIG1       -0.4505
     19 C          -4.0488    1.2196    0.3117 C.1     1  LIG1       -0.0658
     20 C          -4.4773    2.3490    0.3884 C.1     1  LIG1       -0.1138
     21 H          -4.8329    3.3503    0.4555 H       1  LIG1        0.1232
     22 H          -5.5853   -1.2371    0.1770 H       1  LIG1        0.0668
     23 C          -3.9895   -3.7969    0.2122 C.ar    1  LIG1        0.1018
     24 C          -5.2015   -4.5100    0.2705 C.ar    1  LIG1        0.0951
     25 C          -4.8517   -5.8944    0.2095 C.ar    1  LIG1        0.1614
     26 C          -3.4614   -6.0051    0.1190 C.ar    1  LIG1        0.0956
     27 N          -2.9794   -4.7080    0.1320 N.ar    1  LIG1       -0.3477
     28 H          -1.9995   -4.4944    0.0209 H       1  LIG1        0.1661
     29 C          -6.4958   -3.9587    0.4177 C.1     1  LIG1       -0.0637
     30 C          -7.6053   -3.4847    0.5390 C.1     1  LIG1       -0.1137
     31 H          -8.5793   -3.0750    0.6724 H       1  LIG1        0.1232
     32 O          -5.7134   -6.9520    0.2809 O.3     1  LIG1       -0.4917
     33 C          -6.6803   -7.0274   -0.7754 C.3     1  LIG1        0.0789
     34 H          -7.2724   -7.9235   -0.5806 H       1  LIG1        0.0660
     35 H          -7.3344   -6.1511   -0.7781 H       1  LIG1        0.0660
     36 H          -6.1857   -7.1178   -1.7500 H       1  LIG1        0.0660
     37 C          -1.1957   -7.1114   -0.2120 C.ar    1  LIG1        0.2239
     38 C          -2.5961   -7.1765    0.0439 C.ar    1  LIG1        0.0637
     39 C          -3.1040   -8.4708    0.2222 C.ar    1  LIG1       -0.0430
     40 C          -2.2837   -9.6028    0.1342 C.ar    1  LIG1       -0.0315
     41 C          -0.9359   -9.3842   -0.1320 C.ar    1  LIG1        0.0343
     42 N          -0.4046   -8.1621   -0.2983 N.ar    1  LIG1       -0.2205
     43 H          -4.1608   -8.5814    0.4351 H       1  LIG1        0.0629
     44 H          -0.2430  -10.2197   -0.2144 H       1  LIG1        0.0833
     45 O          -0.6331   -5.8735   -0.3797 O.3     1  LIG1       -0.4792
     46 C           0.7654   -5.8318   -0.6853 C.3     1  LIG1        0.0804
     47 H           1.0016   -4.7738   -0.8109 H       1  LIG1        0.0660
     48 H           1.3579   -6.2647    0.1248 H       1  LIG1        0.0660
     49 H           0.9810   -6.3808   -1.6051 H       1  LIG1        0.0660
     50 C          -2.8373  -10.9928    0.3268 C.3     1  LIG1       -0.0383
     51 H          -2.0540  -11.7483    0.2185 H       1  LIG1        0.0278
     52 H          -3.6211  -11.2177   -0.4052 H       1  LIG1        0.0278
     53 H          -3.2813  -11.1130    1.3215 H       1  LIG1        0.0278
@<TRIPOS>BOND
     1    36    33    1
     2    49    46    1
     3    13    10    1
     4    11    10    1
     5    47    46    1
     6    10     9    1
     7    10    12    1
     8    35    33    1
     9    33    34    1
    10    33    32    1
    11    46    45    1
    12    46    48    1
    13     9     3    1
    14    52    50    1
    15    45    37    1
    16    42    37   ar
    17    42    41   ar
    18    44    41    1
    19    37    38   ar
    20    41    40   ar
    21     3     2   ar
    22     3     4   ar
    23    28    27    1
    24    38    26    1
    25    38    39   ar
    26     8     2    1
    27    26    27   ar
    28    26    25   ar
    29    27    23   ar
    30    40    39   ar
    31    40    50    1
    32    22    16    1
    33    16    17   ar
    34    16    15   ar
    35    25    24   ar
    36    25    32    1
    37    23    17    1
    38    23    24   ar
    39    51    50    1
    40    39    43    1
    41    17    18   ar
    42    15    14   ar
    43    15    19    1
    44     2     1   ar
    45    18    14   ar
    46    14     4    1
    47    24    29    1
    48    19    20    3
    49    50    53    1
    50     4     5   ar
    51    20    21    1
    52    29    30    3
    53    30    31    1
    54     1     5   ar
    55     1     7    1
    56     5     6    1
