@<TRIPOS>MOLECULE
mol_data/opt/b3lyp/geoms/mol2/13al13al13al13al.out
 50 53 0 0 0
SMALL
GASTEIGER

@<TRIPOS>ATOM
      1 C           1.4132   -0.1453   -0.1304 C.ar    1  LIG1        0.0058
      2 C           0.9974    1.1442   -0.3981 C.ar    1  LIG1       -0.0019
      3 C          -0.4231    1.1439   -0.3176 C.ar    1  LIG1        0.1467
      4 C          -0.8498   -0.1465   -0.0103 C.ar    1  LIG1        0.1052
      5 N           0.3018   -0.9196    0.0802 N.ar    1  LIG1       -0.3566
      6 H           0.3163   -1.8429    0.4825 H       1  LIG1        0.1655
      7 H           2.4069   -0.5629   -0.0761 H       1  LIG1        0.0808
      8 H           1.6404    1.9779   -0.6356 H       1  LIG1        0.0669
      9 O          -1.3009    2.1706   -0.5104 O.3     1  LIG1       -0.4929
     10 C          -0.7296    3.4096   -0.8966 C.3     1  LIG1        0.0789
     11 H          -1.5604    4.1049   -1.0270 H       1  LIG1        0.0660
     12 H          -0.0515    3.7989   -0.1254 H       1  LIG1        0.0660
     13 H          -0.1795    3.3220   -1.8428 H       1  LIG1        0.0660
     14 C          -2.1717   -0.6899    0.1579 C.ar    1  LIG1        0.0705
     15 C          -3.3739   -0.0639    0.4457 C.ar    1  LIG1        0.0076
     16 C          -4.3775   -1.0714    0.4699 C.ar    1  LIG1        0.1473
     17 C          -3.7870   -2.3020    0.2107 C.ar    1  LIG1        0.1057
     18 N          -2.4138   -2.0577    0.0601 N.ar    1  LIG1       -0.3488
     19 H          -1.8694   -2.6190   -0.5805 H       1  LIG1        0.1661
     20 H          -3.4867    0.9903    0.6417 H       1  LIG1        0.0676
     21 O          -5.7087   -0.9466    0.7336 O.3     1  LIG1       -0.4929
     22 C          -6.1649    0.3646    1.0265 C.3     1  LIG1        0.0789
     23 H          -7.2379    0.2833    1.2080 H       1  LIG1        0.0660
     24 H          -5.6764    0.7700    1.9222 H       1  LIG1        0.0660
     25 H          -5.9907    1.0488    0.1860 H       1  LIG1        0.0660
     26 C          -4.3532   -3.6214    0.1443 C.ar    1  LIG1        0.0706
     27 C          -5.6636   -4.0333   -0.0958 C.ar    1  LIG1        0.0076
     28 C          -5.6651   -5.4493   -0.0959 C.ar    1  LIG1        0.1473
     29 C          -4.3701   -5.9037    0.1504 C.ar    1  LIG1        0.1057
     30 N          -3.5905   -4.7608    0.2935 N.ar    1  LIG1       -0.3488
     31 H          -2.5970   -4.7713    0.4527 H       1  LIG1        0.1661
     32 H          -6.4946   -3.3651   -0.2542 H       1  LIG1        0.0676
     33 O          -6.7075   -6.3094   -0.2856 O.3     1  LIG1       -0.4929
     34 C          -7.9811   -5.7073   -0.4438 C.3     1  LIG1        0.0789
     35 H          -8.6964   -6.5239   -0.5564 H       1  LIG1        0.0660
     36 H          -8.2535   -5.1045    0.4325 H       1  LIG1        0.0660
     37 H          -8.0178   -5.0693   -1.3370 H       1  LIG1        0.0660
     38 C          -3.8422   -7.2371    0.2957 C.ar    1  LIG1        0.0701
     39 C          -4.2749   -8.4441   -0.2387 C.ar    1  LIG1        0.0069
     40 C          -3.3882   -9.4540    0.2350 C.ar    1  LIG1        0.1379
     41 C          -2.4391   -8.8590    1.0397 C.ar    1  LIG1        0.0444
     42 N          -2.7064   -7.4973    1.0422 N.ar    1  LIG1       -0.3564
     43 H          -2.3692   -6.8757    1.7602 H       1  LIG1        0.1655
     44 H          -1.6032   -9.2839    1.5713 H       1  LIG1        0.0844
     45 H          -5.1118   -8.5537   -0.9097 H       1  LIG1        0.0676
     46 O          -3.3905  -10.7930   -0.0358 O.3     1  LIG1       -0.4936
     47 C          -4.4464  -11.2518   -0.8614 C.3     1  LIG1        0.0789
     48 H          -4.3115  -12.3302   -0.9644 H       1  LIG1        0.0660
     49 H          -5.4286  -11.0521   -0.4124 H       1  LIG1        0.0660
     50 H          -4.4136  -10.7882   -1.8567 H       1  LIG1        0.0660
@<TRIPOS>BOND
     1    50    47    1
     2    13    10    1
     3    37    34    1
     4    11    10    1
     5    48    47    1
     6    45    39    1
     7    10     9    1
     8    10    12    1
     9    47    49    1
    10    47    46    1
    11     8     2    1
    12    19    18    1
    13    35    34    1
    14     9     3    1
    15    34    33    1
    16    34    36    1
    17     2     3   ar
    18     2     1   ar
    19     3     4   ar
    20    33    28    1
    21    32    27    1
    22    39    40   ar
    23    39    38   ar
    24     1     7    1
    25     1     5   ar
    26    28    27   ar
    27    28    29   ar
    28    27    26   ar
    29    46    40    1
    30     4     5   ar
    31     4    14    1
    32    18    14   ar
    33    18    17   ar
    34     5     6    1
    35    26    17    1
    36    26    30   ar
    37    29    30   ar
    38    29    38    1
    39    14    15   ar
    40    25    22    1
    41    17    16   ar
    42    40    41   ar
    43    30    31    1
    44    38    42   ar
    45    15    16   ar
    46    15    20    1
    47    16    21    1
    48    21    22    1
    49    22    23    1
    50    22    24    1
    51    41    42   ar
    52    41    44    1
    53    42    43    1
