@<TRIPOS>MOLECULE
mol_data/opt/b3lyp/geoms/mol2/13al12la-6fe-4ff4dh-6af-4ei-13fe-.out
 98 105 0 0 0
SMALL
GASTEIGER

@<TRIPOS>ATOM
      1 C           1.2337    0.8308   -0.2888 C.ar    1  LIG1        0.0058
      2 C           0.6575    1.6657   -1.2294 C.ar    1  LIG1       -0.0018
      3 C          -0.7457    1.4515   -1.1592 C.ar    1  LIG1        0.1484
      4 C          -1.0036    0.5067   -0.1679 C.ar    1  LIG1        0.1279
      5 N           0.2399    0.1462    0.3430 N.ar    1  LIG1       -0.3552
      6 H           0.3662   -0.5320    1.0768 H       1  LIG1        0.1655
      7 H           2.2716    0.6838   -0.0310 H       1  LIG1        0.0808
      8 H           1.1881    2.3348   -1.8893 H       1  LIG1        0.0669
      9 O          -1.7406    2.0318   -1.8903 O.3     1  LIG1       -0.4929
     10 C          -1.3208    2.8680   -2.9592 C.3     1  LIG1        0.0789
     11 H          -2.2301    3.2090   -3.4561 H       1  LIG1        0.0660
     12 H          -0.7603    3.7383   -2.5937 H       1  LIG1        0.0660
     13 H          -0.6987    2.3174   -3.6760 H       1  LIG1        0.0660
     14 C          -2.2198   -0.1479    0.2603 C.ar    1  LIG1        0.1967
     15 C          -3.4630    0.2125    0.7380 C.ar    1  LIG1        0.1678
     16 C          -4.2349   -0.9791    0.9039 C.ar    1  LIG1        0.0269
     17 C          -3.4348   -2.0291    0.5488 C.ar    1  LIG1        0.1445
     18 O          -2.2122   -1.5470    0.1538 O.2     1  LIG1       -0.4493
     19 O          -3.9964    1.4095    1.0630 O.3     1  LIG1       -0.4912
     20 C          -3.1346    2.5478    1.1006 C.3     1  LIG1        0.0790
     21 H          -3.7458    3.3649    1.4873 H       1  LIG1        0.0660
     22 H          -2.2865    2.3765    1.7732 H       1  LIG1        0.0660
     23 H          -2.7685    2.7966    0.1015 H       1  LIG1        0.0660
     24 H          -5.2557   -1.0148    1.2526 H       1  LIG1        0.0692
     25 C          -2.7315   -4.3884   -0.0836 C.ar    1  LIG1        0.2239
     26 C          -3.6325   -3.4717    0.5300 C.ar    1  LIG1        0.0799
     27 C          -4.7567   -4.0347    1.1380 C.ar    1  LIG1       -0.0285
     28 C          -5.0002   -5.4132    1.1069 C.ar    1  LIG1        0.0516
     29 C          -4.0607   -6.2187    0.4122 C.ar    1  LIG1        0.0938
     30 N          -2.9549   -5.6952   -0.1307 N.ar    1  LIG1       -0.2111
     31 H          -5.4540   -3.3972    1.6708 H       1  LIG1        0.0639
     32 O          -1.5780   -4.0053   -0.6673 O.3     1  LIG1       -0.4919
     33 H          -1.4911   -3.0392   -0.6021 H       1  LIG1        0.2938
     34 C          -6.1071   -5.9449    1.8335 C.1     1  LIG1       -0.0675
     35 C          -7.0339   -6.3525    2.4963 C.1     1  LIG1       -0.1138
     36 H          -7.8447   -6.7412    3.0678 H       1  LIG1        0.1232
     37 C          -5.3520   -8.3363   -0.1521 C.ar    1  LIG1        0.1268
     38 C          -5.3990   -9.7283   -0.2128 C.ar    1  LIG1       -0.0083
     39 C          -4.1873   -7.6959    0.3032 C.ar    1  LIG1        0.0465
     40 C          -4.3165  -10.5341    0.1654 C.ar    1  LIG1        0.0283
     41 H          -6.3013  -10.2018   -0.5867 H       1  LIG1        0.0661
     42 C          -3.0838   -8.4936    0.6276 C.ar    1  LIG1       -0.0069
     43 C          -3.1330   -9.8837    0.5749 C.ar    1  LIG1        0.1254
     44 H          -2.1696   -7.9962    0.9409 H       1  LIG1        0.0662
     45 O          -6.3900   -7.5628   -0.5926 O.3     1  LIG1       -0.5061
     46 H          -7.1992   -8.0903   -0.5945 H       1  LIG1        0.2922
     47 O          -2.0504  -10.6486    0.9341 O.3     1  LIG1       -0.5061
     48 H          -1.3517  -10.0591    1.2466 H       1  LIG1        0.2922
     49 C          -5.5660  -12.7077    0.5899 C.ar    1  LIG1        0.0603
     50 C          -5.6328  -14.1041    0.4671 C.ar    1  LIG1       -0.0342
     51 C          -4.4267  -12.0146    0.1007 C.ar    1  LIG1        0.0048
     52 C          -4.6158  -14.8595   -0.1146 C.ar    1  LIG1        0.0056
     53 H          -6.5020  -14.6173    0.8650 H       1  LIG1        0.0637
     54 C          -3.4126  -12.7710   -0.4837 C.ar    1  LIG1       -0.0314
     55 C          -3.4750  -14.1690   -0.6064 C.ar    1  LIG1        0.0331
     56 H          -2.5356  -12.2579   -0.8619 H       1  LIG1        0.0643
     57 N          -7.5654  -11.5545    1.7769 N.1     1  LIG1       -0.1908
     58 C          -6.6533  -12.0474    1.2456 C.1     1  LIG1        0.0998
     59 N          -2.4170  -14.8420   -1.1901 N.pl3   1  LIG1       -0.3575
     60 H          -2.6074  -15.7604   -1.5643 H       1  LIG1        0.1423
     61 H          -1.7968  -14.2862   -1.7605 H       1  LIG1        0.1423
     62 C          -3.7495  -17.2254    0.1820 C.ar    1  LIG1        0.0363
     63 C          -4.7638  -16.3341   -0.2157 C.ar    1  LIG1        0.0055
     64 C          -5.9498  -16.9129   -0.6721 C.ar    1  LIG1       -0.0088
     65 C          -6.0954  -18.3013   -0.7294 C.ar    1  LIG1        0.1433
     66 C          -5.0085  -19.1144   -0.3202 C.ar    1  LIG1        0.1134
     67 N          -3.8731  -18.5487    0.1340 N.ar    1  LIG1       -0.2507
     68 H          -6.7851  -16.3017   -0.9981 H       1  LIG1        0.0661
     69 H          -2.8108  -16.8457    0.5785 H       1  LIG1        0.0836
     70 O          -7.3151  -18.7560   -1.1177 O.3     1  LIG1       -0.5046
     71 H          -7.2319  -19.6053   -1.5814 H       1  LIG1        0.2922
     72 C          -5.5184  -21.4850   -1.2254 C.ar    1  LIG1        0.0346
     73 C          -5.4678  -22.8707   -1.0147 C.ar    1  LIG1       -0.0362
     74 C          -5.0364  -20.6026   -0.2287 C.ar    1  LIG1        0.0196
     75 C          -4.9545  -23.4374    0.1614 C.ar    1  LIG1        0.0060
     76 H          -5.8350  -23.5224   -1.7972 H       1  LIG1        0.0637
     77 C          -4.5127  -21.1834    0.9336 C.ar    1  LIG1       -0.0477
     78 C          -4.4671  -22.5577    1.1654 C.ar    1  LIG1       -0.0405
     79 H          -4.1324  -20.5116    1.6956 H       1  LIG1        0.0627
     80 C          -6.0161  -21.0214   -2.4840 C.1     1  LIG1       -0.0690
     81 C          -6.4653  -20.6405   -3.5436 C.1     1  LIG1       -0.1139
     82 H          -6.8371  -20.3003   -4.4827 H       1  LIG1        0.1232
     83 C          -3.9300  -23.0351    2.4967 C.3     1  LIG1       -0.0391
     84 H          -3.9269  -22.2161    3.2198 H       1  LIG1        0.0278
     85 H          -2.8895  -23.3845    2.4267 H       1  LIG1        0.0278
     86 H          -4.5306  -23.8494    2.9125 H       1  LIG1        0.0278
     87 C          -4.9664  -24.8969    0.2746 C.ar    1  LIG1        0.0900
     88 C          -5.8106  -25.8336   -0.3110 C.ar    1  LIG1        0.1574
     89 C          -5.3932  -27.1458    0.0772 C.ar    1  LIG1        0.0839
     90 C          -4.2809  -26.9775    0.8948 C.ar    1  LIG1        0.0213
     91 N          -4.0451  -25.6454    1.0108 N.ar    1  LIG1       -0.3566
     92 H          -3.2563  -25.2486    1.4918 H       1  LIG1        0.1655
     93 H          -3.6647  -27.7138    1.3866 H       1  LIG1        0.0820
     94 O          -6.8709  -25.5497   -1.1127 O.3     1  LIG1       -0.5035
     95 H          -7.2983  -26.3903   -1.3383 H       1  LIG1        0.2923
     96 C          -6.0463  -28.3362   -0.3230 C.1     1  LIG1       -0.0645
     97 C          -6.6632  -29.3043   -0.7130 C.1     1  LIG1       -0.1137
     98 H          -7.1835  -30.1761   -1.0359 H       1  LIG1        0.1232
@<TRIPOS>BOND
     1    82    81    1
     2    13    10    1
     3    81    80    3
     4    11    10    1
     5    10    12    1
     6    10     9    1
     7    80    72    1
     8     9     3    1
     9     8     2    1
    10    76    73    1
    11    61    59    1
    12    71    70    1
    13    60    59    1
    14    95    94    1
    15     2     3   ar
    16     2     1   ar
    17    72    73   ar
    18    72    74   ar
    19    59    55    1
    20     3     4   ar
    21    70    65    1
    22    94    88    1
    23    98    97    1
    24    73    75   ar
    25    68    64    1
    26    56    54    1
    27    65    64   ar
    28    65    66   ar
    29    97    96    3
    30    64    63   ar
    31    32    33    1
    32    32    25    1
    33    55    54   ar
    34    55    52   ar
    35    46    45    1
    36    45    37    1
    37    41    38    1
    38    54    51   ar
    39    96    89    1
    40    66    74    1
    41    66    67   ar
    42    88    89   ar
    43    88    87   ar
    44     1     7    1
    45     1     5   ar
    46    74    77   ar
    47    63    52    1
    48    63    62   ar
    49    38    37   ar
    50    38    40   ar
    51     4    14    1
    52     4     5   ar
    53    37    39   ar
    54    30    25   ar
    55    30    29   ar
    56    52    50   ar
    57    25    26   ar
    58    89    90   ar
    59    51    40    1
    60    51    49   ar
    61    23    20    1
    62    67    62   ar
    63    18    14   ar
    64    18    17   ar
    65    75    87    1
    66    75    78   ar
    67    40    43   ar
    68    62    69    1
    69    14    15   ar
    70    87    91   ar
    71    39    29    1
    72    39    42   ar
    73     5     6    1
    74    29    28   ar
    75    50    49   ar
    76    50    53    1
    77    26    17    1
    78    26    27   ar
    79    17    16   ar
    80    43    42   ar
    81    43    47    1
    82    49    58    1
    83    42    44    1
    84    15    16   ar
    85    15    19    1
    86    90    91   ar
    87    90    93    1
    88    16    24    1
    89    77    78   ar
    90    77    79    1
    91    47    48    1
    92    91    92    1
    93    19    20    1
    94    20    21    1
    95    20    22    1
    96    28    27   ar
    97    28    34    1
    98    27    31    1
    99    78    83    1
   100    58    57    3
   101    34    35    3
   102    85    83    1
   103    35    36    1
   104    83    86    1
   105    83    84    1
