@<TRIPOS>MOLECULE
mol_data/opt/b3lyp/geoms/mol2/13al13al13al.out
 38 40 0 0 0
SMALL
GASTEIGER

@<TRIPOS>ATOM
      1 C           1.4534   -0.1893   -0.0022 C.ar    1  LIG1        0.0058
      2 C           1.0013    1.1152   -0.0014 C.ar    1  LIG1       -0.0019
      3 C          -0.4185    1.0577   -0.0002 C.ar    1  LIG1        0.1467
      4 C          -0.8158   -0.2806   -0.0002 C.ar    1  LIG1        0.1052
      5 N           0.3615   -1.0184   -0.0013 N.ar    1  LIG1       -0.3566
      6 H           0.4206   -2.0219   -0.0021 H       1  LIG1        0.1655
      7 H           2.4573   -0.5847   -0.0033 H       1  LIG1        0.0808
      8 H           1.6218    1.9981   -0.0016 H       1  LIG1        0.0669
      9 O          -1.3213    2.0825    0.0009 O.3     1  LIG1       -0.4929
     10 C          -0.7732    3.3897    0.0009 C.3     1  LIG1        0.0789
     11 H          -1.6189    4.0792    0.0018 H       1  LIG1        0.0660
     12 H          -0.1597    3.5692    0.8938 H       1  LIG1        0.0660
     13 H          -0.1613    3.5698   -0.8931 H       1  LIG1        0.0660
     14 C          -2.1404   -0.8474    0.0009 C.ar    1  LIG1        0.0705
     15 C          -3.3754   -0.2028    0.0016 C.ar    1  LIG1        0.0076
     16 C          -4.3737   -1.2052    0.0024 C.ar    1  LIG1        0.1473
     17 C          -3.7628   -2.4594    0.0022 C.ar    1  LIG1        0.1057
     18 N          -2.3939   -2.2053    0.0014 N.ar    1  LIG1       -0.3488
     19 H          -1.6892   -2.9212    0.0003 H       1  LIG1        0.1661
     20 H          -3.5032    0.8667    0.0015 H       1  LIG1        0.0676
     21 O          -5.7314   -1.0612    0.0033 O.3     1  LIG1       -0.4929
     22 C          -6.2095    0.2736    0.0036 C.3     1  LIG1        0.0789
     23 H          -7.2991    0.2108    0.0044 H       1  LIG1        0.0660
     24 H          -5.8773    0.8197    0.8962 H       1  LIG1        0.0660
     25 H          -5.8786    0.8196   -0.8896 H       1  LIG1        0.0660
     26 C          -4.3497   -3.7751    0.0030 C.ar    1  LIG1        0.0701
     27 C          -5.6957   -4.1401    0.0026 C.ar    1  LIG1        0.0069
     28 C          -5.7477   -5.5601    0.0036 C.ar    1  LIG1        0.1379
     29 C          -4.4549   -6.0451    0.0046 C.ar    1  LIG1        0.0444
     30 N          -3.6158   -4.9434    0.0042 N.ar    1  LIG1       -0.3564
     31 H          -2.6133   -5.0141    0.0048 H       1  LIG1        0.1655
     32 H          -4.0805   -7.0555    0.0056 H       1  LIG1        0.0844
     33 H          -6.5150   -3.4407    0.0018 H       1  LIG1        0.0676
     34 O          -6.8406   -6.3804    0.0038 O.3     1  LIG1       -0.4936
     35 C          -8.0974   -5.7270    0.0029 C.3     1  LIG1        0.0789
     36 H          -8.8544   -6.5136    0.0032 H       1  LIG1        0.0660
     37 H          -8.2286   -5.0995    0.8947 H       1  LIG1        0.0660
     38 H          -8.2280   -5.1007   -0.8899 H       1  LIG1        0.0660
@<TRIPOS>BOND
     1    13    10    1
     2    38    35    1
     3    25    22    1
     4     7     1    1
     5     1     2   ar
     6     1     5   ar
     7     6     5    1
     8     8     2    1
     9     2     3   ar
    10     5     4   ar
    11     3     4   ar
    12     3     9    1
    13     4    14    1
    14    19    18    1
    15    10     9    1
    16    10    11    1
    17    10    12    1
    18    14    18   ar
    19    14    15   ar
    20    18    17   ar
    21    20    15    1
    22    15    16   ar
    23    33    27    1
    24    17    16   ar
    25    17    26    1
    26    16    21    1
    27    27    26   ar
    28    27    28   ar
    29    35    36    1
    30    35    34    1
    31    35    37    1
    32    26    30   ar
    33    21    22    1
    34    22    23    1
    35    22    24    1
    36    28    34    1
    37    28    29   ar
    38    30    29   ar
    39    30    31    1
    40    29    32    1
