@<TRIPOS>MOLECULE
mol_data/opt/b3lyp/geoms/mol2/13al13dl-6fa6ee.out
 50 53 0 0 0
SMALL
GASTEIGER

@<TRIPOS>ATOM
      1 C           1.2528   -0.0229   -0.9678 C.ar    1  LIG1        0.0058
      2 C           0.7431    1.2096   -1.3270 C.ar    1  LIG1       -0.0019
      3 C          -0.6398    1.1948   -0.9968 C.ar    1  LIG1        0.1467
      4 C          -0.9444   -0.0464   -0.4346 C.ar    1  LIG1        0.1065
      5 N           0.2373   -0.7862   -0.4642 N.ar    1  LIG1       -0.3565
      6 H           0.3734   -1.6431    0.0484 H       1  LIG1        0.1655
      7 H           2.2607   -0.4046   -1.0296 H       1  LIG1        0.0808
      8 H           1.2963    2.0138   -1.7868 H       1  LIG1        0.0669
      9 O          -1.5854    2.1361   -1.2104 O.3     1  LIG1       -0.4929
     10 C          -1.1357    3.4043   -1.6697 C.3     1  LIG1        0.0789
     11 H          -2.0216    4.0372   -1.7206 H       1  LIG1        0.0660
     12 H          -0.4132    3.8459   -0.9729 H       1  LIG1        0.0660
     13 H          -0.6808    3.3290   -2.6658 H       1  LIG1        0.0660
     14 C          -2.1895   -0.6077    0.0127 C.ar    1  LIG1        0.0882
     15 C          -3.3252   -0.0297    0.5910 C.ar    1  LIG1        0.1207
     16 C          -4.2872   -1.0840    0.7867 C.ar    1  LIG1        0.1634
     17 C          -3.7292   -2.2746    0.3582 C.ar    1  LIG1        0.0956
     18 N          -2.4304   -1.9646   -0.0812 N.ar    1  LIG1       -0.3488
     19 H          -1.9566   -2.5315   -0.7718 H       1  LIG1        0.1661
     20 N          -3.6704    2.4173    1.3354 N.1     1  LIG1       -0.1907
     21 C          -3.4932    1.3224    0.9782 C.1     1  LIG1        0.1050
     22 O          -5.5501   -0.9659    1.2727 O.3     1  LIG1       -0.4917
     23 C          -5.6734   -0.4757    2.6184 C.3     1  LIG1        0.0789
     24 H          -6.7413   -0.4790    2.8403 H       1  LIG1        0.0660
     25 H          -5.1509   -1.1375    3.3187 H       1  LIG1        0.0660
     26 H          -5.2852    0.5420    2.7109 H       1  LIG1        0.0660
     27 C          -3.4586   -4.7843    0.4473 C.ar    1  LIG1        0.2223
     28 C          -4.2741   -3.6270    0.3156 C.ar    1  LIG1        0.0633
     29 C          -5.6449   -3.8625    0.1438 C.ar    1  LIG1       -0.0454
     30 C          -6.1262   -5.1649    0.0642 C.ar    1  LIG1       -0.0347
     31 C          -5.2155   -6.2263    0.1408 C.ar    1  LIG1        0.0775
     32 N          -3.9028   -6.0222    0.3411 N.ar    1  LIG1       -0.2124
     33 H          -6.3187   -3.0167    0.0704 H       1  LIG1        0.0626
     34 O          -2.1152   -4.6838    0.6788 O.3     1  LIG1       -0.4919
     35 H          -1.9334   -3.7971    1.0239 H       1  LIG1        0.2937
     36 H          -7.1871   -5.3544   -0.0540 H       1  LIG1        0.0639
     37 C          -5.2400   -8.6876    0.8325 C.ar    1  LIG1        0.1223
     38 C          -5.6693   -7.6331   -0.0157 C.ar    1  LIG1        0.0354
     39 C          -6.5651   -7.9556   -1.0365 C.ar    1  LIG1       -0.0330
     40 C          -6.9970   -9.2767   -1.2166 C.ar    1  LIG1        0.0435
     41 C          -6.4849  -10.2434   -0.3292 C.ar    1  LIG1        0.0444
     42 N          -5.6471   -9.9635    0.6611 N.ar    1  LIG1       -0.2448
     43 H          -6.9130   -7.1819   -1.7129 H       1  LIG1        0.0638
     44 H          -6.7800  -11.2845   -0.4386 H       1  LIG1        0.0842
     45 C          -4.3888   -8.4657    1.9630 C.1     1  LIG1       -0.0491
     46 C          -3.7043   -8.3317    2.9503 C.1     1  LIG1       -0.1124
     47 H          -3.0833   -8.2008    3.8059 H       1  LIG1        0.1232
     48 C          -7.9033   -9.6380   -2.2558 C.1     1  LIG1       -0.0681
     49 C          -8.6737   -9.9520   -3.1347 C.1     1  LIG1       -0.1139
     50 H          -9.3509  -10.2297   -3.9090 H       1  LIG1        0.1232
@<TRIPOS>BOND
     1    50    49    1
     2    49    48    3
     3    13    10    1
     4    48    40    1
     5     8     2    1
     6    11    10    1
     7    43    39    1
     8    10     9    1
     9    10    12    1
    10     2     3   ar
    11     2     1   ar
    12    40    39   ar
    13    40    41   ar
    14     9     3    1
    15    39    38   ar
    16     7     1    1
    17     3     4   ar
    18     1     5   ar
    19    19    18    1
    20     5     4   ar
    21     5     6    1
    22    44    41    1
    23     4    14    1
    24    41    42   ar
    25    18    14   ar
    26    18    17   ar
    27    36    30    1
    28    38    31    1
    29    38    37   ar
    30    14    15   ar
    31    30    31   ar
    32    30    29   ar
    33    33    29    1
    34    31    32   ar
    35    29    28   ar
    36    28    17    1
    37    28    27   ar
    38    32    27   ar
    39    17    16   ar
    40    27    34    1
    41    15    16   ar
    42    15    21    1
    43    42    37   ar
    44    34    35    1
    45    16    22    1
    46    37    45    1
    47    21    20    3
    48    22    23    1
    49    45    46    3
    50    23    26    1
    51    23    24    1
    52    23    25    1
    53    46    47    1
