@<TRIPOS>MOLECULE
mol_data/opt/b3lyp/geoms/mol2/13al13de-12af-6af-.out
 43 46 0 0 0
SMALL
GASTEIGER

@<TRIPOS>ATOM
      1 C           1.2155   -0.0858   -0.8071 C.ar    1  LIG1        0.0058
      2 C           0.9177    1.0559   -0.0900 C.ar    1  LIG1       -0.0019
      3 C          -0.4756    1.0117    0.1947 C.ar    1  LIG1        0.1467
      4 C          -0.9992   -0.1549   -0.3609 C.ar    1  LIG1        0.1064
      5 N           0.0753   -0.8293   -0.9397 N.ar    1  LIG1       -0.3566
      6 H          -0.0328   -1.5833   -1.6001 H       1  LIG1        0.1655
      7 H           2.1506   -0.4169   -1.2330 H       1  LIG1        0.0808
      8 H           1.6210    1.8183    0.2080 H       1  LIG1        0.0669
      9 O          -1.2331    1.8620    0.9236 O.3     1  LIG1       -0.4929
     10 C          -0.6356    3.0994    1.2870 C.3     1  LIG1        0.0789
     11 H          -1.4119    3.6711    1.7956 H       1  LIG1        0.0660
     12 H           0.2127    2.9489    1.9675 H       1  LIG1        0.0660
     13 H          -0.2979    3.6528    0.4026 H       1  LIG1        0.0660
     14 C          -2.3288   -0.7049   -0.3299 C.ar    1  LIG1        0.0858
     15 C          -3.5905   -0.1007   -0.3797 C.ar    1  LIG1        0.0946
     16 C          -4.5846   -1.1424   -0.3210 C.ar    1  LIG1        0.0709
     17 C          -3.8955   -2.3540   -0.2498 C.ar    1  LIG1        0.0995
     18 N          -2.5466   -2.0620   -0.2684 N.ar    1  LIG1       -0.3485
     19 H          -1.8338   -2.7494   -0.0762 H       1  LIG1        0.1661
     20 N          -4.1142    2.4068   -0.6958 N.1     1  LIG1       -0.1908
     21 C          -3.8637    1.2799   -0.5432 C.1     1  LIG1        0.1026
     22 C          -5.9870   -0.9682   -0.3555 C.1     1  LIG1       -0.0661
     23 C          -7.1873   -0.8114   -0.3848 C.1     1  LIG1       -0.1138
     24 H          -8.2403   -0.6515   -0.4130 H       1  LIG1        0.1232
     25 C          -4.3576   -3.7078   -0.1617 C.ar    1  LIG1        0.1566
     26 C          -5.6004   -4.2877   -0.0868 C.ar    1  LIG1        0.0279
     27 C          -5.3707   -5.6864    0.0035 C.ar    1  LIG1        0.1633
     28 C          -4.0054   -5.8982   -0.0069 C.ar    1  LIG1        0.1785
     29 O          -3.3821   -4.6689   -0.1269 O.2     1  LIG1       -0.4495
     30 H          -6.5518   -3.7808   -0.1022 H       1  LIG1        0.0693
     31 O          -6.3731   -6.6015    0.0669 O.3     1  LIG1       -0.5032
     32 H          -6.0311   -7.4676   -0.1944 H       1  LIG1        0.2923
     33 C          -1.8606   -7.0773   -0.4740 C.ar    1  LIG1        0.0386
     34 C          -3.1798   -7.0851    0.0313 C.ar    1  LIG1        0.0424
     35 C          -3.6577   -8.2932    0.5672 C.ar    1  LIG1       -0.0064
     36 C          -2.8303   -9.4145    0.5487 C.ar    1  LIG1        0.1355
     37 C          -1.5405   -9.2938    0.0168 C.ar    1  LIG1        0.0690
     38 N          -1.0663   -8.1454   -0.4750 N.ar    1  LIG1       -0.2589
     39 H          -4.6278   -8.3668    1.0480 H       1  LIG1        0.0662
     40 H          -0.8712  -10.1548   -0.0041 H       1  LIG1        0.0867
     41 H          -1.4499   -6.1633   -0.8931 H       1  LIG1        0.0837
     42 O          -3.3133  -10.5765    1.0700 O.3     1  LIG1       -0.5052
     43 H          -2.6290  -11.2577    1.0189 H       1  LIG1        0.2922
@<TRIPOS>BOND
     1     6     5    1
     2     7     1    1
     3     5     1   ar
     4     5     4   ar
     5    41    33    1
     6     1     2   ar
     7    20    21    3
     8    21    15    1
     9    38    33   ar
    10    38    37   ar
    11    33    34   ar
    12    24    23    1
    13    23    22    3
    14    15    14   ar
    15    15    16   ar
    16     4    14    1
    17     4     3   ar
    18    22    16    1
    19    14    18   ar
    20    16    17   ar
    21    18    17   ar
    22    18    19    1
    23    17    25    1
    24    32    31    1
    25    25    29   ar
    26    25    26   ar
    27    29    28   ar
    28    30    26    1
    29     2     3   ar
    30     2     8    1
    31    26    27   ar
    32    28    27   ar
    33    28    34    1
    34    40    37    1
    35    27    31    1
    36    37    36   ar
    37    34    35   ar
    38     3     9    1
    39    13    10    1
    40    36    35   ar
    41    36    42    1
    42    35    39    1
    43     9    10    1
    44    43    42    1
    45    10    11    1
    46    10    12    1
