@<TRIPOS>MOLECULE
mol_data/opt/b3lyp/geoms/mol2/13al6ah-4af-13la.out
 48 51 0 0 0
SMALL
GASTEIGER

@<TRIPOS>ATOM
      1 C           1.5887   -0.2155    1.0250 C.ar    1  LIG1        0.0057
      2 C           1.3543    1.0159    0.4422 C.ar    1  LIG1       -0.0019
      3 C          -0.0180    1.0356    0.0748 C.ar    1  LIG1        0.1453
      4 C          -0.5981   -0.1847    0.4298 C.ar    1  LIG1        0.0902
      5 N           0.4261   -0.9284    1.0016 N.ar    1  LIG1       -0.3577
      6 H           0.2877   -1.8184    1.4508 H       1  LIG1        0.1654
      7 H           2.4906   -0.6240    1.4550 H       1  LIG1        0.0808
      8 H           2.0848    1.7972    0.2996 H       1  LIG1        0.0669
      9 O          -0.7187    2.0317   -0.5436 O.3     1  LIG1       -0.4930
     10 C           0.0240    3.1886   -0.8935 C.3     1  LIG1        0.0789
     11 H          -0.6758    3.8677   -1.3832 H       1  LIG1        0.0660
     12 H           0.4437    3.6806   -0.0064 H       1  LIG1        0.0660
     13 H           0.8398    2.9469   -1.5871 H       1  LIG1        0.0660
     14 C          -2.2270   -2.0831    0.3781 C.ar    1  LIG1        0.0376
     15 C          -1.9451   -0.7064    0.2645 C.ar    1  LIG1        0.0217
     16 C          -3.0358    0.1224   -0.0278 C.ar    1  LIG1       -0.0283
     17 C          -4.3247   -0.4043   -0.1593 C.ar    1  LIG1        0.0515
     18 C          -4.5067   -1.8007    0.0481 C.ar    1  LIG1        0.0917
     19 N          -3.4465   -2.5961    0.2799 N.ar    1  LIG1       -0.2525
     20 H          -2.8771    1.1867   -0.1637 H       1  LIG1        0.0644
     21 H          -1.4258   -2.8047    0.5342 H       1  LIG1        0.0836
     22 N          -5.3840    0.4536   -0.4604 N.pl3   1  LIG1       -0.3563
     23 H          -5.0983    1.3111   -0.9150 H       1  LIG1        0.1424
     24 H          -6.1640    0.0151   -0.9326 H       1  LIG1        0.1424
     25 C          -7.0381   -1.8970    0.3695 C.ar    1  LIG1       -0.0517
     26 C          -8.2319   -2.6076    0.3020 C.ar    1  LIG1       -0.0484
     27 C          -5.8224   -2.4831   -0.0253 C.ar    1  LIG1        0.0056
     28 C          -8.3013   -3.9378   -0.1604 C.ar    1  LIG1        0.0433
     29 H          -9.1483   -2.1318    0.6249 H       1  LIG1        0.0625
     30 C          -5.8703   -3.8147   -0.4671 C.ar    1  LIG1       -0.0103
     31 C          -7.0630   -4.5192   -0.5359 C.ar    1  LIG1        0.1267
     32 H          -4.9378   -4.2993   -0.7450 H       1  LIG1        0.0661
     33 H          -7.0518   -0.8932    0.7789 H       1  LIG1        0.0624
     34 O          -7.0596   -5.8277   -0.9874 O.3     1  LIG1       -0.5061
     35 H          -6.1478   -6.0842   -1.1755 H       1  LIG1        0.2922
     36 C          -9.5737   -4.6446   -0.2273 C.ar    1  LIG1        0.0922
     37 C         -10.8796   -4.2366    0.0865 C.ar    1  LIG1        0.1453
     38 C         -11.7673   -5.3153   -0.1538 C.ar    1  LIG1       -0.0019
     39 C         -10.9928   -6.3676   -0.6118 C.ar    1  LIG1        0.0057
     40 N          -9.6974   -5.9606   -0.6520 N.ar    1  LIG1       -0.3576
     41 H          -8.8972   -6.5013   -0.9418 H       1  LIG1        0.1654
     42 H         -11.2782   -7.3660   -0.9070 H       1  LIG1        0.0808
     43 O         -11.1834   -2.9847    0.5450 O.3     1  LIG1       -0.4930
     44 C         -12.5526   -2.7364    0.8139 C.3     1  LIG1        0.0789
     45 H         -12.6159   -1.7049    1.1645 H       1  LIG1        0.0660
     46 H         -13.1666   -2.8505   -0.0891 H       1  LIG1        0.0660
     47 H         -12.9377   -3.4077    1.5928 H       1  LIG1        0.0660
     48 H         -12.8370   -5.3298   -0.0129 H       1  LIG1        0.0669
@<TRIPOS>BOND
     1    13    10    1
     2    11    10    1
     3    35    34    1
     4    34    31    1
     5    41    40    1
     6    24    22    1
     7    23    22    1
     8    42    39    1
     9    10     9    1
    10    10    12    1
    11    32    30    1
    12    40    39   ar
    13    40    36   ar
    14    39    38   ar
    15     9     3    1
    16    31    30   ar
    17    31    28   ar
    18    30    27   ar
    19    22    17    1
    20    36    28    1
    21    36    37   ar
    22    20    16    1
    23    28    26   ar
    24    17    16   ar
    25    17    18   ar
    26    38    48    1
    27    38    37   ar
    28    46    44    1
    29    16    15   ar
    30    27    18    1
    31    27    25   ar
    32    18    19   ar
    33     3     4   ar
    34     3     2   ar
    35    37    43    1
    36    15    14   ar
    37    15     4    1
    38    19    14   ar
    39     8     2    1
    40    26    25   ar
    41    26    29    1
    42    25    33    1
    43    14    21    1
    44     4     5   ar
    45     2     1   ar
    46    43    44    1
    47    44    45    1
    48    44    47    1
    49     5     1   ar
    50     5     6    1
    51     1     7    1
