@<TRIPOS>MOLECULE
mol_data/opt/b3lyp/geoms/mol2/13al13al-13al13al-.out
 50 53 0 0 0
SMALL
GASTEIGER

@<TRIPOS>ATOM
      1 C           1.2804   -0.3870    0.1019 C.ar    1  LIG1        0.0058
      2 C           0.9053    0.9415    0.0246 C.ar    1  LIG1       -0.0019
      3 C          -0.5143    0.9592    0.0047 C.ar    1  LIG1        0.1467
      4 C          -0.9826   -0.3521    0.0698 C.ar    1  LIG1        0.1052
      5 N           0.1448   -1.1520    0.1283 N.ar    1  LIG1       -0.3566
      6 H           0.1226   -2.1564    0.1833 H       1  LIG1        0.1655
      7 H           2.2609   -0.8359    0.1395 H       1  LIG1        0.0808
      8 H           1.5756    1.7865   -0.0125 H       1  LIG1        0.0669
      9 O          -1.3759    2.0265   -0.0648 O.3     1  LIG1       -0.4929
     10 C          -0.7708    3.3088   -0.1266 C.3     1  LIG1        0.0789
     11 H          -1.5842    4.0343   -0.1769 H       1  LIG1        0.0660
     12 H          -0.1635    3.5066    0.7659 H       1  LIG1        0.0660
     13 H          -0.1398    3.4094   -1.0189 H       1  LIG1        0.0660
     14 C          -2.3295   -0.8589    0.0794 C.ar    1  LIG1        0.0705
     15 C          -2.8319   -2.1611    0.1418 C.ar    1  LIG1        0.0076
     16 C          -4.2424   -2.0534    0.1182 C.ar    1  LIG1        0.1473
     17 C          -4.5945   -0.7047    0.0425 C.ar    1  LIG1        0.1057
     18 N          -3.4035   -0.0049    0.0208 N.ar    1  LIG1       -0.3488
     19 H          -3.2996    0.9972   -0.0314 H       1  LIG1        0.1661
     20 H          -2.2503   -3.0692    0.1967 H       1  LIG1        0.0676
     21 O          -5.1945   -3.0407    0.1583 O.3     1  LIG1       -0.4929
     22 C          -4.7100   -4.3716    0.2339 C.3     1  LIG1        0.0789
     23 H          -5.5866   -5.0210    0.2572 H       1  LIG1        0.0660
     24 H          -4.0963   -4.6228   -0.6409 H       1  LIG1        0.0660
     25 H          -4.1179   -4.5291    1.1447 H       1  LIG1        0.0660
     26 C          -5.8908   -0.0870   -0.0070 C.ar    1  LIG1        0.0706
     27 C          -6.2746    1.2548   -0.0833 C.ar    1  LIG1        0.0076
     28 C          -7.6892    1.2708   -0.1030 C.ar    1  LIG1        0.1473
     29 C          -8.1607   -0.0403   -0.0397 C.ar    1  LIG1        0.1057
     30 N          -7.0382   -0.8423    0.0179 N.ar    1  LIG1       -0.3488
     31 H          -7.0293   -1.8497    0.0709 H       1  LIG1        0.1661
     32 H          -5.6107    2.1053   -0.1194 H       1  LIG1        0.0676
     33 O          -8.5489    2.3411   -0.1714 O.3     1  LIG1       -0.4929
     34 C          -7.9411    3.6203   -0.2297 C.3     1  LIG1        0.0789
     35 H          -8.7519    4.3493   -0.2789 H       1  LIG1        0.0660
     36 H          -7.3330    3.8151    0.6634 H       1  LIG1        0.0660
     37 H          -7.3084    3.7221   -1.1212 H       1  LIG1        0.0660
     38 C          -9.5083   -0.5483   -0.0304 C.ar    1  LIG1        0.0701
     39 C         -10.0061   -1.8465    0.0330 C.ar    1  LIG1        0.0069
     40 C         -11.4221   -1.7487    0.0086 C.ar    1  LIG1        0.1379
     41 C         -11.7679   -0.4099   -0.0683 C.ar    1  LIG1        0.0444
     42 N         -10.5849    0.3043   -0.0910 N.ar    1  LIG1       -0.3564
     43 H         -10.4845    1.3059   -0.1434 H       1  LIG1        0.1655
     44 H         -12.7251    0.0829   -0.1076 H       1  LIG1        0.0844
     45 H          -9.4392   -2.7642    0.0903 H       1  LIG1        0.0676
     46 O         -12.2331   -2.8468    0.0569 O.3     1  LIG1       -0.4936
     47 C         -13.6202   -2.5712    0.0236 C.3     1  LIG1        0.0789
     48 H         -14.1346   -3.5329    0.0685 H       1  LIG1        0.0660
     49 H         -13.9277   -1.9547    0.8804 H       1  LIG1        0.0660
     50 H         -13.9039   -2.0507   -0.9023 H       1  LIG1        0.0660
@<TRIPOS>BOND
     1    37    34    1
     2    13    10    1
     3    50    47    1
     4    24    22    1
     5    35    34    1
     6    34    33    1
     7    34    36    1
     8    11    10    1
     9    33    28    1
    10    43    42    1
    11    10     9    1
    12    10    12    1
    13    32    27    1
    14    44    41    1
    15    28    27   ar
    16    28    29   ar
    17    42    41   ar
    18    42    38   ar
    19    27    26   ar
    20    41    40   ar
    21     9     3    1
    22    29    38    1
    23    29    30   ar
    24    19    18    1
    25    38    39   ar
    26     8     2    1
    27    26    30   ar
    28    26    17    1
    29     3     2   ar
    30     3     4   ar
    31    40    39   ar
    32    40    46    1
    33    30    31    1
    34    18    17   ar
    35    18    14   ar
    36    47    46    1
    37    47    48    1
    38    47    49    1
    39     2     1   ar
    40    39    45    1
    41    17    16   ar
    42     4    14    1
    43     4     5   ar
    44    14    15   ar
    45     1     5   ar
    46     1     7    1
    47    16    15   ar
    48    16    21    1
    49     5     6    1
    50    15    20    1
    51    21    22    1
    52    22    23    1
    53    22    25    1
