@<TRIPOS>MOLECULE
mol_data/opt/b3lyp/geoms/mol2/13da13da-13da-13da-.out
 38 41 0 0 0
SMALL
GASTEIGER

@<TRIPOS>ATOM
      1 C           1.3149   -0.4472   -0.3405 C.ar    1  LIG1        0.0197
      2 C           0.9108    0.8545   -0.6169 C.ar    1  LIG1        0.0696
      3 C          -0.5069    0.8949   -0.4802 C.ar    1  LIG1       -0.0175
      4 C          -0.9264   -0.3793   -0.1284 C.ar    1  LIG1        0.0654
      5 N           0.2054   -1.1746   -0.0515 N.ar    1  LIG1       -0.3583
      6 H           0.2020   -2.1547    0.2016 H       1  LIG1        0.1654
      7 H           2.3018   -0.8826   -0.3332 H       1  LIG1        0.0820
      8 N           2.4441    2.8378   -1.2456 N.1     1  LIG1       -0.1908
      9 C           1.7605    1.9392   -0.9628 C.1     1  LIG1        0.1007
     10 H          -1.1235    1.7714   -0.6154 H       1  LIG1        0.0652
     11 C          -2.2508   -0.8888    0.1303 C.ar    1  LIG1        0.0810
     12 C          -2.6927   -2.1418    0.5810 C.ar    1  LIG1        0.0790
     13 C          -4.1158   -2.1166    0.6455 C.ar    1  LIG1       -0.0169
     14 C          -4.5228   -0.8613    0.2402 C.ar    1  LIG1        0.0659
     15 N          -3.3764   -0.1260   -0.0526 N.ar    1  LIG1       -0.3508
     16 H          -3.3751    0.7338   -0.5799 H       1  LIG1        0.1660
     17 N          -1.0507   -4.0456    1.1653 N.1     1  LIG1       -0.1908
     18 C          -1.8280   -3.2122    0.9178 C.1     1  LIG1        0.1013
     19 H          -4.7570   -2.9211    0.9708 H       1  LIG1        0.0652
     20 C          -5.8455   -0.2936    0.1278 C.ar    1  LIG1        0.0810
     21 C          -7.0758   -0.8999   -0.1569 C.ar    1  LIG1        0.0790
     22 C          -8.0747    0.1143   -0.1704 C.ar    1  LIG1       -0.0169
     23 C          -7.4527    1.3173    0.1039 C.ar    1  LIG1        0.0659
     24 N          -6.1011    1.0485    0.2816 N.ar    1  LIG1       -0.3508
     25 H          -5.4018    1.7425    0.4941 H       1  LIG1        0.1660
     26 N          -7.4193   -3.4286   -0.5595 N.1     1  LIG1       -0.1908
     27 C          -7.2687   -2.2869   -0.3874 C.1     1  LIG1        0.1013
     28 H          -9.1280   -0.0279   -0.3572 H       1  LIG1        0.0652
     29 C          -7.9935    2.6540    0.2215 C.ar    1  LIG1        0.0805
     30 C          -9.0557    3.2664   -0.4500 C.ar    1  LIG1        0.0784
     31 C          -9.1717    4.6044    0.0427 C.ar    1  LIG1       -0.0263
     32 C          -8.1923    4.7755    0.9866 C.ar    1  LIG1        0.0035
     33 N          -7.4768    3.5994    1.0790 N.ar    1  LIG1       -0.3585
     34 H          -6.8149    3.3973    1.8124 H       1  LIG1        0.1654
     35 H          -7.9416    5.6290    1.5973 H       1  LIG1        0.0807
     36 N         -10.5065    2.1669   -2.2833 N.1     1  LIG1       -0.1908
     37 C          -9.8482    2.6630   -1.4606 C.1     1  LIG1        0.1013
     38 H          -9.8914    5.3397   -0.2835 H       1  LIG1        0.0645
@<TRIPOS>BOND
     1    36    37    3
     2    37    30    1
     3     8     9    3
     4     9     2    1
     5     2     3   ar
     6     2     1   ar
     7    10     3    1
     8    16    15    1
     9    26    27    3
    10     3     4   ar
    11    30    31   ar
    12    30    29   ar
    13    27    21    1
    14    28    22    1
    15     1     7    1
    16     1     5   ar
    17    38    31    1
    18    22    21   ar
    19    22    23   ar
    20    21    20   ar
    21     4     5   ar
    22     4    11    1
    23    15    11   ar
    24    15    14   ar
    25     5     6    1
    26    31    32   ar
    27    23    29    1
    28    23    24   ar
    29    20    14    1
    30    20    24   ar
    31    11    12   ar
    32    29    33   ar
    33    14    13   ar
    34    24    25    1
    35    12    13   ar
    36    12    18    1
    37    13    19    1
    38    18    17    3
    39    32    33   ar
    40    32    35    1
    41    33    34    1
