@<TRIPOS>MOLECULE
mol_data/opt/b3lyp/geoms/mol2/13da13da-13da.out
 29 31 0 0 0
SMALL
GASTEIGER

@<TRIPOS>ATOM
      1 C           1.2341   -0.3119   -0.0009 C.ar    1  LIG1        0.0197
      2 C           0.8140    1.0141   -0.0002 C.ar    1  LIG1        0.0696
      3 C          -0.6108    1.0091    0.0001 C.ar    1  LIG1       -0.0175
      4 C          -1.0172   -0.3170    0.0001 C.ar    1  LIG1        0.0654
      5 N           0.1275   -1.0983   -0.0004 N.ar    1  LIG1       -0.3583
      6 H           0.1338   -2.1101   -0.0006 H       1  LIG1        0.1654
      7 H           2.2302   -0.7261   -0.0014 H       1  LIG1        0.0820
      8 N           2.3605    3.0854   -0.0002 N.1     1  LIG1       -0.1908
      9 C           1.6652    2.1520   -0.0001 C.1     1  LIG1        0.1007
     10 H          -1.2440    1.8849    0.0004 H       1  LIG1        0.0652
     11 C          -2.3426   -0.8871    0.0005 C.ar    1  LIG1        0.0810
     12 C          -2.7789   -2.2240    0.0005 C.ar    1  LIG1        0.0790
     13 C          -4.2023   -2.2193    0.0010 C.ar    1  LIG1       -0.0169
     14 C          -4.6112   -0.8967    0.0014 C.ar    1  LIG1        0.0659
     15 N          -3.4673   -0.1143    0.0011 N.ar    1  LIG1       -0.3508
     16 H          -3.4711    0.8978    0.0013 H       1  LIG1        0.1660
     17 N          -1.1586   -4.2324   -0.0005 N.1     1  LIG1       -0.1908
     18 C          -1.9212   -3.3494    0.0001 C.1     1  LIG1        0.1013
     19 H          -4.8288   -3.0989    0.0010 H       1  LIG1        0.0652
     20 C          -5.9333   -0.3172    0.0020 C.ar    1  LIG1        0.0805
     21 C          -6.3536    1.0225    0.0026 C.ar    1  LIG1        0.0784
     22 C          -7.7834    1.0366    0.0028 C.ar    1  LIG1       -0.0263
     23 C          -8.1953   -0.2710    0.0029 C.ar    1  LIG1        0.0035
     24 N          -7.0750   -1.0744    0.0022 N.ar    1  LIG1       -0.3585
     25 H          -7.0898   -2.0820    0.0018 H       1  LIG1        0.1654
     26 H          -9.1858   -0.6985    0.0033 H       1  LIG1        0.0807
     27 N          -4.6764    2.9834    0.0024 N.1     1  LIG1       -0.1908
     28 C          -5.4716    2.1293    0.0026 C.1     1  LIG1        0.1013
     29 H          -8.4114    1.9142    0.0030 H       1  LIG1        0.0645
@<TRIPOS>BOND
     1     7     1    1
     2     1     5   ar
     3     1     2   ar
     4     6     5    1
     5    17    18    3
     6     5     4   ar
     7     8     9    3
     8     2     9    1
     9     2     3   ar
    10    18    12    1
    11     3     4   ar
    12     3    10    1
    13     4    11    1
    14    12    11   ar
    15    12    13   ar
    16    11    15   ar
    17    13    19    1
    18    13    14   ar
    19    15    16    1
    20    15    14   ar
    21    14    20    1
    22    25    24    1
    23    20    24   ar
    24    20    21   ar
    25    24    23   ar
    26    27    28    3
    27    21    28    1
    28    21    22   ar
    29    22    23   ar
    30    22    29    1
    31    23    26    1
