@<TRIPOS>MOLECULE
mol_data/opt/b3lyp/geoms/mol2/13da12ai4ah-4ll-.out
 52 55 0 0 0
SMALL
GASTEIGER

@<TRIPOS>ATOM
      1 C          -1.9886  -10.6580    9.9883 C.ar    1  LIG1        0.0035
      2 C          -2.5324  -10.2340   11.1770 C.ar    1  LIG1       -0.0283
      3 C          -3.7664   -9.5708   10.8818 C.ar    1  LIG1        0.0529
      4 C          -3.9378   -9.6321    9.4878 C.ar    1  LIG1        0.0980
      5 N          -2.8411  -10.2928    8.9800 N.ar    1  LIG1       -0.3573
      6 H          -2.6970  -10.4281    7.9899 H       1  LIG1        0.1655
      7 H          -1.0712  -11.1879    9.7814 H       1  LIG1        0.0807
      8 H          -2.1102  -10.3593   12.1627 H       1  LIG1        0.0645
      9 C          -4.5810   -8.9240   11.8449 C.1     1  LIG1       -0.0674
     10 C          -5.2236   -8.3745   12.7128 C.1     1  LIG1       -0.1138
     11 H          -5.7936   -7.8862   13.4684 H       1  LIG1        0.1232
     12 C          -4.9434   -9.1610    8.5683 C.ar    1  LIG1        0.1595
     13 C          -6.2666   -8.7796    8.6304 C.ar    1  LIG1        0.0391
     14 C          -6.6292   -8.4808    7.2788 C.ar    1  LIG1        0.1692
     15 C          -5.5381   -8.7172    6.4633 C.ar    1  LIG1        0.1801
     16 O          -4.5092   -9.1315    7.2637 O.2     1  LIG1       -0.4492
     17 C          -7.2104   -8.7662    9.7932 C.3     1  LIG1       -0.0325
     18 H          -8.2333   -8.9086    9.4324 H       1  LIG1        0.0280
     19 H          -7.1724   -7.8241   10.3506 H       1  LIG1        0.0280
     20 H          -6.9768   -9.5621   10.5023 H       1  LIG1        0.0280
     21 O          -7.8732   -8.1015    6.8566 O.3     1  LIG1       -0.4910
     22 C          -8.2246   -6.7449    7.1664 C.3     1  LIG1        0.0790
     23 H          -9.2301   -6.5922    6.7714 H       1  LIG1        0.0660
     24 H          -8.2272   -6.5701    8.2476 H       1  LIG1        0.0660
     25 H          -7.5303   -6.0434    6.6896 H       1  LIG1        0.0660
     26 C          -4.0646   -8.7600    4.3835 C.ar    1  LIG1        0.1247
     27 C          -5.3289   -8.6482    5.0324 C.ar    1  LIG1        0.0560
     28 C          -6.4280   -8.4331    4.1848 C.ar    1  LIG1       -0.0287
     29 C          -6.2871   -8.3777    2.7987 C.ar    1  LIG1        0.0800
     30 C          -4.9978   -8.6098    2.2347 C.ar    1  LIG1        0.1095
     31 N          -3.9363   -8.7548    3.0494 N.ar    1  LIG1       -0.2348
     32 H          -7.4085   -8.2928    4.6225 H       1  LIG1        0.0639
     33 C          -2.8149   -8.8696    5.0833 C.1     1  LIG1       -0.0491
     34 C          -1.7184   -8.9461    5.5898 C.1     1  LIG1       -0.1124
     35 H          -0.7519   -8.9833    6.0372 H       1  LIG1        0.1232
     36 N          -8.4108   -7.5822    1.5441 N.1     1  LIG1       -0.1908
     37 C          -7.4407   -7.9798    2.0501 C.1     1  LIG1        0.1014
     38 C          -4.6783   -8.6702    0.8234 C.ar    1  LIG1        0.1103
     39 C          -5.4035   -8.9615   -0.3399 C.ar    1  LIG1        0.1673
     40 C          -4.4977   -8.9388   -1.4409 C.ar    1  LIG1        0.0851
     41 C          -3.2433   -8.6606   -0.9104 C.ar    1  LIG1        0.0267
     42 N          -3.3588   -8.5247    0.4386 N.ar    1  LIG1       -0.3549
     43 H          -2.6239   -8.4254    1.1224 H       1  LIG1        0.1655
     44 H          -2.2904   -8.5686   -1.4116 H       1  LIG1        0.0827
     45 O          -6.7094   -9.3294   -0.3170 O.3     1  LIG1       -0.4911
     46 C          -7.5681   -8.8031   -1.3311 C.3     1  LIG1        0.0790
     47 H          -8.5847   -9.0405   -1.0168 H       1  LIG1        0.0660
     48 H          -7.4704   -7.7133   -1.4002 H       1  LIG1        0.0660
     49 H          -7.3566   -9.2665   -2.2992 H       1  LIG1        0.0660
     50 N          -4.8192   -9.2452   -2.7900 N.pl3   1  LIG1       -0.3540
     51 H          -5.3069   -8.4813   -3.2506 H       1  LIG1        0.1425
     52 H          -3.9809   -9.4421   -3.3269 H       1  LIG1        0.1425
@<TRIPOS>BOND
     1    52    50    1
     2    51    50    1
     3    50    40    1
     4    49    46    1
     5    40    41   ar
     6    40    39   ar
     7    44    41    1
     8    48    46    1
     9    46    47    1
    10    46    45    1
    11    41    42   ar
    12    39    45    1
    13    39    38   ar
    14    42    38   ar
    15    42    43    1
    16    38    30    1
    17    36    37    3
    18    37    29    1
    19    30    29   ar
    20    30    31   ar
    21    29    28   ar
    22    31    26   ar
    23    28    32    1
    24    28    27   ar
    25    26    27   ar
    26    26    33    1
    27    27    15    1
    28    33    34    3
    29    34    35    1
    30    15    16   ar
    31    15    14   ar
    32    25    22    1
    33    23    22    1
    34    21    22    1
    35    21    14    1
    36    22    24    1
    37    16    12   ar
    38    14    13   ar
    39     6     5    1
    40    12    13   ar
    41    12     4    1
    42    13    17    1
    43     5     4   ar
    44     5     1   ar
    45    18    17    1
    46     4     3   ar
    47     7     1    1
    48    17    19    1
    49    17    20    1
    50     1     2   ar
    51     3     2   ar
    52     3     9    1
    53     2     8    1
    54     9    10    3
    55    10    11    1
