@<TRIPOS>MOLECULE
mol_data/opt/b3lyp/geoms/mol2/13da12ha12fa-13ie-.out
 41 44 0 0 0
SMALL
GASTEIGER

@<TRIPOS>ATOM
      1 C           1.1840    0.2590   -0.4160 C.ar    1  LIG1        0.0197
      2 C           0.6857    1.4851    0.0007 C.ar    1  LIG1        0.0697
      3 C          -0.7160    1.3246    0.2418 C.ar    1  LIG1       -0.0159
      4 C          -1.0323    0.0047   -0.0446 C.ar    1  LIG1        0.0852
      5 N           0.1391   -0.6185   -0.4407 N.ar    1  LIG1       -0.3570
      6 H           0.1857   -1.5876   -0.7134 H       1  LIG1        0.1655
      7 H           2.1873   -0.0319   -0.6845 H       1  LIG1        0.0820
      8 N           2.0653    3.6503    0.3013 N.1     1  LIG1       -0.1908
      9 C           1.4479    2.6721    0.1659 C.1     1  LIG1        0.1007
     10 H          -1.3839    2.0753    0.6352 H       1  LIG1        0.0653
     11 C          -2.2783   -0.7037   -0.0129 C.ar    1  LIG1        0.1724
     12 C          -3.5962   -0.2938    0.0136 C.ar    1  LIG1        0.0731
     13 C          -4.3898   -1.4793    0.0176 C.ar    1  LIG1        0.0088
     14 C          -3.5140   -2.5398   -0.0208 C.ar    1  LIG1        0.1761
     15 O          -2.2251   -2.0886   -0.0419 O.2     1  LIG1       -0.4482
     16 N          -4.0592    1.0200    0.0706 N.pl3   1  LIG1       -0.3550
     17 H          -3.4454    1.6838   -0.3881 H       1  LIG1        0.1424
     18 H          -5.0076    1.1242   -0.2670 H       1  LIG1        0.1424
     19 H          -5.4667   -1.5511    0.0439 H       1  LIG1        0.0675
     20 C          -3.7325   -3.9506   -0.0443 C.ar    1  LIG1        0.2118
     21 C          -4.8851   -4.7062   -0.0900 C.ar    1  LIG1        0.1664
     22 C          -4.5039   -6.0761   -0.0896 C.ar    1  LIG1        0.0280
     23 C          -3.1277   -6.0897   -0.0440 C.ar    1  LIG1        0.1558
     24 O          -2.6508   -4.8062   -0.0173 O.2     1  LIG1       -0.4464
     25 O          -6.1334   -4.1664   -0.1274 O.3     1  LIG1       -0.5031
     26 H          -6.7851   -4.8781   -0.1496 H       1  LIG1        0.2923
     27 H          -5.1553   -6.9368   -0.1121 H       1  LIG1        0.0693
     28 C          -2.1400   -7.1305   -0.0129 C.ar    1  LIG1        0.0864
     29 C          -2.2542   -8.5151   -0.0960 C.ar    1  LIG1       -0.0068
     30 C          -0.9221   -9.0407   -0.0067 C.ar    1  LIG1        0.0455
     31 C          -0.0532   -7.9624    0.1262 C.ar    1  LIG1        0.0180
     32 N          -0.7971   -6.8229    0.1193 N.ar    1  LIG1       -0.3569
     33 H          -0.4494   -5.8817    0.2118 H       1  LIG1        0.1655
     34 H           1.0213   -7.9447    0.2224 H       1  LIG1        0.0819
     35 C          -3.5082   -9.3181   -0.2518 C.3     1  LIG1       -0.0364
     36 H          -3.2651  -10.3778   -0.3591 H       1  LIG1        0.0279
     37 H          -4.0797   -9.0127   -1.1368 H       1  LIG1        0.0279
     38 H          -4.1708   -9.2160    0.6170 H       1  LIG1        0.0279
     39 C          -0.5543  -10.4108   -0.0500 C.1     1  LIG1       -0.0679
     40 C          -0.2604  -11.5849   -0.0895 C.1     1  LIG1       -0.1139
     41 H           0.0095  -12.6147   -0.1223 H       1  LIG1        0.1232
@<TRIPOS>BOND
     1    37    35    1
     2     6     5    1
     3     7     1    1
     4     5     1   ar
     5     5     4   ar
     6     1     2   ar
     7    17    16    1
     8    36    35    1
     9    18    16    1
    10    35    29    1
    11    35    38    1
    12    26    25    1
    13    25    21    1
    14    41    40    1
    15    27    22    1
    16    29    28   ar
    17    29    30   ar
    18    21    22   ar
    19    21    20   ar
    20    22    23   ar
    21    40    39    3
    22    39    30    1
    23     4    11    1
    24     4     3   ar
    25    20    14    1
    26    20    24   ar
    27    23    24   ar
    28    23    28    1
    29    15    14   ar
    30    15    11   ar
    31    14    13   ar
    32    11    12   ar
    33    28    32   ar
    34    30    31   ar
    35     2     9    1
    36     2     3   ar
    37    12    13   ar
    38    12    16    1
    39    13    19    1
    40    32    31   ar
    41    32    33    1
    42    31    34    1
    43     9     8    3
    44     3    10    1
