@<TRIPOS>MOLECULE
mol_data/opt/b3lyp/geoms/mol2/13da13da13da13da.out
 38 41 0 0 0
SMALL
GASTEIGER

@<TRIPOS>ATOM
      1 C           0.8656    0.2426   -1.3802 C.ar    1  LIG1        0.0197
      2 C           0.8396    1.1335   -0.3169 C.ar    1  LIG1        0.0696
      3 C          -0.3731    0.9107    0.4039 C.ar    1  LIG1       -0.0175
      4 C          -1.0500   -0.1099   -0.2349 C.ar    1  LIG1        0.0654
      5 N          -0.2682   -0.5136   -1.3130 N.ar    1  LIG1       -0.3583
      6 H          -0.5885   -1.1112   -2.0599 H       1  LIG1        0.1654
      7 H           1.5986    0.1094   -2.1604 H       1  LIG1        0.0820
      8 N           2.6986    2.8374    0.2538 N.1     1  LIG1       -0.1908
      9 C           1.8605    2.0727   -0.0048 C.1     1  LIG1        0.1007
     10 H          -0.6942    1.4275    1.2952 H       1  LIG1        0.0652
     11 C          -2.3142   -0.7413    0.0766 C.ar    1  LIG1        0.0810
     12 C          -3.4941   -0.2084    0.6091 C.ar    1  LIG1        0.0790
     13 C          -4.4523   -1.2584    0.6968 C.ar    1  LIG1       -0.0169
     14 C          -3.8538   -2.4105    0.2248 C.ar    1  LIG1        0.0659
     15 N          -2.5557   -2.0760   -0.1437 N.ar    1  LIG1       -0.3508
     16 H          -1.8874   -2.7144   -0.5461 H       1  LIG1        0.1660
     17 N          -3.8336    2.2536    1.3156 N.1     1  LIG1       -0.1908
     18 C          -3.6837    1.1461    0.9897 C.1     1  LIG1        0.1013
     19 H          -5.4617   -1.1738    1.0692 H       1  LIG1        0.0652
     20 C          -4.3663   -3.7582    0.1053 C.ar    1  LIG1        0.0810
     21 C          -5.6387   -4.2202   -0.2501 C.ar    1  LIG1        0.0790
     22 C          -5.6115   -5.6441   -0.2352 C.ar    1  LIG1       -0.0169
     23 C          -4.3363   -6.0337    0.1259 C.ar    1  LIG1        0.0659
     24 N          -3.5958   -4.8755    0.3270 N.ar    1  LIG1       -0.3508
     25 H          -2.6300   -4.8564    0.6151 H       1  LIG1        0.1660
     26 N          -7.6601   -2.7178   -0.8276 N.1     1  LIG1       -0.1908
     27 C          -6.7480   -3.3953   -0.5739 C.1     1  LIG1        0.1013
     28 H          -6.4364   -6.3021   -0.4612 H       1  LIG1        0.0652
     29 C          -3.7656   -7.3521    0.3045 C.ar    1  LIG1        0.0805
     30 C          -3.9907   -8.5423   -0.3924 C.ar    1  LIG1        0.0784
     31 C          -3.1651   -9.5543    0.1917 C.ar    1  LIG1       -0.0263
     32 C          -2.4648   -8.9666    1.2134 C.ar    1  LIG1        0.0035
     33 N          -2.8214   -7.6349    1.2661 N.ar    1  LIG1       -0.3585
     34 H          -2.5875   -7.0164    2.0276 H       1  LIG1        0.1654
     35 H          -1.7456   -9.3782    1.9046 H       1  LIG1        0.0807
     36 N          -5.5771   -8.8243   -2.4121 N.1     1  LIG1       -0.1908
     37 C          -4.8601   -8.6938   -1.5039 C.1     1  LIG1        0.1013
     38 H          -3.1022  -10.5835   -0.1276 H       1  LIG1        0.0645
@<TRIPOS>BOND
     1    36    37    3
     2     7     1    1
     3     6     5    1
     4    37    30    1
     5     1     5   ar
     6     1     2   ar
     7     5     4   ar
     8    26    27    3
     9    27    21    1
    10    16    15    1
    11    28    22    1
    12    30    31   ar
    13    30    29   ar
    14     2     9    1
    15     2     3   ar
    16    21    22   ar
    17    21    20   ar
    18    22    23   ar
    19     4    11    1
    20     4     3   ar
    21    15    11   ar
    22    15    14   ar
    23    38    31    1
    24     9     8    3
    25    11    12   ar
    26    20    14    1
    27    20    24   ar
    28    23    29    1
    29    23    24   ar
    30    31    32   ar
    31    14    13   ar
    32    29    33   ar
    33    24    25    1
    34     3    10    1
    35    12    13   ar
    36    12    18    1
    37    13    19    1
    38    18    17    3
    39    32    33   ar
    40    32    35    1
    41    33    34    1
