@<TRIPOS>MOLECULE
mol_data/opt/b3lyp/geoms/mol2/13da13da6he13dd.out
 43 46 0 0 0
SMALL
GASTEIGER

@<TRIPOS>ATOM
      1 C           1.0408   -0.1372    1.3005 C.ar    1  LIG1        0.0197
      2 C           0.9216    1.0191    0.5421 C.ar    1  LIG1        0.0696
      3 C          -0.3598    0.9927   -0.0870 C.ar    1  LIG1       -0.0175
      4 C          -0.9847   -0.1778    0.3010 C.ar    1  LIG1        0.0654
      5 N          -0.1060   -0.8567    1.1378 N.ar    1  LIG1       -0.3583
      6 H          -0.3475   -1.6653    1.6898 H       1  LIG1        0.1654
      7 H           1.8471   -0.4775    1.9313 H       1  LIG1        0.0820
      8 N           2.7359    2.8455    0.3037 N.1     1  LIG1       -0.1908
      9 C           1.9182    2.0248    0.4127 C.1     1  LIG1        0.1007
     10 H          -0.7612    1.7380   -0.7564 H       1  LIG1        0.0652
     11 C          -2.2814   -0.7151   -0.0456 C.ar    1  LIG1        0.0809
     12 C          -3.4705   -0.0679   -0.4105 C.ar    1  LIG1        0.0790
     13 C          -4.4567   -1.0682   -0.6432 C.ar    1  LIG1       -0.0182
     14 C          -3.8686   -2.3001   -0.4212 C.ar    1  LIG1        0.0515
     15 N          -2.5497   -2.0587   -0.0608 N.ar    1  LIG1       -0.3519
     16 H          -1.8786   -2.8050    0.0665 H       1  LIG1        0.1660
     17 N          -3.7952    2.4859   -0.6244 N.1     1  LIG1       -0.1908
     18 C          -3.6486    1.3352   -0.5214 C.1     1  LIG1        0.1013
     19 H          -5.4770   -0.8884   -0.9468 H       1  LIG1        0.0652
     20 C          -3.6546   -4.8037   -0.7607 C.ar    1  LIG1        0.1261
     21 C          -4.4315   -3.6487   -0.4644 C.ar    1  LIG1        0.0390
     22 C          -5.7822   -3.8708   -0.2122 C.ar    1  LIG1       -0.0318
     23 C          -6.3312   -5.1661   -0.1808 C.ar    1  LIG1        0.0528
     24 C          -5.4326   -6.2445   -0.3485 C.ar    1  LIG1        0.1058
     25 N          -4.1410   -6.0361   -0.6824 N.ar    1  LIG1       -0.2290
     26 H          -6.4372   -3.0293   -0.0152 H       1  LIG1        0.0638
     27 N          -2.2977   -4.6872   -1.1008 N.pl3   1  LIG1       -0.3426
     28 H          -1.9127   -5.5924   -1.3475 H       1  LIG1        0.1437
     29 H          -2.1170   -4.0029   -1.8292 H       1  LIG1        0.1437
     30 C          -7.7385   -5.3194   -0.0363 C.1     1  LIG1       -0.0674
     31 C          -8.9425   -5.3910    0.0522 C.1     1  LIG1       -0.1138
     32 H          -9.9967   -5.4973    0.1700 H       1  LIG1        0.1232
     33 C          -5.7924   -7.6635   -0.2636 C.ar    1  LIG1        0.0851
     34 C          -6.7035   -8.4227    0.4786 C.ar    1  LIG1        0.0958
     35 C          -6.4942   -9.8028    0.1203 C.ar    1  LIG1        0.0870
     36 C          -5.4658   -9.8340   -0.8058 C.ar    1  LIG1        0.0210
     37 N          -5.0615   -8.5547   -1.0136 N.ar    1  LIG1       -0.3572
     38 H          -4.2859   -8.2429   -1.5805 H       1  LIG1        0.1655
     39 H          -5.0186  -10.6731   -1.3154 H       1  LIG1        0.0820
     40 N          -8.2881   -7.7098    2.3869 N.1     1  LIG1       -0.1908
     41 C          -7.5821   -7.9996    1.5084 C.1     1  LIG1        0.1026
     42 N          -7.7572  -11.8656    1.0271 N.1     1  LIG1       -0.1908
     43 C          -7.1921  -10.9320    0.6235 C.1     1  LIG1        0.1020
@<TRIPOS>BOND
     1    29    27    1
     2    38    37    1
     3    28    27    1
     4    39    36    1
     5    27    20    1
     6    37    36   ar
     7    37    33   ar
     8    19    13    1
     9    36    35   ar
    10    20    25   ar
    11    20    21   ar
    12    10     3    1
    13    25    24   ar
    14    13    14   ar
    15    13    12   ar
    16    17    18    3
    17    18    12    1
    18    21    14    1
    19    21    22   ar
    20    14    15   ar
    21    12    11   ar
    22    24    33    1
    23    24    23   ar
    24    33    34   ar
    25    22    23   ar
    26    22    26    1
    27    23    30    1
    28     3     4   ar
    29     3     2   ar
    30    15    11   ar
    31    15    16    1
    32    11     4    1
    33    30    31    3
    34    31    32    1
    35    35    34   ar
    36    35    43    1
    37     4     5   ar
    38     8     9    3
    39     9     2    1
    40    34    41    1
    41     2     1   ar
    42    43    42    3
    43     5     1   ar
    44     5     6    1
    45     1     7    1
    46    41    40    3
