@<TRIPOS>MOLECULE
mol_data/opt/b3lyp/geoms/mol2/13da13da-4da13da.out
 40 43 0 0 0
SMALL
GASTEIGER

@<TRIPOS>ATOM
      1 C           1.4167   -0.4918   -0.0027 C.ar    1  LIG1        0.0197
      2 C           1.0600    0.8531   -0.0013 C.ar    1  LIG1        0.0696
      3 C          -0.3629    0.9158   -0.0006 C.ar    1  LIG1       -0.0175
      4 C          -0.8319   -0.3899   -0.0006 C.ar    1  LIG1        0.0654
      5 N           0.2746   -1.2249   -0.0017 N.ar    1  LIG1       -0.3583
      6 H           0.2331   -2.2358   -0.0021 H       1  LIG1        0.1654
      7 H           2.3922   -0.9526   -0.0038 H       1  LIG1        0.0820
      8 N           2.7040    2.8478   -0.0015 N.1     1  LIG1       -0.1908
      9 C           1.9646    1.9490   -0.0012 C.1     1  LIG1        0.1007
     10 H          -0.9543    1.8205    0.0002 H       1  LIG1        0.0652
     11 C          -2.1819   -0.8970    0.0004 C.ar    1  LIG1        0.0809
     12 C          -2.6805   -2.2137    0.0005 C.ar    1  LIG1        0.0790
     13 C          -4.0963   -2.1391    0.0015 C.ar    1  LIG1       -0.0183
     14 C          -4.4538   -0.7965    0.0023 C.ar    1  LIG1        0.0494
     15 N          -3.2670   -0.0746    0.0016 N.ar    1  LIG1       -0.3520
     16 H          -3.2080    0.9350    0.0018 H       1  LIG1        0.1660
     17 N          -1.1573   -4.2971   -0.0015 N.1     1  LIG1       -0.1908
     18 C          -1.8774   -3.3793   -0.0004 C.1     1  LIG1        0.1013
     19 H          -4.7593   -2.9898    0.0018 H       1  LIG1        0.0652
     20 C          -6.0811    1.1847    0.0053 C.ar    1  LIG1        0.0615
     21 C          -7.3985    1.6654    0.0067 C.ar    1  LIG1       -0.0346
     22 C          -5.7892   -0.2082    0.0037 C.ar    1  LIG1        0.0157
     23 C          -8.4967    0.7959    0.0065 C.ar    1  LIG1        0.0008
     24 H          -7.5450    2.7380    0.0079 H       1  LIG1        0.0637
     25 C          -6.9098   -1.0632    0.0034 C.ar    1  LIG1       -0.0508
     26 C          -8.2073   -0.5862    0.0048 C.ar    1  LIG1       -0.0519
     27 H          -6.7569   -2.1357    0.0021 H       1  LIG1        0.0625
     28 N          -4.1591    2.9309    0.0058 N.1     1  LIG1       -0.1908
     29 C          -5.0384    2.1667    0.0056 C.1     1  LIG1        0.0998
     30 H          -9.0060   -1.3216    0.0043 H       1  LIG1        0.0624
     31 C          -9.8713    1.2921    0.0080 C.ar    1  LIG1        0.0641
     32 C         -10.4097    2.5910    0.0088 C.ar    1  LIG1        0.0769
     33 C         -11.8334    2.4836    0.0097 C.ar    1  LIG1       -0.0264
     34 C         -12.1360    1.1457    0.0105 C.ar    1  LIG1        0.0034
     35 N         -10.9550    0.4452    0.0091 N.ar    1  LIG1       -0.3596
     36 H         -10.8967   -0.5598    0.0090 H       1  LIG1        0.1654
     37 H         -13.0872    0.6361    0.0117 H       1  LIG1        0.0807
     38 N          -9.1319    4.8364    0.0072 N.1     1  LIG1       -0.1908
     39 C          -9.6995    3.8188    0.0081 C.1     1  LIG1        0.1013
     40 H         -12.5299    3.3081    0.0101 H       1  LIG1        0.0645
@<TRIPOS>BOND
     1     7     1    1
     2     1     5   ar
     3     1     2   ar
     4     6     5    1
     5     5     4   ar
     6    17    18    3
     7     8     9    3
     8     2     9    1
     9     2     3   ar
    10     3     4   ar
    11     3    10    1
    12     4    11    1
    13    18    12    1
    14    11    12   ar
    15    11    15   ar
    16    12    13   ar
    17    13    19    1
    18    13    14   ar
    19    15    16    1
    20    15    14   ar
    21    27    25    1
    22    14    22    1
    23    25    22   ar
    24    25    26   ar
    25    22    20   ar
    26    30    26    1
    27    26    23   ar
    28    20    29    1
    29    20    21   ar
    30    29    28    3
    31    23    21   ar
    32    23    31    1
    33    21    24    1
    34    38    39    3
    35    31    32   ar
    36    31    35   ar
    37    39    32    1
    38    32    33   ar
    39    36    35    1
    40    35    34   ar
    41    33    40    1
    42    33    34   ar
    43    34    37    1
