@<TRIPOS>MOLECULE
mol_data/opt/b3lyp/geoms/mol2/13da13da13da-13da-.out
 38 41 0 0 0
SMALL
GASTEIGER

@<TRIPOS>ATOM
      1 C           1.3088   -0.2738   -0.0007 C.ar    1  LIG1        0.0197
      2 C           0.9203    1.0601   -0.0010 C.ar    1  LIG1        0.0696
      3 C          -0.5040    1.0929   -0.0010 C.ar    1  LIG1       -0.0175
      4 C          -0.9482   -0.2200   -0.0002 C.ar    1  LIG1        0.0654
      5 N           0.1799   -1.0335    0.0000 N.ar    1  LIG1       -0.3583
      6 H           0.1912   -2.0427    0.0004 H       1  LIG1        0.1654
      7 H           2.2936   -0.7142   -0.0008 H       1  LIG1        0.0820
      8 N           2.5241    3.0879   -0.0020 N.1     1  LIG1       -0.1908
      9 C           1.8020    2.1752   -0.0016 C.1     1  LIG1        0.1007
     10 H          -1.1233    1.9764   -0.0013 H       1  LIG1        0.0652
     11 C          -2.2897   -0.7511    0.0004 C.ar    1  LIG1        0.0810
     12 C          -3.5381   -0.1020    0.0001 C.ar    1  LIG1        0.0790
     13 C          -4.5490   -1.1021    0.0009 C.ar    1  LIG1       -0.0169
     14 C          -3.9184   -2.3360    0.0017 C.ar    1  LIG1        0.0659
     15 N          -2.5543   -2.0914    0.0014 N.ar    1  LIG1       -0.3508
     16 H          -1.8655   -2.8311    0.0018 H       1  LIG1        0.1660
     17 N          -3.9407    2.4485   -0.0016 N.1     1  LIG1       -0.1908
     18 C          -3.7565    1.2982   -0.0008 C.1     1  LIG1        0.1013
     19 H          -5.6117   -0.9084    0.0010 H       1  LIG1        0.0652
     20 C          -4.4371   -3.6787    0.0028 C.ar    1  LIG1        0.0810
     21 C          -3.7747   -4.9191    0.0035 C.ar    1  LIG1        0.0790
     22 C          -4.7551   -5.9493    0.0043 C.ar    1  LIG1       -0.0169
     23 C          -5.9977   -5.3389    0.0040 C.ar    1  LIG1        0.0659
     24 N          -5.7763   -3.9645    0.0031 N.ar    1  LIG1       -0.3508
     25 H          -6.4854   -3.2498    0.0018 H       1  LIG1        0.1660
     26 N          -1.1977   -5.0056    0.0034 N.1     1  LIG1       -0.1908
     27 C          -2.3645   -5.0415    0.0035 C.1     1  LIG1        0.1013
     28 H          -4.5663   -7.0112    0.0050 H       1  LIG1        0.0652
     29 C          -7.3180   -5.9252    0.0045 C.ar    1  LIG1        0.0805
     30 C          -7.7049   -7.2739    0.0034 C.ar    1  LIG1        0.0784
     31 C          -9.1328   -7.3237    0.0045 C.ar    1  LIG1       -0.0263
     32 C          -9.5834   -6.0297    0.0067 C.ar    1  LIG1        0.0035
     33 N          -8.4847   -5.1962    0.0065 N.ar    1  LIG1       -0.3585
     34 H          -8.5521   -4.1918    0.0083 H       1  LIG1        0.1654
     35 H         -10.5849   -5.6283    0.0083 H       1  LIG1        0.0807
     36 N          -6.1009   -9.2976   -0.0007 N.1     1  LIG1       -0.1908
     37 C          -6.8293   -8.3881    0.0012 C.1     1  LIG1        0.1013
     38 H          -9.7348   -8.2195    0.0039 H       1  LIG1        0.0645
@<TRIPOS>BOND
     1     8     9    3
     2    17    18    3
     3     9     2    1
     4    10     3    1
     5     2     3   ar
     6     2     1   ar
     7     3     4   ar
     8    18    12    1
     9     7     1    1
    10     1     5   ar
    11    36    37    3
    12     4     5   ar
    13     4    11    1
    14     5     6    1
    15    12    11   ar
    16    12    13   ar
    17    11    15   ar
    18    13    19    1
    19    13    14   ar
    20    37    30    1
    21    15    14   ar
    22    15    16    1
    23    14    20    1
    24    25    24    1
    25    20    24   ar
    26    20    21   ar
    27    24    23   ar
    28    26    27    3
    29    30    31   ar
    30    30    29   ar
    31    27    21    1
    32    21    22   ar
    33    38    31    1
    34    23    22   ar
    35    23    29    1
    36    22    28    1
    37    31    32   ar
    38    29    33   ar
    39    33    32   ar
    40    33    34    1
    41    32    35    1
