@<TRIPOS>MOLECULE
mol_data/opt/b3lyp/geoms/mol2/13da13da13da.out
 29 31 0 0 0
SMALL
GASTEIGER

@<TRIPOS>ATOM
      1 C           1.2879   -0.1865   -0.0017 C.ar    1  LIG1        0.0197
      2 C           0.8221    1.1200   -0.0006 C.ar    1  LIG1        0.0696
      3 C          -0.6025    1.0712    0.0003 C.ar    1  LIG1       -0.0175
      4 C          -0.9751   -0.2643    0.0000 C.ar    1  LIG1        0.0654
      5 N           0.2001   -1.0094   -0.0011 N.ar    1  LIG1       -0.3583
      6 H           0.2724   -2.0131   -0.0020 H       1  LIG1        0.1654
      7 H           2.2961   -0.5699   -0.0027 H       1  LIG1        0.0820
      8 N           2.3151    3.2309   -0.0005 N.1     1  LIG1       -0.1908
      9 C           1.6406    2.2827   -0.0005 C.1     1  LIG1        0.1007
     10 H          -1.2694    1.9191    0.0012 H       1  LIG1        0.0652
     11 C          -2.2912   -0.8589    0.0008 C.ar    1  LIG1        0.0810
     12 C          -3.5566   -0.2535    0.0013 C.ar    1  LIG1        0.0790
     13 C          -4.5418   -1.2779    0.0019 C.ar    1  LIG1       -0.0169
     14 C          -3.8852   -2.4957    0.0017 C.ar    1  LIG1        0.0659
     15 N          -2.5213   -2.2157    0.0011 N.ar    1  LIG1       -0.3508
     16 H          -1.7953   -2.9113    0.0001 H       1  LIG1        0.1660
     17 N          -4.0054    2.2900    0.0014 N.1     1  LIG1       -0.1908
     18 C          -3.8085    1.1422    0.0013 C.1     1  LIG1        0.1013
     19 H          -5.6103   -1.1297    0.0025 H       1  LIG1        0.0652
     20 C          -4.4180   -3.8381    0.0021 C.ar    1  LIG1        0.0805
     21 C          -5.7502   -4.2791    0.0010 C.ar    1  LIG1        0.0784
     22 C          -5.7434   -5.7084    0.0020 C.ar    1  LIG1       -0.0263
     23 C          -4.4335   -6.1084    0.0039 C.ar    1  LIG1        0.0035
     24 N          -3.6438   -4.9763    0.0038 N.ar    1  LIG1       -0.3585
     25 H          -2.6380   -5.0048    0.0053 H       1  LIG1        0.1654
     26 H          -3.9929   -7.0932    0.0052 H       1  LIG1        0.0807
     27 N          -7.8474   -2.7725   -0.0025 N.1     1  LIG1       -0.1908
     28 C          -6.9018   -3.4532   -0.0009 C.1     1  LIG1        0.1013
     29 H          -6.6152   -6.3446    0.0014 H       1  LIG1        0.0645
@<TRIPOS>BOND
     1     7     1    1
     2    27    28    3
     3     6     5    1
     4     1     5   ar
     5     1     2   ar
     6     5     4   ar
     7    28    21    1
     8     2     9    1
     9     2     3   ar
    10     9     8    3
    11     4     3   ar
    12     4    11    1
    13    16    15    1
    14     3    10    1
    15    11    15   ar
    16    11    12   ar
    17    21    22   ar
    18    21    20   ar
    19    15    14   ar
    20    12    18    1
    21    12    13   ar
    22    18    17    3
    23    29    22    1
    24    14    13   ar
    25    14    20    1
    26    13    19    1
    27    22    23   ar
    28    20    24   ar
    29    24    23   ar
    30    24    25    1
    31    23    26    1
