@<TRIPOS>MOLECULE
mol_data/opt/b3lyp/geoms/mol2/13da13da-13da13da-.out
 38 41 0 0 0
SMALL
GASTEIGER

@<TRIPOS>ATOM
      1 C           1.3080   -0.3142   -0.0016 C.ar    1  LIG1        0.0197
      2 C           0.8964    1.0147   -0.0009 C.ar    1  LIG1        0.0696
      3 C          -0.5282    1.0184   -0.0004 C.ar    1  LIG1       -0.0175
      4 C          -0.9432   -0.3052   -0.0001 C.ar    1  LIG1        0.0654
      5 N           0.1969   -1.0935   -0.0007 N.ar    1  LIG1       -0.3583
      6 H           0.1968   -2.1055   -0.0007 H       1  LIG1        0.1654
      7 H           2.3014   -0.7348   -0.0022 H       1  LIG1        0.0820
      8 N           2.4524    3.0788   -0.0014 N.1     1  LIG1       -0.1908
      9 C           1.7535    2.1480   -0.0011 C.1     1  LIG1        0.1007
     10 H          -1.1545    1.8988   -0.0001 H       1  LIG1        0.0652
     11 C          -2.2719   -0.8672    0.0006 C.ar    1  LIG1        0.0810
     12 C          -2.7157   -2.2030    0.0009 C.ar    1  LIG1        0.0790
     13 C          -4.1373   -2.1939    0.0016 C.ar    1  LIG1       -0.0169
     14 C          -4.5387   -0.8679    0.0019 C.ar    1  LIG1        0.0659
     15 N          -3.3917   -0.0885    0.0013 N.ar    1  LIG1       -0.3508
     16 H          -3.3892    0.9232    0.0013 H       1  LIG1        0.1660
     17 N          -1.0900   -4.2070   -0.0002 N.1     1  LIG1       -0.1908
     18 C          -1.8584   -3.3294    0.0004 C.1     1  LIG1        0.1013
     19 H          -4.7720   -3.0683    0.0019 H       1  LIG1        0.0652
     20 C          -5.8585   -0.2903    0.0027 C.ar    1  LIG1        0.0810
     21 C          -6.2819    1.0513    0.0032 C.ar    1  LIG1        0.0790
     22 C          -7.7046    1.0606    0.0039 C.ar    1  LIG1       -0.0169
     23 C          -8.1265   -0.2585    0.0039 C.ar    1  LIG1        0.0659
     24 N          -6.9912   -1.0525    0.0032 N.ar    1  LIG1       -0.3508
     25 H          -7.0061   -2.0646    0.0030 H       1  LIG1        0.1660
     26 N          -4.6239    3.0283    0.0027 N.1     1  LIG1       -0.1908
     27 C          -5.4082    2.1644    0.0030 C.1     1  LIG1        0.1013
     28 H          -8.3226    1.9461    0.0044 H       1  LIG1        0.0652
     29 C          -9.4537   -0.8262    0.0045 C.ar    1  LIG1        0.0805
     30 C          -9.8843   -2.1628    0.0049 C.ar    1  LIG1        0.0784
     31 C         -11.3140   -2.1659    0.0051 C.ar    1  LIG1       -0.0263
     32 C         -11.7156   -0.8550    0.0057 C.ar    1  LIG1        0.0035
     33 N         -10.5894   -0.0602    0.0050 N.ar    1  LIG1       -0.3585
     34 H         -10.5972    0.9475    0.0047 H       1  LIG1        0.1654
     35 H         -12.7028   -0.4199    0.0062 H       1  LIG1        0.0807
     36 N          -8.2165   -4.1314    0.0042 N.1     1  LIG1       -0.1908
     37 C          -9.0093   -3.2751    0.0046 C.1     1  LIG1        0.1013
     38 H         -11.9489   -3.0386    0.0052 H       1  LIG1        0.0645
@<TRIPOS>BOND
     1     7     1    1
     2     1     2   ar
     3     1     5   ar
     4     8     9    3
     5     9     2    1
     6     2     3   ar
     7     6     5    1
     8     5     4   ar
     9     3     4   ar
    10     3    10    1
    11    17    18    3
    12     4    11    1
    13    18    12    1
    14    11    12   ar
    15    11    15   ar
    16    12    13   ar
    17    15    16    1
    18    15    14   ar
    19    13    19    1
    20    13    14   ar
    21    14    20    1
    22    26    27    3
    23    20    24   ar
    24    20    21   ar
    25    25    24    1
    26    27    21    1
    27    24    23   ar
    28    21    22   ar
    29    22    23   ar
    30    22    28    1
    31    23    29    1
    32    36    37    3
    33    29    30   ar
    34    29    33   ar
    35    37    30    1
    36    34    33    1
    37    30    31   ar
    38    33    32   ar
    39    31    38    1
    40    31    32   ar
    41    32    35    1
