@<TRIPOS>MOLECULE
mol_data/opt/b3lyp/geoms/mol2/13da13da-.out
 20 21 0 0 0
SMALL
GASTEIGER

@<TRIPOS>ATOM
      1 C           1.1696   -0.3178   -0.0001 C.ar    1  LIG1        0.0197
      2 C           0.7669    1.0125   -0.0001 C.ar    1  LIG1        0.0696
      3 C          -0.6593    1.0234    0.0003 C.ar    1  LIG1       -0.0175
      4 C          -1.0839   -0.2958    0.0002 C.ar    1  LIG1        0.0654
      5 N           0.0513   -1.0893   -0.0000 N.ar    1  LIG1       -0.3583
      6 H           0.0429   -2.1015   -0.0001 H       1  LIG1        0.1654
      7 H           2.1599   -0.7458   -0.0002 H       1  LIG1        0.0820
      8 N           2.3186    3.0796   -0.0004 N.1     1  LIG1       -0.1908
      9 C           1.6252    2.1444   -0.0003 C.1     1  LIG1        0.1007
     10 H          -1.2770    1.9096    0.0004 H       1  LIG1        0.0652
     11 C          -2.4168   -0.8551    0.0004 C.ar    1  LIG1        0.0805
     12 C          -2.8650   -2.1848    0.0002 C.ar    1  LIG1        0.0784
     13 C          -4.2957   -2.1687    0.0007 C.ar    1  LIG1       -0.0263
     14 C          -4.6799   -0.8531    0.0007 C.ar    1  LIG1        0.0035
     15 N          -3.5419   -0.0744    0.0007 N.ar    1  LIG1       -0.3585
     16 H          -3.5338    0.9333    0.0008 H       1  LIG1        0.1654
     17 H          -5.6608   -0.4041    0.0010 H       1  LIG1        0.0807
     18 N          -1.2469   -4.1953   -0.0003 N.1     1  LIG1       -0.1908
     19 C          -2.0111   -3.3134   -0.0001 C.1     1  LIG1        0.1013
     20 H          -4.9416   -3.0332    0.0008 H       1  LIG1        0.0645
@<TRIPOS>BOND
     1     8     9    3
     2    18    19    3
     3     9     2    1
     4     7     1    1
     5     6     5    1
     6    19    12    1
     7     2     1   ar
     8     2     3   ar
     9     1     5   ar
    10     5     4   ar
    11     4     3   ar
    12     4    11    1
    13    12    11   ar
    14    12    13   ar
    15     3    10    1
    16    11    15   ar
    17    13    14   ar
    18    13    20    1
    19    15    14   ar
    20    15    16    1
    21    14    17    1
