@<TRIPOS>MOLECULE
mol_data/opt/b3lyp/geoms/mol2/13da4ei12ad13lf-.out
 47 50 0 0 0
SMALL
GASTEIGER

@<TRIPOS>ATOM
      1 C           1.5460    0.0019   -0.3179 C.ar    1  LIG1        0.0196
      2 C           1.1670    1.2924    0.0289 C.ar    1  LIG1        0.0696
      3 C          -0.2523    1.2951    0.1825 C.ar    1  LIG1       -0.0190
      4 C          -0.7046    0.0113   -0.0651 C.ar    1  LIG1        0.0489
      5 N           0.4169   -0.7560   -0.3577 N.ar    1  LIG1       -0.3594
      6 H           0.3806   -1.7136   -0.6699 H       1  LIG1        0.1654
      7 H           2.5205   -0.4033   -0.5417 H       1  LIG1        0.0820
      8 N           2.7638    3.3014    0.3410 N.1     1  LIG1       -0.1908
      9 C           2.0470    2.3949    0.1999 C.1     1  LIG1        0.1007
     10 H          -0.8596    2.1387    0.4660 H       1  LIG1        0.0652
     11 C          -3.2221    0.1215   -0.3199 C.ar    1  LIG1        0.0345
     12 C          -4.4505   -0.5480   -0.2607 C.ar    1  LIG1       -0.0348
     13 C          -2.0353   -0.5940   -0.0101 C.ar    1  LIG1        0.0140
     14 C          -4.5691   -1.8977    0.1024 C.ar    1  LIG1        0.0214
     15 H          -5.3409    0.0049   -0.5381 H       1  LIG1        0.0637
     16 C          -2.1709   -1.9431    0.3555 C.ar    1  LIG1       -0.0479
     17 C          -3.3900   -2.6178    0.4214 C.ar    1  LIG1       -0.0391
     18 H          -1.2799   -2.4894    0.6538 H       1  LIG1        0.0627
     19 C          -3.2247    1.4900   -0.7319 C.1     1  LIG1       -0.0690
     20 C          -3.2925    2.6451   -1.0867 C.1     1  LIG1       -0.1139
     21 H          -3.3315    3.6617   -1.4043 H       1  LIG1        0.1232
     22 C          -3.3969   -4.0629    0.8617 C.3     1  LIG1       -0.0390
     23 H          -2.4180   -4.3464    1.2567 H       1  LIG1        0.0278
     24 H          -3.6300   -4.7332    0.0272 H       1  LIG1        0.0278
     25 H          -4.1436   -4.2442    1.6404 H       1  LIG1        0.0278
     26 C          -5.9153   -2.4584    0.1567 C.ar    1  LIG1        0.1373
     27 C          -7.1402   -1.8843    0.3477 C.ar    1  LIG1        0.0023
     28 C          -8.1211   -2.9271    0.2665 C.ar    1  LIG1        0.0996
     29 C          -7.4242   -4.1028    0.0189 C.ar    1  LIG1        0.1727
     30 O          -6.0899   -3.8159   -0.0441 O.2     1  LIG1       -0.4519
     31 H          -7.3440   -0.8453    0.5572 H       1  LIG1        0.0668
     32 N         -10.6298   -2.5454    0.7397 N.1     1  LIG1       -0.1907
     33 C          -9.5086   -2.7537    0.5038 C.1     1  LIG1        0.1030
     34 C          -7.7729   -5.4800   -0.1477 C.ar    1  LIG1        0.1293
     35 C          -8.9962   -6.0963   -0.4280 C.ar    1  LIG1        0.1897
     36 C          -8.7578   -7.4969   -0.4932 C.ar    1  LIG1        0.1769
     37 C          -7.4086   -7.7046   -0.2618 C.ar    1  LIG1        0.0480
     38 N          -6.8206   -6.4786   -0.0726 N.ar    1  LIG1       -0.3522
     39 H          -5.8506   -6.3154    0.1378 H       1  LIG1        0.1656
     40 H          -6.8366   -8.6198   -0.2320 H       1  LIG1        0.0845
     41 O         -10.1369   -5.4162   -0.6956 O.3     1  LIG1       -0.4894
     42 C         -11.3084   -5.8186    0.0302 C.3     1  LIG1        0.0791
     43 H         -12.0952   -5.1281   -0.2725 H       1  LIG1        0.0660
     44 H         -11.5876   -6.8469   -0.2151 H       1  LIG1        0.0660
     45 H         -11.1449   -5.7230    1.1092 H       1  LIG1        0.0660
     46 O          -9.7394   -8.4099   -0.7627 O.3     1  LIG1       -0.5023
     47 H          -9.3586   -9.2970   -0.7569 H       1  LIG1        0.2923
@<TRIPOS>BOND
     1    21    20    1
     2    20    19    3
     3    46    47    1
     4    46    36    1
     5    19    11    1
     6    41    35    1
     7    41    42    1
     8     6     5    1
     9     7     1    1
    10    15    12    1
    11    36    35   ar
    12    36    37   ar
    13    35    34   ar
    14     5     1   ar
    15     5     4   ar
    16    11    12   ar
    17    11    13   ar
    18     1     2   ar
    19    43    42    1
    20    37    40    1
    21    37    38   ar
    22    12    14   ar
    23    44    42    1
    24    34    38   ar
    25    34    29    1
    26    38    39    1
    27     4    13    1
    28     4     3   ar
    29    30    29   ar
    30    30    26   ar
    31    13    16   ar
    32    29    28   ar
    33    24    22    1
    34     2     3   ar
    35     2     9    1
    36    42    45    1
    37    14    26    1
    38    14    17   ar
    39    26    27   ar
    40     3    10    1
    41     9     8    3
    42    28    27   ar
    43    28    33    1
    44    27    31    1
    45    16    17   ar
    46    16    18    1
    47    17    22    1
    48    33    32    3
    49    22    23    1
    50    22    25    1
