@<TRIPOS>MOLECULE
mol_data/opt/b3lyp/geoms/mol2/13da13da13da13da-.out
 38 41 0 0 0
SMALL
GASTEIGER

@<TRIPOS>ATOM
      1 C           1.2572   -0.3411    0.0001 C.ar    1  LIG1        0.0197
      2 C           0.8678    0.9918   -0.0004 C.ar    1  LIG1        0.0696
      3 C          -0.5566    1.0240   -0.0004 C.ar    1  LIG1       -0.0175
      4 C          -1.0024   -0.2887    0.0002 C.ar    1  LIG1        0.0654
      5 N           0.1275   -1.1015    0.0005 N.ar    1  LIG1       -0.3583
      6 H           0.1448   -2.1098    0.0009 H       1  LIG1        0.1654
      7 H           2.2420   -0.7814    0.0003 H       1  LIG1        0.0820
      8 N           2.4760    3.0161   -0.0012 N.1     1  LIG1       -0.1908
      9 C           1.7507    2.1061   -0.0008 C.1     1  LIG1        0.1007
     10 H          -1.1759    1.9074   -0.0007 H       1  LIG1        0.0652
     11 C          -2.3468   -0.8135    0.0005 C.ar    1  LIG1        0.0810
     12 C          -3.5896   -0.1559    0.0003 C.ar    1  LIG1        0.0790
     13 C          -4.6139   -1.1422    0.0008 C.ar    1  LIG1       -0.0169
     14 C          -3.9998   -2.3818    0.0013 C.ar    1  LIG1        0.0659
     15 N          -2.6262   -2.1552    0.0012 N.ar    1  LIG1       -0.3508
     16 H          -1.9242   -2.8783    0.0012 H       1  LIG1        0.1660
     17 N          -3.9331    2.4038   -0.0008 N.1     1  LIG1       -0.1908
     18 C          -3.7837    1.2487   -0.0003 C.1     1  LIG1        0.1013
     19 H          -5.6772   -0.9572    0.0007 H       1  LIG1        0.0652
     20 C          -4.5330   -3.7186    0.0020 C.ar    1  LIG1        0.0810
     21 C          -5.8479   -4.2196    0.0020 C.ar    1  LIG1        0.0790
     22 C          -5.7717   -5.6424    0.0027 C.ar    1  LIG1       -0.0169
     23 C          -4.4296   -5.9893    0.0033 C.ar    1  LIG1        0.0659
     24 N          -3.7113   -4.8079    0.0028 N.ar    1  LIG1       -0.3508
     25 H          -2.7026   -4.7863    0.0032 H       1  LIG1        0.1660
     26 N          -7.9992   -2.7917    0.0006 N.1     1  LIG1       -0.1908
     27 C          -7.0312   -3.4400    0.0012 C.1     1  LIG1        0.1013
     28 H          -6.6210   -6.3097    0.0028 H       1  LIG1        0.0652
     29 C          -3.7327   -7.2519    0.0041 C.ar    1  LIG1        0.0805
     30 C          -2.3491   -7.5233    0.0044 C.ar    1  LIG1        0.0784
     31 C          -2.1792   -8.9442    0.0052 C.ar    1  LIG1       -0.0263
     32 C          -3.4336   -9.4948    0.0054 C.ar    1  LIG1        0.0035
     33 N          -4.3566   -8.4681    0.0048 N.ar    1  LIG1       -0.3585
     34 H          -5.3570   -8.5931    0.0047 H       1  LIG1        0.1654
     35 H          -3.7503  -10.5260    0.0060 H       1  LIG1        0.0807
     36 N          -0.6498   -5.5840    0.0035 N.1     1  LIG1       -0.1908
     37 C          -1.3596   -6.5130    0.0039 C.1     1  LIG1        0.1013
     38 H          -1.2394   -9.4747    0.0055 H       1  LIG1        0.0645
@<TRIPOS>BOND
     1     8     9    3
     2    17    18    3
     3     9     2    1
     4    10     3    1
     5     3     2   ar
     6     3     4   ar
     7     2     1   ar
     8    18    12    1
     9     1     7    1
    10     1     5   ar
    11     4     5   ar
    12     4    11    1
    13    12    11   ar
    14    12    13   ar
    15     5     6    1
    16    11    15   ar
    17    26    27    3
    18    19    13    1
    19    13    14   ar
    20    15    16    1
    21    15    14   ar
    22    27    21    1
    23    14    20    1
    24    21    20   ar
    25    21    22   ar
    26    20    24   ar
    27    22    28    1
    28    22    23   ar
    29    24    25    1
    30    24    23   ar
    31    23    29    1
    32    36    37    3
    33    37    30    1
    34    29    30   ar
    35    29    33   ar
    36    30    31   ar
    37    34    33    1
    38    33    32   ar
    39    31    32   ar
    40    31    38    1
    41    32    35    1
