@<TRIPOS>MOLECULE
mol_data/opt/b3lyp/geoms/mol2/13da13da13da-13da.out
 38 41 0 0 0
SMALL
GASTEIGER

@<TRIPOS>ATOM
      1 C           1.2902   -0.2524   -0.0012 C.ar    1  LIG1        0.0197
      2 C           0.8842    1.0760   -0.0009 C.ar    1  LIG1        0.0696
      3 C          -0.5407    1.0903   -0.0005 C.ar    1  LIG1       -0.0175
      4 C          -0.9682   -0.2281   -0.0001 C.ar    1  LIG1        0.0654
      5 N           0.1709   -1.0265   -0.0005 N.ar    1  LIG1       -0.3583
      6 H           0.1955   -2.0353   -0.0005 H       1  LIG1        0.1654
      7 H           2.2807   -0.6798   -0.0017 H       1  LIG1        0.0820
      8 N           2.4656    3.1213   -0.0014 N.1     1  LIG1       -0.1908
      9 C           1.7526    2.2016   -0.0011 C.1     1  LIG1        0.1007
     10 H          -1.1716    1.9656   -0.0004 H       1  LIG1        0.0652
     11 C          -2.3023   -0.7781    0.0006 C.ar    1  LIG1        0.0810
     12 C          -3.5601   -0.1462    0.0008 C.ar    1  LIG1        0.0790
     13 C          -4.5586   -1.1579    0.0015 C.ar    1  LIG1       -0.0169
     14 C          -3.9096   -2.3824    0.0017 C.ar    1  LIG1        0.0659
     15 N          -2.5480   -2.1218    0.0012 N.ar    1  LIG1       -0.3508
     16 H          -1.8492   -2.8510    0.0012 H       1  LIG1        0.1660
     17 N          -3.9687    2.4036    0.0000 N.1     1  LIG1       -0.1908
     18 C          -3.7884    1.2528    0.0004 C.1     1  LIG1        0.1013
     19 H          -5.6251   -0.9846    0.0017 H       1  LIG1        0.0652
     20 C          -4.4134   -3.7308    0.0024 C.ar    1  LIG1        0.0810
     21 C          -3.7317   -4.9642    0.0027 C.ar    1  LIG1        0.0790
     22 C          -4.7052   -6.0025    0.0033 C.ar    1  LIG1       -0.0169
     23 C          -5.9512   -5.3991    0.0035 C.ar    1  LIG1        0.0659
     24 N          -5.7448   -4.0276    0.0030 N.ar    1  LIG1       -0.3508
     25 H          -6.4888   -3.3408    0.0031 H       1  LIG1        0.1660
     26 N          -1.1551   -5.0568    0.0018 N.1     1  LIG1       -0.1908
     27 C          -2.3227   -5.0809    0.0022 C.1     1  LIG1        0.1013
     28 H          -4.4906   -7.0607    0.0036 H       1  LIG1        0.0652
     29 C          -7.2768   -5.9707    0.0043 C.ar    1  LIG1        0.0805
     30 C          -8.5426   -5.3630    0.0049 C.ar    1  LIG1        0.0784
     31 C          -9.5290   -6.3977    0.0051 C.ar    1  LIG1       -0.0263
     32 C          -8.8548   -7.5914    0.0054 C.ar    1  LIG1        0.0035
     33 N          -7.5031   -7.3220    0.0046 N.ar    1  LIG1       -0.3585
     34 H          -6.7781   -8.0219    0.0042 H       1  LIG1        0.1654
     35 H          -9.2191   -8.6070    0.0059 H       1  LIG1        0.0807
     36 N          -8.8259   -2.7983    0.0044 N.1     1  LIG1       -0.1908
     37 C          -8.7481   -3.9626    0.0048 C.1     1  LIG1        0.1013
     38 H         -10.5990   -6.2572    0.0053 H       1  LIG1        0.0645
@<TRIPOS>BOND
     1     7     1    1
     2     8     9    3
     3     1     2   ar
     4     1     5   ar
     5     9     2    1
     6     2     3   ar
     7     3    10    1
     8     3     4   ar
     9     6     5    1
    10     5     4   ar
    11     4    11    1
    12    17    18    3
    13    18    12    1
    14    11    12   ar
    15    11    15   ar
    16    12    13   ar
    17    15    16    1
    18    15    14   ar
    19    13    14   ar
    20    13    19    1
    21    14    20    1
    22    26    27    3
    23    27    21    1
    24    20    21   ar
    25    20    24   ar
    26    21    22   ar
    27    24    25    1
    28    24    23   ar
    29    22    23   ar
    30    22    28    1
    31    23    29    1
    32    34    33    1
    33    29    33   ar
    34    29    30   ar
    35    36    37    3
    36    33    32   ar
    37    37    30    1
    38    30    31   ar
    39    31    38    1
    40    31    32   ar
    41    32    35    1
