@<TRIPOS>MOLECULE
mol_data/opt/b3lyp/geoms/mol2/13da13da.out
 20 21 0 0 0
SMALL
GASTEIGER

@<TRIPOS>ATOM
      1 C           1.2068   -0.3170   -0.0004 C.ar    1  LIG1        0.0197
      2 C           0.7711    0.9998    0.0000 C.ar    1  LIG1        0.0696
      3 C          -0.6554    0.9830    0.0004 C.ar    1  LIG1       -0.0175
      4 C          -1.0569   -0.3426    0.0002 C.ar    1  LIG1        0.0654
      5 N           0.0999   -1.1141   -0.0003 N.ar    1  LIG1       -0.3583
      6 H           0.1453   -2.1197   -0.0010 H       1  LIG1        0.1654
      7 H           2.2058   -0.7238   -0.0008 H       1  LIG1        0.0820
      8 N           2.3089    3.0781    0.0002 N.1     1  LIG1       -0.1908
      9 C           1.6149    2.1439    0.0001 C.1     1  LIG1        0.1007
     10 H          -1.3036    1.8453    0.0008 H       1  LIG1        0.0652
     11 C          -2.3866   -0.9133    0.0004 C.ar    1  LIG1        0.0805
     12 C          -3.6401   -0.2851    0.0003 C.ar    1  LIG1        0.0784
     13 C          -4.6450   -1.3026    0.0007 C.ar    1  LIG1       -0.0263
     14 C          -3.9990   -2.5102    0.0010 C.ar    1  LIG1        0.0035
     15 N          -2.6409   -2.2651    0.0009 N.ar    1  LIG1       -0.3585
     16 H          -1.9460   -2.9932    0.0010 H       1  LIG1        0.1654
     17 H          -4.3814   -3.5190    0.0013 H       1  LIG1        0.0807
     18 N          -4.0642    2.2624   -0.0004 N.1     1  LIG1       -0.1908
     19 C          -3.8726    1.1130   -0.0001 C.1     1  LIG1        0.1013
     20 H          -5.7116   -1.1378    0.0007 H       1  LIG1        0.0645
@<TRIPOS>BOND
     1     6     5    1
     2     7     1    1
     3    18    19    3
     4     1     5   ar
     5     1     2   ar
     6     5     4   ar
     7    19    12    1
     8     2     9    1
     9     2     3   ar
    10     9     8    3
    11     4    11    1
    12     4     3   ar
    13    12    11   ar
    14    12    13   ar
    15    11    15   ar
    16     3    10    1
    17    13    20    1
    18    13    14   ar
    19    15    14   ar
    20    15    16    1
    21    14    17    1
