@<TRIPOS>MOLECULE
mol_data/opt/b3lyp/geoms/mol2/13da13da-13da-13da.out
 38 41 0 0 0
SMALL
GASTEIGER

@<TRIPOS>ATOM
      1 C           1.2764   -0.3045   -0.0009 C.ar    1  LIG1        0.0197
      2 C           0.8529    1.0205   -0.0001 C.ar    1  LIG1        0.0696
      3 C          -0.5718    1.0108    0.0004 C.ar    1  LIG1       -0.0175
      4 C          -0.9752   -0.3167    0.0001 C.ar    1  LIG1        0.0654
      5 N           0.1723   -1.0938   -0.0006 N.ar    1  LIG1       -0.3583
      6 H           0.1808   -2.1060   -0.0010 H       1  LIG1        0.1654
      7 H           2.2735   -0.7161   -0.0015 H       1  LIG1        0.0820
      8 N           2.3858    3.1017   -0.0001 N.1     1  LIG1       -0.1908
      9 C           1.6981    2.1626   -0.0001 C.1     1  LIG1        0.1007
     10 H          -1.2032    1.8878    0.0010 H       1  LIG1        0.0652
     11 C          -2.2974   -0.8931    0.0005 C.ar    1  LIG1        0.0810
     12 C          -2.7295   -2.2309    0.0003 C.ar    1  LIG1        0.0790
     13 C          -4.1511   -2.2389    0.0009 C.ar    1  LIG1       -0.0169
     14 C          -4.5708   -0.9197    0.0014 C.ar    1  LIG1        0.0659
     15 N          -3.4285   -0.1250    0.0012 N.ar    1  LIG1       -0.3508
     16 H          -3.4061    0.8839    0.0013 H       1  LIG1        0.1660
     17 N          -1.0748   -4.2115   -0.0010 N.1     1  LIG1       -0.1908
     18 C          -1.8578   -3.3471   -0.0004 C.1     1  LIG1        0.1013
     19 H          -4.7862   -3.1112    0.0009 H       1  LIG1        0.0652
     20 C          -5.8977   -0.3585    0.0022 C.ar    1  LIG1        0.0810
     21 C          -7.1643   -0.9709    0.0021 C.ar    1  LIG1        0.0790
     22 C          -8.1460    0.0594    0.0031 C.ar    1  LIG1       -0.0169
     23 C          -7.4783    1.2733    0.0038 C.ar    1  LIG1        0.0659
     24 N          -6.1236    0.9890    0.0033 N.ar    1  LIG1       -0.3508
     25 H          -5.4147    1.7092    0.0038 H       1  LIG1        0.1660
     26 N          -7.6122   -3.5137    0.0002 N.1     1  LIG1       -0.1908
     27 C          -7.4144   -2.3655    0.0011 C.1     1  LIG1        0.1013
     28 H          -9.2142   -0.1002    0.0032 H       1  LIG1        0.0652
     29 C          -7.9468    2.6379    0.0049 C.ar    1  LIG1        0.0805
     30 C          -7.2294    3.8483    0.0056 C.ar    1  LIG1        0.0784
     31 C          -8.1744    4.9216    0.0065 C.ar    1  LIG1       -0.0263
     32 C          -9.4216    4.3533    0.0067 C.ar    1  LIG1        0.0035
     33 N          -9.2711    2.9818    0.0056 N.ar    1  LIG1       -0.3585
     34 H         -10.0309    2.3194    0.0053 H       1  LIG1        0.1654
     35 H         -10.4015    4.8044    0.0074 H       1  LIG1        0.0807
     36 N          -4.6514    3.8259    0.0046 N.1     1  LIG1       -0.1908
     37 C          -5.8164    3.9110    0.0051 C.1     1  LIG1        0.1013
     38 H          -7.9427    5.9756    0.0071 H       1  LIG1        0.0645
@<TRIPOS>BOND
     1     7     1    1
     2    17    18    3
     3     6     5    1
     4     1     5   ar
     5     1     2   ar
     6     5     4   ar
     7    18    12    1
     8     2     9    1
     9     2     3   ar
    10     9     8    3
    11     4     3   ar
    12     4    11    1
    13    26    27    3
    14    12    11   ar
    15    12    13   ar
    16     3    10    1
    17    11    15   ar
    18    13    19    1
    19    13    14   ar
    20    27    21    1
    21    15    16    1
    22    15    14   ar
    23    14    20    1
    24    21    20   ar
    25    21    22   ar
    26    20    24   ar
    27    22    28    1
    28    22    23   ar
    29    24    23   ar
    30    24    25    1
    31    23    29    1
    32    36    37    3
    33    29    30   ar
    34    29    33   ar
    35    37    30    1
    36    34    33    1
    37    30    31   ar
    38    33    32   ar
    39    31    32   ar
    40    31    38    1
    41    32    35    1
