@<TRIPOS>MOLECULE
mol_data/opt/b3lyp/geoms/mol2/13dd.out
 12 12 0 0 0
SMALL
GASTEIGER

@<TRIPOS>ATOM
      1 C           1.1240   -0.3828   -0.0001 C.ar    1  LIG1        0.0205
      2 C           0.7232    0.9403    0.0001 C.ar    1  LIG1        0.0863
      3 C          -0.7202    0.9426    0.0004 C.ar    1  LIG1        0.0863
      4 C          -1.1252   -0.3792    0.0002 C.ar    1  LIG1        0.0205
      5 N          -0.0019   -1.1592   -0.0000 N.ar    1  LIG1       -0.3648
      6 H          -0.0035   -2.1675   -0.0002 H       1  LIG1        0.1648
      7 H          -2.1181   -0.8004    0.0003 H       1  LIG1        0.0820
      8 H           2.1155   -0.8072   -0.0003 H       1  LIG1        0.0820
      9 N           2.2982    2.9880    0.0001 N.1     1  LIG1       -0.1908
     10 C           1.5847    2.0691    0.0002 C.1     1  LIG1        0.1019
     11 N          -2.2886    2.9954    0.0009 N.1     1  LIG1       -0.1908
     12 C          -1.5780    2.0742    0.0007 C.1     1  LIG1        0.1019
@<TRIPOS>BOND
     1     8     1    1
     2     6     5    1
     3     1     5   ar
     4     1     2   ar
     5     5     4   ar
     6     2    10    1
     7     2     3   ar
     8     9    10    3
     9     4     7    1
    10     4     3   ar
    11     3    12    1
    12    12    11    3
