@<TRIPOS>MOLECULE
mol_data/opt/b3lyp/geoms/mol2/13dd13dd-13dd13dd-.out
 42 45 0 0 0
SMALL
GASTEIGER

@<TRIPOS>ATOM
      1 C           1.3356   -0.2981   -0.1603 C.ar    1  LIG1        0.0210
      2 C           0.9140    0.9365   -0.6237 C.ar    1  LIG1        0.0870
      3 C          -0.5199    0.9324   -0.5674 C.ar    1  LIG1        0.0957
      4 C          -0.9159   -0.3126   -0.0646 C.ar    1  LIG1        0.0831
      5 N           0.2358   -1.0295    0.1683 N.ar    1  LIG1       -0.3573
      6 H           0.2586   -1.9795    0.5197 H       1  LIG1        0.1655
      7 H           2.3345   -0.6894   -0.0475 H       1  LIG1        0.0820
      8 N           2.4342    2.8576   -1.4414 N.1     1  LIG1       -0.1908
      9 C           1.7481    1.9939   -1.0729 C.1     1  LIG1        0.1020
     10 N          -2.1993    2.7489   -1.2974 N.1     1  LIG1       -0.1908
     11 C          -1.4058    1.9592   -0.9740 C.1     1  LIG1        0.1026
     12 C          -2.2348   -0.8457    0.1818 C.ar    1  LIG1        0.0835
     13 C          -2.6327   -2.1479    0.5127 C.ar    1  LIG1        0.0964
     14 C          -4.0591   -2.1490    0.6192 C.ar    1  LIG1        0.0964
     15 C          -4.4934   -0.8479    0.3516 C.ar    1  LIG1        0.0835
     16 N          -3.3763   -0.0902    0.0960 N.ar    1  LIG1       -0.3497
     17 H          -3.3910    0.8976   -0.1388 H       1  LIG1        0.1661
     18 N          -0.9492   -4.0663    0.8773 N.1     1  LIG1       -0.1908
     19 C          -1.7498   -3.2349    0.7154 C.1     1  LIG1        0.1026
     20 N          -5.5987   -4.1145    1.2723 N.1     1  LIG1       -0.1908
     21 C          -4.8872   -3.2410    0.9784 C.1     1  LIG1        0.1026
     22 C          -5.8275   -0.2948    0.3560 C.ar    1  LIG1        0.0835
     23 C          -6.2612    1.0045    0.6332 C.ar    1  LIG1        0.0964
     24 C          -7.6880    1.0036    0.5320 C.ar    1  LIG1        0.0964
     25 C          -8.0868   -0.2967    0.1946 C.ar    1  LIG1        0.0835
     26 N          -6.9455   -1.0513    0.1000 N.ar    1  LIG1       -0.3497
     27 H          -6.9313   -2.0375   -0.1412 H       1  LIG1        0.1661
     28 N          -4.7203    2.9667    1.2931 N.1     1  LIG1       -0.1908
     29 C          -5.4323    2.0945    0.9962 C.1     1  LIG1        0.1026
     30 N          -9.3709    2.9189    0.9154 N.1     1  LIG1       -0.1908
     31 C          -8.5705    2.0890    0.7449 C.1     1  LIG1        0.1026
     32 C          -9.4064   -0.8287   -0.0502 C.ar    1  LIG1        0.0831
     33 C          -9.8037   -2.0700   -0.5612 C.ar    1  LIG1        0.0957
     34 C         -11.2378   -2.0747   -0.6113 C.ar    1  LIG1        0.0870
     35 C         -11.6582   -0.8440   -0.1368 C.ar    1  LIG1        0.0210
     36 N         -10.5575   -0.1144    0.1931 N.ar    1  LIG1       -0.3573
     37 H         -10.5794    0.8329    0.5516 H       1  LIG1        0.1655
     38 H         -12.6569   -0.4541   -0.0169 H       1  LIG1        0.0820
     39 N          -8.1259   -3.8796   -1.3117 N.1     1  LIG1       -0.1908
     40 C          -8.9187   -3.0930   -0.9792 C.1     1  LIG1        0.1026
     41 N         -12.7603   -3.9904   -1.4376 N.1     1  LIG1       -0.1908
     42 C         -12.0731   -3.1290   -1.0652 C.1     1  LIG1        0.1020
@<TRIPOS>BOND
     1     8     9    3
     2    41    42    3
     3    39    40    3
     4    10    11    3
     5     9     2    1
     6    42    34    1
     7    40    33    1
     8    11     3    1
     9     2     3   ar
    10     2     1   ar
    11    34    33   ar
    12    34    35   ar
    13     3     4   ar
    14    33    32   ar
    15     1     7    1
    16     1     5   ar
    17    27    26    1
    18    17    16    1
    19    35    38    1
    20    35    36   ar
    21     4     5   ar
    22     4    12    1
    23    32    36   ar
    24    32    25    1
    25    16    12   ar
    26    16    15   ar
    27    26    25   ar
    28    26    22   ar
    29     5     6    1
    30    12    13   ar
    31    36    37    1
    32    25    24   ar
    33    15    22    1
    34    15    14   ar
    35    22    23   ar
    36    13    14   ar
    37    13    19    1
    38    24    23   ar
    39    24    31    1
    40    14    21    1
    41    23    29    1
    42    19    18    3
    43    31    30    3
    44    21    20    3
    45    29    28    3
