@<TRIPOS>MOLECULE
mol_data/opt/b3lyp/geoms/mol2/13dd6ii6ee6if-.out
 53 56 0 0 0
SMALL
GASTEIGER

@<TRIPOS>ATOM
      1 C           0.9089    0.7449   -1.4628 C.ar    1  LIG1        0.0209
      2 C           1.0136    1.1069   -0.1339 C.ar    1  LIG1        0.0870
      3 C          -0.1554    0.5945    0.5342 C.ar    1  LIG1        0.0943
      4 C          -0.9336   -0.0662   -0.4197 C.ar    1  LIG1        0.0671
      5 N          -0.2532    0.0445   -1.6116 N.ar    1  LIG1       -0.3584
      6 H          -0.5973   -0.3127   -2.4892 H       1  LIG1        0.1654
      7 H           1.5742    0.9379   -2.2896 H       1  LIG1        0.0820
      8 N           2.9623    2.4389    0.9152 N.1     1  LIG1       -0.1908
      9 C           2.0828    1.8380    0.4473 C.1     1  LIG1        0.1020
     10 N          -0.6854    0.8275    3.0510 N.1     1  LIG1       -0.1908
     11 C          -0.4434    0.7182    1.9175 C.1     1  LIG1        0.1026
     12 C          -2.5708   -1.9265   -0.9844 C.ar    1  LIG1        0.0480
     13 C          -2.2327   -0.7386   -0.2922 C.ar    1  LIG1        0.0209
     14 C          -3.1956   -0.2015    0.5739 C.ar    1  LIG1       -0.0459
     15 C          -4.4465   -0.7943    0.7351 C.ar    1  LIG1       -0.0237
     16 C          -4.6934   -1.9494   -0.0340 C.ar    1  LIG1        0.0769
     17 N          -3.7748   -2.4885   -0.8475 N.ar    1  LIG1       -0.2509
     18 H          -2.9626    0.6961    1.1373 H       1  LIG1        0.0628
     19 C          -1.6229   -2.6706   -1.8980 C.3     1  LIG1       -0.0217
     20 H          -0.5903   -2.6446   -1.5396 H       1  LIG1        0.0293
     21 H          -1.6409   -2.2704   -2.9216 H       1  LIG1        0.0293
     22 H          -1.9535   -3.7079   -1.9646 H       1  LIG1        0.0293
     23 C          -5.4496   -0.2100    1.7006 C.3     1  LIG1       -0.0377
     24 H          -5.9982   -0.9925    2.2308 H       1  LIG1        0.0278
     25 H          -6.1913    0.4153    1.1904 H       1  LIG1        0.0278
     26 H          -4.9472    0.4167    2.4418 H       1  LIG1        0.0278
     27 C          -6.1190   -4.0116    0.4111 C.ar    1  LIG1        0.1230
     28 C          -6.0047   -2.6626   -0.0031 C.ar    1  LIG1        0.0356
     29 C          -7.1723   -2.0291   -0.4149 C.ar    1  LIG1       -0.0324
     30 C          -8.3983   -2.7128   -0.4439 C.ar    1  LIG1        0.0514
     31 C          -8.3981   -4.0772   -0.0473 C.ar    1  LIG1        0.0896
     32 N          -7.2846   -4.6801    0.3788 N.ar    1  LIG1       -0.2365
     33 H          -7.1443   -0.9921   -0.7327 H       1  LIG1        0.0638
     34 C          -4.9940   -4.7337    0.9282 C.1     1  LIG1       -0.0491
     35 C          -4.0643   -5.3494    1.3952 C.1     1  LIG1       -0.1124
     36 H          -3.2456   -5.8962    1.8031 H       1  LIG1        0.1232
     37 C          -9.5770   -2.0143   -0.8409 C.1     1  LIG1       -0.0675
     38 C         -10.5482   -1.3739   -1.1745 C.1     1  LIG1       -0.1138
     39 H         -11.4180   -0.8315   -1.4661 H       1  LIG1        0.1232
     40 C         -10.0645   -5.6716    1.0240 C.ar    1  LIG1        0.0476
     41 C          -9.6270   -4.9204   -0.0955 C.ar    1  LIG1        0.0260
     42 C         -10.3537   -5.0005   -1.2840 C.ar    1  LIG1       -0.0077
     43 C         -11.4794   -5.8203   -1.3447 C.ar    1  LIG1        0.1355
     44 C         -11.8340   -6.5274   -0.1958 C.ar    1  LIG1        0.0693
     45 N         -11.1529   -6.4493    0.9495 N.ar    1  LIG1       -0.2559
     46 H         -10.0535   -4.4457   -2.1659 H       1  LIG1        0.0662
     47 H         -12.7068   -7.1833   -0.2014 H       1  LIG1        0.0867
     48 C          -9.3673   -5.6370    2.3618 C.3     1  LIG1       -0.0217
     49 H          -9.1884   -4.6109    2.7004 H       1  LIG1        0.0293
     50 H          -8.3921   -6.1289    2.3112 H       1  LIG1        0.0293
     51 H          -9.9924   -6.1497    3.0943 H       1  LIG1        0.0293
     52 O         -12.1719   -5.8915   -2.5192 O.3     1  LIG1       -0.5052
     53 H         -12.9097   -6.5073   -2.4129 H       1  LIG1        0.2922
@<TRIPOS>BOND
     1    21    19    1
     2    52    53    1
     3    52    43    1
     4     6     5    1
     5     7     1    1
     6    46    42    1
     7    22    19    1
     8    19    20    1
     9    19    12    1
    10     5     1   ar
    11     5     4   ar
    12    39    38    1
    13     1     2   ar
    14    43    42   ar
    15    43    44   ar
    16    42    41   ar
    17    38    37    3
    18    12    17   ar
    19    12    13   ar
    20    17    16   ar
    21    37    30    1
    22    33    29    1
    23    30    29   ar
    24    30    31   ar
    25     4    13    1
    26     4     3   ar
    27    29    28   ar
    28    13    14   ar
    29    47    44    1
    30    44    45   ar
    31     2     9    1
    32     2     3   ar
    33    41    31    1
    34    41    40   ar
    35    31    32   ar
    36    16    28    1
    37    16    15   ar
    38    28    27   ar
    39    32    27   ar
    40    27    34    1
    41     9     8    3
    42     3    11    1
    43    14    15   ar
    44    14    18    1
    45    15    23    1
    46    34    35    3
    47    45    40   ar
    48    40    48    1
    49    25    23    1
    50    35    36    1
    51    23    24    1
    52    23    26    1
    53    11    10    3
    54    50    48    1
    55    48    49    1
    56    48    51    1
