@<TRIPOS>MOLECULE
mol_data/opt/b3lyp/geoms/mol2/13dd4ll4ee13ae-.out
 51 54 0 0 0
SMALL
GASTEIGER

@<TRIPOS>ATOM
      1 C           0.6541    0.1794   -1.6216 C.ar    1  LIG1        0.0197
      2 C           0.4124    1.4181   -1.0396 C.ar    1  LIG1        0.0697
      3 C          -0.7572    1.2929   -0.2288 C.ar    1  LIG1       -0.0160
      4 C          -1.1931   -0.0157   -0.3401 C.ar    1  LIG1        0.0834
      5 N          -0.3189   -0.6695   -1.1900 N.ar    1  LIG1       -0.3571
      6 H          -0.4192   -1.6390   -1.4478 H       1  LIG1        0.1655
      7 H           1.4363   -0.1342   -2.2949 H       1  LIG1        0.0820
      8 N           1.8383    3.5474   -1.3795 N.1     1  LIG1       -0.1908
      9 C           1.1984    2.5864   -1.2284 C.1     1  LIG1        0.1007
     10 H          -1.2103    2.0745    0.3617 H       1  LIG1        0.0653
     11 C          -2.3121   -0.7108    0.2433 C.ar    1  LIG1        0.1520
     12 C          -3.3508   -0.3418    1.0543 C.ar    1  LIG1       -0.0109
     13 C          -4.1492   -1.5060    1.2776 C.ar    1  LIG1       -0.0041
     14 C          -3.5467   -2.5294    0.5753 C.ar    1  LIG1        0.1387
     15 O          -2.4175   -2.0426   -0.0539 O.2     1  LIG1       -0.4531
     16 H          -3.5294    0.6452    1.4572 H       1  LIG1        0.0659
     17 C          -5.3726   -1.5626    2.1452 C.3     1  LIG1       -0.0361
     18 H          -5.4568   -2.5236    2.6597 H       1  LIG1        0.0279
     19 H          -6.2935   -1.4164    1.5672 H       1  LIG1        0.0279
     20 H          -5.3386   -0.7752    2.9036 H       1  LIG1        0.0279
     21 C          -5.1224   -4.4662    0.5714 C.ar    1  LIG1       -0.0504
     22 C          -5.3486   -5.8267    0.4067 C.ar    1  LIG1       -0.0515
     23 C          -3.8246   -3.9493    0.3997 C.ar    1  LIG1        0.0193
     24 C          -4.3272   -6.7246    0.0704 C.ar    1  LIG1        0.0064
     25 H          -6.3539   -6.2152    0.5283 H       1  LIG1        0.0624
     26 C          -2.7946   -4.8326    0.0476 C.ar    1  LIG1       -0.0298
     27 C          -3.0211   -6.2055   -0.1214 C.ar    1  LIG1        0.0331
     28 H          -1.7877   -4.4484   -0.0832 H       1  LIG1        0.0643
     29 H          -5.9522   -3.8086    0.7977 H       1  LIG1        0.0625
     30 N          -1.9444   -7.0385   -0.4292 N.pl3   1  LIG1       -0.3575
     31 H          -2.1918   -7.9228   -0.8521 H       1  LIG1        0.1423
     32 H          -1.1785   -6.5816   -0.9041 H       1  LIG1        0.1423
     33 C          -5.6337   -8.6604   -0.9303 C.ar    1  LIG1        0.1280
     34 C          -5.8896  -10.0284   -1.0104 C.ar    1  LIG1       -0.0159
     35 C          -4.6152   -8.1814   -0.0652 C.ar    1  LIG1        0.0290
     36 C          -5.1549  -10.9475   -0.2503 C.ar    1  LIG1       -0.0165
     37 H          -6.6629  -10.4047   -1.6690 H       1  LIG1        0.0655
     38 C          -3.8930   -9.1147    0.6816 C.ar    1  LIG1       -0.0087
     39 C          -4.1497  -10.4906    0.5996 C.ar    1  LIG1        0.1209
     40 H          -3.1137   -8.7778    1.3567 H       1  LIG1        0.0661
     41 H          -5.3829  -12.0028   -0.3389 H       1  LIG1        0.0655
     42 O          -6.3085   -7.7155   -1.6576 O.3     1  LIG1       -0.4945
     43 C          -7.3138   -8.1504   -2.5557 C.3     1  LIG1        0.0788
     44 H          -7.7056   -7.2483   -3.0280 H       1  LIG1        0.0660
     45 H          -6.9079   -8.8151   -3.3298 H       1  LIG1        0.0660
     46 H          -8.1305   -8.6681   -2.0351 H       1  LIG1        0.0660
     47 O          -3.3657  -11.2869    1.3915 O.3     1  LIG1       -0.4951
     48 C          -3.5986  -12.6842    1.3623 C.3     1  LIG1        0.0788
     49 H          -2.8831  -13.1254    2.0578 H       1  LIG1        0.0660
     50 H          -4.6173  -12.9339    1.6876 H       1  LIG1        0.0660
     51 H          -3.4324  -13.1041    0.3611 H       1  LIG1        0.0660
@<TRIPOS>BOND
     1    45    43    1
     2    44    43    1
     3    43    46    1
     4    43    42    1
     5     7     1    1
     6    37    34    1
     7    42    33    1
     8     1     5   ar
     9     1     2   ar
    10     6     5    1
    11     8     9    3
    12     9     2    1
    13     5     4   ar
    14     2     3   ar
    15    34    33   ar
    16    34    36   ar
    17    33    35   ar
    18    32    30    1
    19    31    30    1
    20    30    27    1
    21     4     3   ar
    22     4    11    1
    23    41    36    1
    24    36    39   ar
    25     3    10    1
    26    27    26   ar
    27    27    24   ar
    28    28    26    1
    29    35    24    1
    30    35    38   ar
    31    15    11   ar
    32    15    14   ar
    33    26    23   ar
    34    24    22   ar
    35    11    12   ar
    36    51    48    1
    37    23    21   ar
    38    23    14    1
    39    22    25    1
    40    22    21   ar
    41    21    29    1
    42    14    13   ar
    43    39    38   ar
    44    39    47    1
    45    38    40    1
    46    12    13   ar
    47    12    16    1
    48    13    17    1
    49    48    47    1
    50    48    50    1
    51    48    49    1
    52    19    17    1
    53    17    18    1
    54    17    20    1
