@<TRIPOS>MOLECULE
mol_data/opt/b3lyp/geoms/mol2/13dd13dd-13dd.out
 32 34 0 0 0
SMALL
GASTEIGER

@<TRIPOS>ATOM
      1 C           1.2991   -0.4162   -0.0006 C.ar    1  LIG1        0.0210
      2 C           0.9740    0.9285   -0.0003 C.ar    1  LIG1        0.0870
      3 C          -0.4595    1.0100   -0.0000 C.ar    1  LIG1        0.0957
      4 C          -0.9551   -0.2989    0.0002 C.ar    1  LIG1        0.0831
      5 N           0.1439   -1.1328   -0.0001 N.ar    1  LIG1       -0.3573
      6 H           0.0988   -2.1446   -0.0003 H       1  LIG1        0.1655
      7 H           2.2660   -0.8946   -0.0010 H       1  LIG1        0.0820
      8 N           2.6486    2.8948   -0.0008 N.1     1  LIG1       -0.1908
      9 C           1.8908    2.0124   -0.0005 C.1     1  LIG1        0.1020
     10 N          -1.8498    3.1832    0.0002 N.1     1  LIG1       -0.1908
     11 C          -1.2220    2.2022    0.0001 C.1     1  LIG1        0.1026
     12 C          -2.3042   -0.8177    0.0006 C.ar    1  LIG1        0.0835
     13 C          -2.7289   -2.1512    0.0005 C.ar    1  LIG1        0.0964
     14 C          -4.1581   -2.1489    0.0011 C.ar    1  LIG1        0.0964
     15 C          -4.5786   -0.8141    0.0016 C.ar    1  LIG1        0.0835
     16 N          -3.4402   -0.0379    0.0013 N.ar    1  LIG1       -0.3497
     17 H          -3.4385    0.9787    0.0015 H       1  LIG1        0.1661
     18 N          -1.1353   -4.1787   -0.0007 N.1     1  LIG1       -0.1908
     19 C          -1.8880   -3.2884   -0.0001 C.1     1  LIG1        0.1026
     20 N          -5.7582   -4.1713    0.0013 N.1     1  LIG1       -0.1908
     21 C          -5.0026   -3.2835    0.0012 C.1     1  LIG1        0.1026
     22 C          -5.9260   -0.2910    0.0024 C.ar    1  LIG1        0.0831
     23 C          -6.4175    1.0195    0.0030 C.ar    1  LIG1        0.0957
     24 C          -7.8512    0.9425    0.0035 C.ar    1  LIG1        0.0870
     25 C          -8.1806   -0.4011    0.0035 C.ar    1  LIG1        0.0210
     26 N          -7.0277   -1.1214    0.0027 N.ar    1  LIG1       -0.3573
     27 H          -6.9858   -2.1333    0.0023 H       1  LIG1        0.1655
     28 H          -9.1490   -0.8764    0.0039 H       1  LIG1        0.0820
     29 N          -5.0203    3.1882    0.0031 N.1     1  LIG1       -0.1908
     30 C          -5.6512    2.2092    0.0031 C.1     1  LIG1        0.1026
     31 N          -9.5196    2.9141    0.0047 N.1     1  LIG1       -0.1908
     32 C          -8.7646    2.0294    0.0041 C.1     1  LIG1        0.1020
@<TRIPOS>BOND
     1     7     1    1
     2     8     9    3
     3    18    19    3
     4     1     2   ar
     5     1     5   ar
     6     9     2    1
     7     2     3   ar
     8     6     5    1
     9     5     4   ar
    10    19    13    1
    11     3    11    1
    12     3     4   ar
    13    11    10    3
    14     4    12    1
    15    13    12   ar
    16    13    14   ar
    17    12    16   ar
    18    14    21    1
    19    14    15   ar
    20    21    20    3
    21    16    17    1
    22    16    15   ar
    23    15    22    1
    24    27    26    1
    25    22    26   ar
    26    22    23   ar
    27    26    25   ar
    28    23    30    1
    29    23    24   ar
    30    30    29    3
    31    25    24   ar
    32    25    28    1
    33    24    32    1
    34    32    31    3
