@<TRIPOS>MOLECULE
mol_data/opt/b3lyp/geoms/mol2/13dd13dd-13dd-13dd-.out
 42 45 0 0 0
SMALL
GASTEIGER

@<TRIPOS>ATOM
      1 C           1.2008   -0.1354    0.0426 C.ar    1  LIG1        0.0210
      2 C           0.6923    1.1232    0.3104 C.ar    1  LIG1        0.0870
      3 C          -0.7387    1.0015    0.2941 C.ar    1  LIG1        0.0957
      4 C          -1.0427   -0.3401    0.0178 C.ar    1  LIG1        0.0831
      5 N           0.1548   -0.9941   -0.1280 N.ar    1  LIG1       -0.3573
      6 H           0.2422   -1.9797   -0.3501 H       1  LIG1        0.1655
      7 H           2.2253   -0.4639   -0.0350 H       1  LIG1        0.0820
      8 N           2.0456    3.2790    0.7465 N.1     1  LIG1       -0.1908
      9 C           1.4409    2.3051    0.5498 C.1     1  LIG1        0.1020
     10 N          -2.6261    2.7242    0.6278 N.1     1  LIG1       -0.1908
     11 C          -1.7183    2.0041    0.4889 C.1     1  LIG1        0.1026
     12 C          -2.3291   -0.9774   -0.1175 C.ar    1  LIG1        0.0835
     13 C          -2.6935   -2.2683   -0.5153 C.ar    1  LIG1        0.0964
     14 C          -4.1273   -2.3450   -0.5000 C.ar    1  LIG1        0.0964
     15 C          -4.5952   -1.0989   -0.0775 C.ar    1  LIG1        0.0835
     16 N          -3.4943   -0.3041    0.1368 N.ar    1  LIG1       -0.3497
     17 H          -3.5337    0.6205    0.5474 H       1  LIG1        0.1661
     18 N          -0.9067   -4.0169   -1.1434 N.1     1  LIG1       -0.1908
     19 C          -1.7614   -3.2708   -0.8778 C.1     1  LIG1        0.1026
     20 N          -5.5125   -4.3634   -1.3170 N.1     1  LIG1       -0.1908
     21 C          -4.9007   -3.4522   -0.9319 C.1     1  LIG1        0.1026
     22 C          -5.9075   -0.5217    0.1047 C.ar    1  LIG1        0.0835
     23 C          -7.1031   -1.0120    0.6234 C.ar    1  LIG1        0.0964
     24 C          -8.0356    0.0825    0.6640 C.ar    1  LIG1        0.0964
     25 C          -7.3818    1.2091    0.1680 C.ar    1  LIG1        0.0835
     26 N          -6.0963    0.8243   -0.1431 N.ar    1  LIG1       -0.3497
     27 H          -5.4812    1.3778   -0.7242 H       1  LIG1        0.1661
     28 N          -7.4947   -3.3712    1.5963 N.1     1  LIG1       -0.1908
     29 C          -7.3224   -2.3136    1.1442 C.1     1  LIG1        0.1026
     30 N         -10.3929    0.0066    1.7141 N.1     1  LIG1       -0.1908
     31 C          -9.3381    0.0422    1.2258 C.1     1  LIG1        0.1026
     32 C          -7.7992    2.5859    0.0074 C.ar    1  LIG1        0.0831
     33 C          -8.9785    3.1457   -0.4808 C.ar    1  LIG1        0.0957
     34 C          -8.8183    4.5744   -0.4392 C.ar    1  LIG1        0.0870
     35 C          -7.5543    4.8300    0.0614 C.ar    1  LIG1        0.0210
     36 N          -6.9509    3.6336    0.3133 N.ar    1  LIG1       -0.3573
     37 H          -6.0533    3.5325    0.7667 H       1  LIG1        0.1655
     38 H          -7.0632    5.7710    0.2543 H       1  LIG1        0.0820
     39 N         -10.9919    1.8669   -1.4691 N.1     1  LIG1       -0.1908
     40 C         -10.0896    2.4394   -1.0097 C.1     1  LIG1        0.1026
     41 N         -10.5252    6.3632   -1.1877 N.1     1  LIG1       -0.1908
     42 C          -9.7618    5.5531   -0.8511 C.1     1  LIG1        0.1020
@<TRIPOS>BOND
     1    39    40    3
     2    20    21    3
     3    41    42    3
     4    18    19    3
     5    40    33    1
     6    21    14    1
     7    19    13    1
     8    42    34    1
     9    27    26    1
    10    13    14   ar
    11    13    12   ar
    12    14    15   ar
    13    33    34   ar
    14    33    32   ar
    15    34    35   ar
    16     6     5    1
    17    26    22   ar
    18    26    25   ar
    19     5     4   ar
    20     5     1   ar
    21    12     4    1
    22    12    16   ar
    23    15    22    1
    24    15    16   ar
    25     7     1    1
    26    32    25    1
    27    32    36   ar
    28     4     3   ar
    29     1     2   ar
    30    35    38    1
    31    35    36   ar
    32    22    23   ar
    33    16    17    1
    34    25    24   ar
    35     3     2   ar
    36     3    11    1
    37     2     9    1
    38    36    37    1
    39    11    10    3
    40     9     8    3
    41    23    24   ar
    42    23    29    1
    43    24    31    1
    44    29    28    3
    45    31    30    3
