@<TRIPOS>MOLECULE
mol_data/opt/b3lyp/geoms/mol2/13dd13dd13dd-13dd-.out
 42 45 0 0 0
SMALL
GASTEIGER

@<TRIPOS>ATOM
      1 C           1.2539   -0.0934   -0.6587 C.ar    1  LIG1        0.0210
      2 C           0.9204    1.0623    0.0246 C.ar    1  LIG1        0.0870
      3 C          -0.4950    1.0147    0.2725 C.ar    1  LIG1        0.0957
      4 C          -0.9700   -0.1730   -0.2812 C.ar    1  LIG1        0.0831
      5 N           0.1169   -0.8270   -0.8257 N.ar    1  LIG1       -0.3573
      6 H           0.0627   -1.6787   -1.3654 H       1  LIG1        0.1655
      7 H           2.2102   -0.4262   -1.0309 H       1  LIG1        0.0820
      8 N           2.5697    2.9184    0.7374 N.1     1  LIG1       -0.1908
      9 C           1.8231    2.0859    0.4183 C.1     1  LIG1        0.1020
     10 N          -1.8678    2.7027    1.6628 N.1     1  LIG1       -0.1908
     11 C          -1.2519    1.9500    1.0248 C.1     1  LIG1        0.1026
     12 C          -2.3015   -0.7437   -0.2984 C.ar    1  LIG1        0.0835
     13 C          -3.5432   -0.1663   -0.5644 C.ar    1  LIG1        0.0964
     14 C          -4.5230   -1.2040   -0.4386 C.ar    1  LIG1        0.0964
     15 C          -3.8518   -2.3896   -0.1155 C.ar    1  LIG1        0.0835
     16 N          -2.5164   -2.0790   -0.0438 N.ar    1  LIG1       -0.3497
     17 H          -1.8023   -2.7247    0.2752 H       1  LIG1        0.1661
     18 N          -4.0233    2.2477   -1.3413 N.1     1  LIG1       -0.1908
     19 C          -3.7956    1.1675   -0.9751 C.1     1  LIG1        0.1026
     20 N          -7.0857   -1.1634   -0.7074 N.1     1  LIG1       -0.1908
     21 C          -5.9254   -1.1128   -0.6055 C.1     1  LIG1        0.1026
     22 C          -4.3643   -3.7169    0.1202 C.ar    1  LIG1        0.0835
     23 C          -3.6933   -4.9024    0.4441 C.ar    1  LIG1        0.0964
     24 C          -4.6731   -5.9401    0.5698 C.ar    1  LIG1        0.0964
     25 C          -5.9147   -5.3628    0.3031 C.ar    1  LIG1        0.0835
     26 N          -5.6997   -4.0277    0.0479 N.ar    1  LIG1       -0.3497
     27 H          -6.4138   -3.3820   -0.2712 H       1  LIG1        0.1661
     28 N          -1.1307   -4.9430    0.7140 N.1     1  LIG1       -0.1908
     29 C          -2.2909   -4.9936    0.6117 C.1     1  LIG1        0.1026
     30 N          -4.1933   -8.3539    1.3476 N.1     1  LIG1       -0.1908
     31 C          -4.4208   -7.2738    0.9811 C.1     1  LIG1        0.1026
     32 C          -7.2463   -5.9333    0.2856 C.ar    1  LIG1        0.0831
     33 C          -7.7214   -7.1209   -0.2683 C.ar    1  LIG1        0.0957
     34 C          -9.1370   -7.1681   -0.0208 C.ar    1  LIG1        0.0870
     35 C          -9.4704   -6.0124    0.6624 C.ar    1  LIG1        0.0210
     36 N          -8.3331   -5.2791    0.8297 N.ar    1  LIG1       -0.3573
     37 H          -8.2789   -4.4274    1.3695 H       1  LIG1        0.1655
     38 H         -10.4267   -5.6793    1.0342 H       1  LIG1        0.0820
     39 N          -6.3487   -8.8094   -1.6580 N.1     1  LIG1       -0.1908
     40 C          -6.9646   -8.0564   -1.0203 C.1     1  LIG1        0.1026
     41 N         -10.7866   -9.0237   -0.7341 N.1     1  LIG1       -0.1908
     42 C         -10.0398   -8.1915   -0.4147 C.1     1  LIG1        0.1020
@<TRIPOS>BOND
     1    39    40    3
     2     6     5    1
     3    18    19    3
     4     7     1    1
     5    40    33    1
     6    19    13    1
     7     5     1   ar
     8     5     4   ar
     9    41    42    3
    10    20    21    3
    11     1     2   ar
    12    21    14    1
    13    13    14   ar
    14    13    12   ar
    15    14    15   ar
    16    42    34    1
    17    12     4    1
    18    12    16   ar
    19     4     3   ar
    20    27    26    1
    21    33    34   ar
    22    33    32   ar
    23    15    16   ar
    24    15    22    1
    25    16    17    1
    26    34    35   ar
    27     2     3   ar
    28     2     9    1
    29    26    22   ar
    30    26    25   ar
    31    22    23   ar
    32     3    11    1
    33    32    25    1
    34    32    36   ar
    35    25    24   ar
    36     9     8    3
    37    23    24   ar
    38    23    29    1
    39    24    31    1
    40    29    28    3
    41    35    36   ar
    42    35    38    1
    43    36    37    1
    44    31    30    3
    45    11    10    3
