@<TRIPOS>MOLECULE
mol_data/opt/b3lyp/geoms/mol2/13dd13dd-.out
 22 23 0 0 0
SMALL
GASTEIGER

@<TRIPOS>ATOM
      1 C           1.2037   -0.3256   -0.0007 C.ar    1  LIG1        0.0210
      2 C           0.8243    1.0045    0.0000 C.ar    1  LIG1        0.0870
      3 C          -0.6123    1.0247   -0.0002 C.ar    1  LIG1        0.0957
      4 C          -1.0515   -0.3046    0.0003 C.ar    1  LIG1        0.0830
      5 N           0.0761   -1.0913    0.0001 N.ar    1  LIG1       -0.3573
      6 H           0.0644   -2.1048    0.0002 H       1  LIG1        0.1655
      7 H           2.1893   -0.7635   -0.0012 H       1  LIG1        0.0820
      8 N           2.4033    3.0481   -0.0001 N.1     1  LIG1       -0.1908
      9 C           1.6924    2.1274    0.0001 C.1     1  LIG1        0.1020
     10 N          -2.2556    3.0112   -0.0000 N.1     1  LIG1       -0.1908
     11 C          -1.4690    2.1507   -0.0001 C.1     1  LIG1        0.1026
     12 C          -2.3904   -0.8477    0.0008 C.ar    1  LIG1        0.0830
     13 C          -2.8296   -2.1769    0.0011 C.ar    1  LIG1        0.0957
     14 C          -4.2662   -2.1568    0.0008 C.ar    1  LIG1        0.0870
     15 C          -4.6456   -0.8267    0.0019 C.ar    1  LIG1        0.0210
     16 N          -3.5180   -0.0609    0.0012 N.ar    1  LIG1       -0.3573
     17 H          -3.5063    0.9526    0.0012 H       1  LIG1        0.1655
     18 H          -5.6312   -0.3887    0.0024 H       1  LIG1        0.0820
     19 N          -1.1863   -4.1634    0.0001 N.1     1  LIG1       -0.1908
     20 C          -1.9729   -3.3030    0.0009 C.1     1  LIG1        0.1026
     21 N          -5.8452   -4.2003    0.0006 N.1     1  LIG1       -0.1908
     22 C          -5.1344   -3.2796    0.0005 C.1     1  LIG1        0.1020
@<TRIPOS>BOND
     1     7     1    1
     2     1     2   ar
     3     1     5   ar
     4     3    11    1
     5     3     2   ar
     6     3     4   ar
     7    11    10    3
     8     8     9    3
     9     2     9    1
    10     5     6    1
    11     5     4   ar
    12    19    20    3
    13     4    12    1
    14    22    21    3
    15    22    14    1
    16    12    13   ar
    17    12    16   ar
    18    14    13   ar
    19    14    15   ar
    20    20    13    1
    21    17    16    1
    22    16    15   ar
    23    15    18    1
