@<TRIPOS>MOLECULE
mol_data/opt/b3lyp/geoms/mol2/13dd13dd13dd-13dd.out
 42 45 0 0 0
SMALL
GASTEIGER

@<TRIPOS>ATOM
      1 C           1.2726   -0.2034   -0.1935 C.ar    1  LIG1        0.0210
      2 C           0.9220    0.9913    0.4094 C.ar    1  LIG1        0.0870
      3 C          -0.5134    1.0182    0.4967 C.ar    1  LIG1        0.0957
      4 C          -0.9813   -0.1666   -0.0690 C.ar    1  LIG1        0.0831
      5 N           0.1267   -0.8901   -0.4651 N.ar    1  LIG1       -0.3573
      6 H           0.0911   -1.7610   -0.9762 H       1  LIG1        0.1655
      7 H           2.2469   -0.5926   -0.4446 H       1  LIG1        0.0820
      8 N           2.5744    2.7930    1.2441 N.1     1  LIG1       -0.1908
      9 C           1.8255    1.9860    0.8695 C.1     1  LIG1        0.1020
     10 N          -1.9326    2.8237    1.6765 N.1     1  LIG1       -0.1908
     11 C          -1.2975    2.0164    1.1308 C.1     1  LIG1        0.1026
     12 C          -2.3211   -0.6927   -0.2253 C.ar    1  LIG1        0.0835
     13 C          -3.5169   -0.0966   -0.6309 C.ar    1  LIG1        0.0964
     14 C          -4.5177   -1.1227   -0.6441 C.ar    1  LIG1        0.0964
     15 C          -3.9045   -2.3174   -0.2550 C.ar    1  LIG1        0.0835
     16 N          -2.5841   -2.0238   -0.0124 N.ar    1  LIG1       -0.3497
     17 H          -1.9152   -2.6831    0.3638 H       1  LIG1        0.1661
     18 N          -3.8502    2.3277   -1.4522 N.1     1  LIG1       -0.1908
     19 C          -3.6954    1.2423   -1.0642 C.1     1  LIG1        0.1026
     20 N          -6.9808   -0.9618   -1.3968 N.1     1  LIG1       -0.1908
     21 C          -5.8678   -0.9994   -1.0565 C.1     1  LIG1        0.1026
     22 C          -4.4170   -3.6610   -0.1472 C.ar    1  LIG1        0.0835
     23 C          -3.7148   -4.8722   -0.1337 C.ar    1  LIG1        0.0964
     24 C          -4.6801   -5.9243   -0.0458 C.ar    1  LIG1        0.0964
     25 C          -5.9463   -5.3275   -0.0033 C.ar    1  LIG1        0.0835
     26 N          -5.7520   -3.9682   -0.0679 N.ar    1  LIG1       -0.3497
     27 H          -6.5006   -3.2808   -0.0552 H       1  LIG1        0.1661
     28 N          -1.1413   -4.9500   -0.2555 N.1     1  LIG1       -0.1908
     29 C          -2.3059   -4.9782   -0.2077 C.1     1  LIG1        0.1026
     30 N          -4.3139   -8.4764   -0.0107 N.1     1  LIG1       -0.1908
     31 C          -4.4346   -7.3172   -0.0189 C.1     1  LIG1        0.1026
     32 C          -7.2506   -5.9358    0.1068 C.ar    1  LIG1        0.0831
     33 C          -8.5006   -5.3658    0.3745 C.ar    1  LIG1        0.0957
     34 C          -9.4633   -6.4294    0.3878 C.ar    1  LIG1        0.0870
     35 C          -8.7695   -7.6006    0.1349 C.ar    1  LIG1        0.0210
     36 N          -7.4548   -7.2909   -0.0304 N.ar    1  LIG1       -0.3573
     37 H          -6.7226   -7.9670   -0.2097 H       1  LIG1        0.1655
     38 H          -9.1292   -8.6151    0.0636 H       1  LIG1        0.0820
     39 N          -8.8454   -2.8525    0.8428 N.1     1  LIG1       -0.1908
     40 C          -8.7299   -3.9919    0.6293 C.1     1  LIG1        0.1026
     41 N         -12.0024   -6.2296    0.8161 N.1     1  LIG1       -0.1908
     42 C         -10.8589   -6.3162    0.6228 C.1     1  LIG1        0.1020
@<TRIPOS>BOND
     1    18    19    3
     2    20    21    3
     3    19    13    1
     4    21    14    1
     5     6     5    1
     6    14    13   ar
     7    14    15   ar
     8    13    12   ar
     9     5     1   ar
    10     5     4   ar
    11     7     1    1
    12    28    29    3
    13    15    22    1
    14    15    16   ar
    15    12     4    1
    16    12    16   ar
    17    37    36    1
    18    29    23    1
    19     1     2   ar
    20    22    23   ar
    21    22    26   ar
    22    23    24   ar
    23     4     3   ar
    24    26    27    1
    25    26    25   ar
    26    24    31    1
    27    24    25   ar
    28    36    32   ar
    29    36    35   ar
    30    31    30    3
    31    16    17    1
    32    25    32    1
    33    38    35    1
    34    32    33   ar
    35    35    34   ar
    36    33    34   ar
    37    33    40    1
    38    34    42    1
    39     2     3   ar
    40     2     9    1
    41     3    11    1
    42    42    41    3
    43    40    39    3
    44     9     8    3
    45    11    10    3
