@<TRIPOS>MOLECULE
mol_data/opt/b3lyp/geoms/mol2/13dd13dd-13dd-13dd.out
 42 45 0 0 0
SMALL
GASTEIGER

@<TRIPOS>ATOM
      1 C           1.3658   -0.4349   -0.0898 C.ar    1  LIG1        0.0210
      2 C           0.9939    0.7504   -0.7004 C.ar    1  LIG1        0.0870
      3 C          -0.4409    0.7766   -0.7100 C.ar    1  LIG1        0.0957
      4 C          -0.8874   -0.4020   -0.0993 C.ar    1  LIG1        0.0831
      5 N           0.2356   -1.1087    0.2618 N.ar    1  LIG1       -0.3573
      6 H           0.2201   -2.0108    0.7238 H       1  LIG1        0.1655
      7 H           2.3495   -0.8293    0.1114 H       1  LIG1        0.0820
      8 N           2.5849    2.5530   -1.6432 N.1     1  LIG1       -0.1908
      9 C           1.8686    1.7414   -1.2179 C.1     1  LIG1        0.1020
     10 N          -2.0948    2.5207   -1.6409 N.1     1  LIG1       -0.1908
     11 C          -1.2978    1.7717   -1.2374 C.1     1  LIG1        0.1026
     12 C          -2.2305   -0.8742    0.1420 C.ar    1  LIG1        0.0835
     13 C          -2.6840   -2.0757    0.7009 C.ar    1  LIG1        0.0964
     14 C          -4.1162   -2.0484    0.6909 C.ar    1  LIG1        0.0964
     15 C          -4.4963   -0.8347    0.1209 C.ar    1  LIG1        0.0835
     16 N          -3.3455   -0.1466   -0.1885 N.ar    1  LIG1       -0.3497
     17 H          -3.3175    0.7384   -0.6846 H       1  LIG1        0.1661
     18 N          -1.0592   -3.8764    1.5756 N.1     1  LIG1       -0.1908
     19 C          -1.8382   -3.0977    1.1945 C.1     1  LIG1        0.1026
     20 N          -5.6716   -3.8366    1.7139 N.1     1  LIG1       -0.1908
     21 C          -4.9765   -3.0334    1.2400 C.1     1  LIG1        0.1026
     22 C          -5.8110   -0.2721   -0.1167 C.ar    1  LIG1        0.0835
     23 C          -6.9512   -0.8348   -0.6872 C.ar    1  LIG1        0.0964
     24 C          -7.9600    0.1822   -0.6968 C.ar    1  LIG1        0.0964
     25 C          -7.4041    1.3396   -0.1372 C.ar    1  LIG1        0.0835
     26 N          -6.1079    1.0353    0.1933 N.ar    1  LIG1       -0.3497
     27 H          -5.4872    1.6664    0.6898 H       1  LIG1        0.1661
     28 N          -7.1705   -3.1942   -1.7116 N.1     1  LIG1       -0.1908
     29 C          -7.0696   -2.1370   -1.2371 C.1     1  LIG1        0.1026
     30 N         -10.3842    0.1144   -1.5719 N.1     1  LIG1       -0.1908
     31 C          -9.2832    0.0885   -1.1907 C.1     1  LIG1        0.1026
     32 C          -7.9901    2.6370    0.1046 C.ar    1  LIG1        0.0831
     33 C          -7.4460    3.7734    0.7161 C.ar    1  LIG1        0.0957
     34 C          -8.4557    4.7931    0.7070 C.ar    1  LIG1        0.0870
     35 C          -9.5696    4.2441    0.0957 C.ar    1  LIG1        0.0210
     36 N          -9.2766    2.9615   -0.2565 N.ar    1  LIG1       -0.3573
     37 H          -9.9183    2.3276   -0.7190 H       1  LIG1        0.1655
     38 H         -10.5341    4.6834   -0.1056 H       1  LIG1        0.0820
     39 N          -5.0426    3.7809    1.6475 N.1     1  LIG1       -0.1908
     40 C          -6.1346    3.8405    1.2438 C.1     1  LIG1        0.1026
     41 N          -8.2507    7.1881    1.6513 N.1     1  LIG1       -0.1908
     42 C          -8.3430    6.1098    1.2253 C.1     1  LIG1        0.1020
@<TRIPOS>BOND
     1    28    29    3
     2     8     9    3
     3    10    11    3
     4    30    31    3
     5    11     3    1
     6    29    23    1
     7     9     2    1
     8    31    24    1
     9    37    36    1
    10     3     2   ar
    11     3     4   ar
    12     2     1   ar
    13    24    23   ar
    14    24    25   ar
    15    23    22   ar
    16    17    16    1
    17    36    35   ar
    18    36    32   ar
    19    16    15   ar
    20    16    12   ar
    21    25    32    1
    22    25    26   ar
    23    22    15    1
    24    22    26   ar
    25    38    35    1
    26     4    12    1
    27     4     5   ar
    28     1     7    1
    29     1     5   ar
    30    35    34   ar
    31    32    33   ar
    32    15    14   ar
    33    12    13   ar
    34    26    27    1
    35     5     6    1
    36    14    13   ar
    37    14    21    1
    38    13    19    1
    39    34    33   ar
    40    34    42    1
    41    33    40    1
    42    19    18    3
    43    42    41    3
    44    21    20    3
    45    40    39    3
