@<TRIPOS>MOLECULE
mol_data/opt/b3lyp/geoms/mol2/13dd6eh13el6ii-.out
 54 57 0 0 0
SMALL
GASTEIGER

@<TRIPOS>ATOM
      1 C           1.4916   -0.4187   -0.1491 C.ar    1  LIG1        0.0209
      2 C           1.1794    0.9267   -0.2068 C.ar    1  LIG1        0.0870
      3 C          -0.2556    1.0210   -0.2470 C.ar    1  LIG1        0.0944
      4 C          -0.7677   -0.2858   -0.2154 C.ar    1  LIG1        0.0681
      5 N           0.3257   -1.1185   -0.1572 N.ar    1  LIG1       -0.3584
      6 H           0.2416   -2.1258   -0.0802 H       1  LIG1        0.1654
      7 H           2.4530   -0.9056   -0.1033 H       1  LIG1        0.0820
      8 N           2.8783    2.8723   -0.2268 N.1     1  LIG1       -0.1908
      9 C           2.1089    1.9993   -0.2178 C.1     1  LIG1        0.1020
     10 N          -1.5752    3.2391   -0.3228 N.1     1  LIG1       -0.1908
     11 C          -0.9811    2.2377   -0.2850 C.1     1  LIG1        0.1026
     12 C          -2.5373   -2.1000    0.1117 C.ar    1  LIG1        0.1231
     13 C          -2.1477   -0.7776   -0.2453 C.ar    1  LIG1        0.0352
     14 C          -3.1767    0.0737   -0.6533 C.ar    1  LIG1       -0.0271
     15 C          -4.5229   -0.3188   -0.6781 C.ar    1  LIG1        0.0531
     16 C          -4.8159   -1.6433   -0.2265 C.ar    1  LIG1        0.1104
     17 N          -3.8219   -2.4755    0.1127 N.ar    1  LIG1       -0.2344
     18 H          -2.9413    1.0761   -0.9887 H       1  LIG1        0.0644
     19 C          -1.6220   -3.1324    0.5071 C.1     1  LIG1       -0.0491
     20 C          -0.8725   -4.0299    0.8277 C.1     1  LIG1       -0.1124
     21 H          -0.2432   -4.8313    1.1419 H       1  LIG1        0.1232
     22 N          -5.4572    0.5288   -1.2052 N.pl3   1  LIG1       -0.3563
     23 H          -5.1676    1.4848   -1.3519 H       1  LIG1        0.1424
     24 H          -6.4335    0.4188   -0.9646 H       1  LIG1        0.1424
     25 C          -6.1415   -2.2713   -0.1613 C.ar    1  LIG1        0.0865
     26 C          -7.4855   -1.8509   -0.0673 C.ar    1  LIG1        0.0937
     27 C          -8.2799   -3.0396   -0.0089 C.ar    1  LIG1        0.1613
     28 C          -7.4368   -4.1485   -0.0475 C.ar    1  LIG1        0.0922
     29 N          -6.1634   -3.6391   -0.1404 N.ar    1  LIG1       -0.3489
     30 H          -5.2956   -4.1554   -0.1556 H       1  LIG1        0.1661
     31 C          -8.0332   -0.5499    0.0404 C.1     1  LIG1       -0.0638
     32 C          -8.5488    0.5438    0.1413 C.1     1  LIG1       -0.1137
     33 H          -9.0008    1.5030    0.2472 H       1  LIG1        0.1232
     34 O          -9.6434   -3.0791    0.0459 O.3     1  LIG1       -0.4917
     35 C         -10.2020   -2.8175    1.3407 C.3     1  LIG1        0.0789
     36 H         -11.2855   -2.8796    1.2248 H       1  LIG1        0.0660
     37 H          -9.8669   -3.5649    2.0695 H       1  LIG1        0.0660
     38 H          -9.9303   -1.8169    1.6925 H       1  LIG1        0.0660
     39 C          -6.9293   -6.5830    0.5112 C.ar    1  LIG1        0.0474
     40 C          -7.7632   -5.5788   -0.0471 C.ar    1  LIG1        0.0232
     41 C          -8.9768   -5.9899   -0.6217 C.ar    1  LIG1       -0.0464
     42 C          -9.3381   -7.3364   -0.6502 C.ar    1  LIG1       -0.0317
     43 C          -8.4281   -8.2357   -0.0888 C.ar    1  LIG1        0.0308
     44 N          -7.2715   -7.8777    0.4753 N.ar    1  LIG1       -0.2592
     45 H          -9.6360   -5.2395   -1.0453 H       1  LIG1        0.0628
     46 H          -8.6470   -9.3033   -0.0890 H       1  LIG1        0.0832
     47 C          -5.6154   -6.2941    1.2009 C.3     1  LIG1       -0.0217
     48 H          -5.6582   -5.3985    1.8273 H       1  LIG1        0.0293
     49 H          -4.7943   -6.1614    0.4831 H       1  LIG1        0.0293
     50 H          -5.3566   -7.1536    1.8209 H       1  LIG1        0.0293
     51 C         -10.6378   -7.7993   -1.2589 C.3     1  LIG1       -0.0383
     52 H         -10.7022   -8.8909   -1.2704 H       1  LIG1        0.0278
     53 H         -10.7447   -7.4453   -2.2898 H       1  LIG1        0.0278
     54 H         -11.4992   -7.4206   -0.6968 H       1  LIG1        0.0278
@<TRIPOS>BOND
     1    53    51    1
     2    23    22    1
     3    52    51    1
     4    51    54    1
     5    51    42    1
     6    22    24    1
     7    22    15    1
     8    45    41    1
     9    18    14    1
    10    15    14   ar
    11    15    16   ar
    12    14    13   ar
    13    42    41   ar
    14    42    43   ar
    15    41    40   ar
    16    10    11    3
    17    11     3    1
    18     3     4   ar
    19     3     2   ar
    20    13     4    1
    21    13    12   ar
    22     8     9    3
    23    16    25    1
    24    16    17   ar
    25     9     2    1
    26     4     5   ar
    27     2     1   ar
    28    25    29   ar
    29    25    26   ar
    30     5     1   ar
    31     5     6    1
    32    30    29    1
    33     1     7    1
    34    29    28   ar
    35    46    43    1
    36    43    44   ar
    37    26    27   ar
    38    26    31    1
    39    28    40    1
    40    28    27   ar
    41    40    39   ar
    42    27    34    1
    43    31    32    3
    44    34    35    1
    45    12    17   ar
    46    12    19    1
    47    32    33    1
    48    44    39   ar
    49    49    47    1
    50    19    20    3
    51    39    47    1
    52    20    21    1
    53    47    50    1
    54    47    48    1
    55    36    35    1
    56    35    38    1
    57    35    37    1
