@<TRIPOS>MOLECULE
mol_data/opt/b3lyp/geoms/mol2/13dd13dd.out
 22 23 0 0 0
SMALL
GASTEIGER

@<TRIPOS>ATOM
      1 C           1.1043   -0.1988   -0.7097 C.ar    1  LIG1        0.0210
      2 C           0.8407    0.9797   -0.0355 C.ar    1  LIG1        0.0870
      3 C          -0.5376    0.9324    0.3755 C.ar    1  LIG1        0.0957
      4 C          -1.0606   -0.2774   -0.0695 C.ar    1  LIG1        0.0830
      5 N          -0.0382   -0.9445   -0.7132 N.ar    1  LIG1       -0.3573
      6 H          -0.1597   -1.8078   -1.2218 H       1  LIG1        0.1655
      7 H           2.0146   -0.5392   -1.1779 H       1  LIG1        0.0820
      8 N           2.5490    2.8647    0.4145 N.1     1  LIG1       -0.1908
      9 C           1.7746    2.0208    0.2127 C.1     1  LIG1        0.1020
     10 N          -1.7905    2.6905    1.7932 N.1     1  LIG1       -0.1908
     11 C          -1.2295    1.9040    1.1457 C.1     1  LIG1        0.1026
     12 C          -2.3948   -0.8432    0.0703 C.ar    1  LIG1        0.0830
     13 C          -3.6281   -0.3780   -0.3744 C.ar    1  LIG1        0.0957
     14 C          -4.6202   -1.3360    0.0365 C.ar    1  LIG1        0.0870
     15 C          -3.9562   -2.3450    0.7103 C.ar    1  LIG1        0.0210
     16 N          -2.6259   -2.0421    0.7138 N.ar    1  LIG1       -0.3573
     17 H          -1.9208   -2.5550    1.2221 H       1  LIG1        0.1655
     18 H          -4.3442   -3.2361    1.1784 H       1  LIG1        0.0820
     19 N          -4.0210    1.7451   -1.7916 N.1     1  LIG1       -0.1908
     20 C          -3.8456    0.7949   -1.1443 C.1     1  LIG1        0.1026
     21 N          -7.1628   -1.2536   -0.4133 N.1     1  LIG1       -0.1908
     22 C          -6.0178   -1.2835   -0.2116 C.1     1  LIG1        0.1020
@<TRIPOS>BOND
     1    19    20    3
     2     6     5    1
     3     7     1    1
     4    20    13    1
     5     5     1   ar
     6     5     4   ar
     7     1     2   ar
     8    21    22    3
     9    13    14   ar
    10    13    12   ar
    11    22    14    1
    12     4    12    1
    13     4     3   ar
    14     2     9    1
    15     2     3   ar
    16    14    15   ar
    17    12    16   ar
    18     9     8    3
    19     3    11    1
    20    15    16   ar
    21    15    18    1
    22    16    17    1
    23    11    10    3
