@<TRIPOS>MOLECULE
mol_data/opt/b3lyp/geoms/mol2/13dd13dd13dd.out
 32 34 0 0 0
SMALL
GASTEIGER

@<TRIPOS>ATOM
      1 C           0.0414    1.6661   -1.2184 C.ar    1  LIG1        0.0210
      2 C           0.7966    0.5748   -0.8247 C.ar    1  LIG1        0.0870
      3 C          -0.1268   -0.4358   -0.3926 C.ar    1  LIG1        0.0957
      4 C          -1.4169    0.0832   -0.5483 C.ar    1  LIG1        0.0831
      5 N          -1.2733    1.3581   -1.0488 N.ar    1  LIG1       -0.3573
      6 H          -2.0417    1.9897   -1.2383 H       1  LIG1        0.1655
      7 H           0.3576    2.6233   -1.6024 H       1  LIG1        0.0820
      8 N           3.3748    0.4232   -0.8535 N.1     1  LIG1       -0.1908
      9 C           2.2136    0.4879   -0.8399 C.1     1  LIG1        0.1020
     10 N           0.3830   -2.7534    0.6205 N.1     1  LIG1       -0.1908
     11 C           0.1842   -1.7059    0.1513 C.1     1  LIG1        0.1026
     12 C          -2.7062   -0.4953   -0.2526 C.ar    1  LIG1        0.0835
     13 C          -3.9574    0.1214   -0.1402 C.ar    1  LIG1        0.0964
     14 C          -4.9067   -0.8948    0.1970 C.ar    1  LIG1        0.0964
     15 C          -4.2124   -2.1075    0.2734 C.ar    1  LIG1        0.0835
     16 N          -2.8945   -1.8325   -0.0000 N.ar    1  LIG1       -0.3497
     17 H          -2.1543   -2.5285   -0.0137 H       1  LIG1        0.1661
     18 N          -4.3346    2.6395   -0.5476 N.1     1  LIG1       -0.1908
     19 C          -4.2067    1.4992   -0.3428 C.1     1  LIG1        0.1026
     20 N          -7.4348   -0.6815    0.6582 N.1     1  LIG1       -0.1908
     21 C          -6.2930   -0.7349    0.4298 C.1     1  LIG1        0.1026
     22 C          -4.7050   -3.4353    0.5543 C.ar    1  LIG1        0.0831
     23 C          -4.1110   -4.6879    0.3639 C.ar    1  LIG1        0.0957
     24 C          -5.0544   -5.6796    0.7966 C.ar    1  LIG1        0.0870
     25 C          -6.1819   -5.0005    1.2252 C.ar    1  LIG1        0.0210
     26 N          -5.9585   -3.6664    1.0757 N.ar    1  LIG1       -0.3573
     27 H          -6.6321   -2.9421    1.2919 H       1  LIG1        0.1655
     28 H          -7.1101   -5.3822    1.6207 H       1  LIG1        0.0820
     29 N          -1.7870   -5.0344   -0.7022 N.1     1  LIG1       -0.1908
     30 C          -2.8353   -4.9097   -0.2096 C.1     1  LIG1        0.1026
     31 N          -4.7445   -8.2436    0.7723 N.1     1  LIG1       -0.1908
     32 C          -4.8804   -7.0886    0.7825 C.1     1  LIG1        0.1020
@<TRIPOS>BOND
     1     7     1    1
     2     6     5    1
     3     1     5   ar
     4     1     2   ar
     5     5     4   ar
     6     8     9    3
     7     9     2    1
     8     2     3   ar
     9    29    30    3
    10     4     3   ar
    11     4    12    1
    12    18    19    3
    13     3    11    1
    14    19    13    1
    15    12    13   ar
    16    12    16   ar
    17    30    23    1
    18    13    14   ar
    19    17    16    1
    20    16    15   ar
    21    11    10    3
    22    14    15   ar
    23    14    21    1
    24    15    22    1
    25    23    22   ar
    26    23    24   ar
    27    21    20    3
    28    22    26   ar
    29    31    32    3
    30    32    24    1
    31    24    25   ar
    32    26    25   ar
    33    26    27    1
    34    25    28    1
