@<TRIPOS>MOLECULE
mol_data/opt/b3lyp/geoms/mol2/13dd13dd13dd13dd-.out
 42 45 0 0 0
SMALL
GASTEIGER

@<TRIPOS>ATOM
      1 C           1.1928   -0.4442    0.0828 C.ar    1  LIG1        0.0210
      2 C           0.8919    0.8040   -0.4320 C.ar    1  LIG1        0.0870
      3 C          -0.5416    0.9060   -0.4899 C.ar    1  LIG1        0.0957
      4 C          -1.0586   -0.2905    0.0032 C.ar    1  LIG1        0.0831
      5 N           0.0190   -1.0931    0.3279 N.ar    1  LIG1       -0.3573
      6 H          -0.0509   -1.9903    0.7880 H       1  LIG1        0.1655
      7 H           2.1506   -0.8953    0.2897 H       1  LIG1        0.0820
      8 N           2.6184    2.5751   -1.1775 N.1     1  LIG1       -0.1908
      9 C           1.8362    1.7826   -0.8423 C.1     1  LIG1        0.1020
     10 N          -1.8900    2.8578   -1.5089 N.1     1  LIG1       -0.1908
     11 C          -1.2864    1.9833   -1.0358 C.1     1  LIG1        0.1026
     12 C          -2.4194   -0.7617    0.1535 C.ar    1  LIG1        0.0835
     13 C          -3.5763   -0.1499    0.6329 C.ar    1  LIG1        0.0964
     14 C          -4.6321   -1.1256    0.5885 C.ar    1  LIG1        0.0964
     15 C          -4.0891   -2.3045    0.0843 C.ar    1  LIG1        0.0835
     16 N          -2.7492   -2.0638   -0.1515 N.ar    1  LIG1       -0.3497
     17 H          -2.1653   -2.6608   -0.7215 H       1  LIG1        0.1661
     18 N          -3.7570    2.2109    1.6625 N.1     1  LIG1       -0.1908
     19 C          -3.6743    1.1544    1.1835 C.1     1  LIG1        0.1026
     20 N          -7.0150   -0.8216    1.5348 N.1     1  LIG1       -0.1908
     21 C          -5.9467   -0.9548    1.0946 C.1     1  LIG1        0.1026
     22 C          -4.6118   -3.6400   -0.0939 C.ar    1  LIG1        0.0835
     23 C          -5.8338   -4.1598   -0.5257 C.ar    1  LIG1        0.0964
     24 C          -5.7004   -5.5896   -0.5293 C.ar    1  LIG1        0.0964
     25 C          -4.4004   -5.8997   -0.1153 C.ar    1  LIG1        0.0835
     26 N          -3.7764   -4.7070    0.1370 N.ar    1  LIG1       -0.3497
     27 H          -2.8584   -4.6280    0.5567 H       1  LIG1        0.1661
     28 N          -7.8967   -2.8617   -1.3741 N.1     1  LIG1       -0.1908
     29 C          -6.9661   -3.4341   -0.9749 C.1     1  LIG1        0.1026
     30 N          -7.3702   -7.4487   -1.1620 N.1     1  LIG1       -0.1908
     31 C          -6.6613   -6.5631   -0.8952 C.1     1  LIG1        0.1026
     32 C          -3.7144   -7.1589    0.0365 C.ar    1  LIG1        0.0831
     33 C          -2.3651   -7.4076    0.3296 C.ar    1  LIG1        0.0957
     34 C          -2.1871   -8.8326    0.3579 C.ar    1  LIG1        0.0870
     35 C          -3.4216   -9.3923    0.0804 C.ar    1  LIG1        0.0210
     36 N          -4.3190   -8.3823   -0.1075 N.ar    1  LIG1       -0.3573
     37 H          -5.2978   -8.5102   -0.3398 H       1  LIG1        0.1655
     38 H          -3.7087  -10.4296    0.0069 H       1  LIG1        0.0820
     39 N          -0.7224   -5.4510    0.6680 N.1     1  LIG1       -0.1908
     40 C          -1.4042   -6.3879    0.5281 C.1     1  LIG1        0.1026
     41 N           0.0153  -10.0965    0.8275 N.1     1  LIG1       -0.1908
     42 C          -0.9793   -9.5321    0.6157 C.1     1  LIG1        0.1020
@<TRIPOS>BOND
     1    10    11    3
     2    28    29    3
     3     8     9    3
     4    30    31    3
     5    11     3    1
     6    29    23    1
     7    31    24    1
     8     9     2    1
     9    17    16    1
    10    24    23   ar
    11    24    25   ar
    12    23    22   ar
    13     3     2   ar
    14     3     4   ar
    15     2     1   ar
    16    37    36    1
    17    16    15   ar
    18    16    12   ar
    19    25    32    1
    20    25    26   ar
    21    36    32   ar
    22    36    35   ar
    23    22    15    1
    24    22    26   ar
    25     4    12    1
    26     4     5   ar
    27    38    35    1
    28    32    33   ar
    29    35    34   ar
    30     1     7    1
    31     1     5   ar
    32    15    14   ar
    33    26    27    1
    34    12    13   ar
    35     5     6    1
    36    33    34   ar
    37    33    40    1
    38    34    42    1
    39    40    39    3
    40    14    13   ar
    41    14    21    1
    42    42    41    3
    43    13    19    1
    44    21    20    3
    45    19    18    3
