@<TRIPOS>MOLECULE
mol_data/opt/b3lyp/geoms/mol2/13dd13dd-4dd13dd.out
 44 47 0 0 0
SMALL
GASTEIGER

@<TRIPOS>ATOM
      1 C           1.4565   -0.5724   -0.0046 C.ar    1  LIG1        0.0210
      2 C           1.2011    0.7871    0.0000 C.ar    1  LIG1        0.0870
      3 C          -0.2262    0.9442    0.0027 C.ar    1  LIG1        0.0957
      4 C          -0.7909   -0.3376   -0.0007 C.ar    1  LIG1        0.0831
      5 N           0.2665   -1.2261   -0.0049 N.ar    1  LIG1       -0.3573
      6 H           0.1714   -2.2344   -0.0079 H       1  LIG1        0.1655
      7 H           2.3971   -1.1009   -0.0076 H       1  LIG1        0.0820
      8 N           2.9757    2.6635    0.0038 N.1     1  LIG1       -0.1908
      9 C           2.1726    1.8223    0.0021 C.1     1  LIG1        0.1020
     10 N          -1.3985    3.2411    0.0147 N.1     1  LIG1       -0.1908
     11 C          -0.8948    2.1913    0.0089 C.1     1  LIG1        0.1026
     12 C          -2.1589   -0.8100   -0.0002 C.ar    1  LIG1        0.0835
     13 C          -2.6155   -2.1339   -0.0011 C.ar    1  LIG1        0.0964
     14 C          -4.0408   -2.1047    0.0004 C.ar    1  LIG1        0.0950
     15 C          -4.4448   -0.7597    0.0018 C.ar    1  LIG1        0.0671
     16 N          -3.2774   -0.0130    0.0014 N.ar    1  LIG1       -0.3509
     17 H          -3.2464    1.0026    0.0023 H       1  LIG1        0.1660
     18 N          -1.0861   -4.2108   -0.0047 N.1     1  LIG1       -0.1908
     19 C          -1.8096   -3.2970   -0.0029 C.1     1  LIG1        0.1026
     20 N          -5.4253   -4.2837   -0.0001 N.1     1  LIG1       -0.1908
     21 C          -4.8210   -3.2884    0.0001 C.1     1  LIG1        0.1026
     22 C          -6.1447    1.1704    0.0030 C.ar    1  LIG1        0.0616
     23 C          -7.4737    1.6068    0.0049 C.ar    1  LIG1       -0.0333
     24 C          -5.8064   -0.2112    0.0033 C.ar    1  LIG1        0.0182
     25 C          -8.5682    0.7295    0.0071 C.ar    1  LIG1        0.0182
     26 H          -7.6365    2.6757    0.0045 H       1  LIG1        0.0637
     27 C          -6.9013   -1.0892    0.0051 C.ar    1  LIG1       -0.0333
     28 C          -8.2295   -0.6546    0.0070 C.ar    1  LIG1        0.0616
     29 H          -6.7436   -2.1577    0.0054 H       1  LIG1        0.0637
     30 N          -4.4094    3.0978   -0.0042 N.1     1  LIG1       -0.1908
     31 C          -5.1657    2.2134   -0.0005 C.1     1  LIG1        0.0998
     32 N         -10.0491   -2.5075    0.0107 N.1     1  LIG1       -0.1908
     33 C          -9.2218   -1.6880    0.0089 C.1     1  LIG1        0.0998
     34 C          -9.9327    1.2603    0.0091 C.ar    1  LIG1        0.0666
     35 C         -10.3978    2.5892    0.0073 C.ar    1  LIG1        0.0943
     36 C         -11.8307    2.5518    0.0108 C.ar    1  LIG1        0.0870
     37 C         -12.1973    1.2177    0.0145 C.ar    1  LIG1        0.0209
     38 N         -11.0655    0.4702    0.0134 N.ar    1  LIG1       -0.3584
     39 H         -11.0631   -0.5421    0.0154 H       1  LIG1        0.1654
     40 H         -13.1779    0.7675    0.0177 H       1  LIG1        0.0820
     41 N          -9.0405    4.7856   -0.0011 N.1     1  LIG1       -0.1908
     42 C          -9.6452    3.7905    0.0027 C.1     1  LIG1        0.1026
     43 N         -13.4445    4.5684    0.0102 N.1     1  LIG1       -0.1908
     44 C         -12.7139    3.6634    0.0104 C.1     1  LIG1        0.1020
@<TRIPOS>BOND
     1     6     5    1
     2     7     1    1
     3     5     1   ar
     4     5     4   ar
     5    18    19    3
     6     1     2   ar
     7    30    31    3
     8    19    13    1
     9    13    12   ar
    10    13    14   ar
    11    41    42    3
    12     4    12    1
    13     4     3   ar
    14    31    22    1
    15    12    16   ar
    16    20    21    3
    17     2     9    1
    18     2     3   ar
    19    21    14    1
    20    14    15   ar
    21    16    15   ar
    22    16    17    1
    23    15    24    1
    24     9     8    3
    25     3    11    1
    26    42    35    1
    27    22    24   ar
    28    22    23   ar
    29    24    27   ar
    30    26    23    1
    31    23    25   ar
    32    27    29    1
    33    27    28   ar
    34    28    25   ar
    35    28    33    1
    36    25    34    1
    37    35    34   ar
    38    35    36   ar
    39    11    10    3
    40    33    32    3
    41    34    38   ar
    42    43    44    3
    43    44    36    1
    44    36    37   ar
    45    38    37   ar
    46    38    39    1
    47    37    40    1
