@<TRIPOS>MOLECULE
mol_data/opt/b3lyp/geoms/mol2/13dd13dd13dd13dd.out
 42 45 0 0 0
SMALL
GASTEIGER

@<TRIPOS>ATOM
      1 C          -0.6878    2.5352   -0.9069 C.ar    1  LIG1        0.0210
      2 C          -0.3920    1.8536   -2.0750 C.ar    1  LIG1        0.0870
      3 C          -0.9307    0.5314   -1.9307 C.ar    1  LIG1        0.0957
      4 C          -1.5406    0.4625   -0.6725 C.ar    1  LIG1        0.0831
      5 N          -1.3710    1.6946   -0.0828 N.ar    1  LIG1       -0.3573
      6 H          -1.6963    1.9353    0.8460 H       1  LIG1        0.1655
      7 H          -0.4560    3.5493   -0.6210 H       1  LIG1        0.0820
      8 N           0.8963    2.7965   -4.1052 N.1     1  LIG1       -0.1908
      9 C           0.3154    2.3704   -3.1921 C.1     1  LIG1        0.1020
     10 N          -0.8093   -1.4790   -3.5420 N.1     1  LIG1       -0.1908
     11 C          -0.8462   -0.5436   -2.8481 C.1     1  LIG1        0.1026
     12 C          -2.2202   -0.6320   -0.0210 C.ar    1  LIG1        0.0835
     13 C          -2.6683   -0.7550    1.3010 C.ar    1  LIG1        0.0964
     14 C          -3.2517   -2.0537    1.4396 C.ar    1  LIG1        0.0964
     15 C          -3.1450   -2.6879    0.1989 C.ar    1  LIG1        0.0835
     16 N          -2.5250   -1.8089   -0.6559 N.ar    1  LIG1       -0.3497
     17 H          -2.3072   -2.0065   -1.6278 H       1  LIG1        0.1661
     18 N          -2.4449    1.1466    3.0277 N.1     1  LIG1       -0.1908
     19 C          -2.5620    0.2547    2.2867 C.1     1  LIG1        0.1026
     20 N          -4.3912   -3.0654    3.5224 N.1     1  LIG1       -0.1908
     21 C          -3.8721   -2.5916    2.5941 C.1     1  LIG1        0.1026
     22 C          -3.5995   -3.9933   -0.2194 C.ar    1  LIG1        0.0835
     23 C          -4.0043   -4.4436   -1.4790 C.ar    1  LIG1        0.0964
     24 C          -4.3923   -5.8126   -1.3329 C.ar    1  LIG1        0.0964
     25 C          -4.2127   -6.1615    0.0123 C.ar    1  LIG1        0.0835
     26 N          -3.7389   -5.0453    0.6533 N.ar    1  LIG1       -0.3497
     27 H          -3.5088   -5.0088    1.6416 H       1  LIG1        0.1661
     28 N          -4.0990   -2.9876   -3.6076 N.1     1  LIG1       -0.1908
     29 C          -4.0629   -3.6614   -2.6587 C.1     1  LIG1        0.1026
     30 N          -5.3187   -7.4617   -3.0850 N.1     1  LIG1       -0.1908
     31 C          -4.8891   -6.6819   -2.3328 C.1     1  LIG1        0.1026
     32 C          -4.4304   -7.4222    0.6812 C.ar    1  LIG1        0.0831
     33 C          -4.0880   -7.8339    1.9746 C.ar    1  LIG1        0.0957
     34 C          -4.5260   -9.1924    2.1230 C.ar    1  LIG1        0.0870
     35 C          -5.1110   -9.5569    0.9224 C.ar    1  LIG1        0.0210
     36 N          -5.0465   -8.4935    0.0753 N.ar    1  LIG1       -0.3573
     37 H          -5.3886   -8.4940   -0.8783 H       1  LIG1        0.1655
     38 H          -5.5605  -10.4926    0.6288 H       1  LIG1        0.0820
     39 N          -2.8193   -6.3240    3.6370 N.1     1  LIG1       -0.1908
     40 C          -3.3981   -7.0377    2.9204 C.1     1  LIG1        0.1026
     41 N          -4.2696  -10.6914    4.2105 N.1     1  LIG1       -0.1908
     42 C          -4.3848  -10.0147    3.2716 C.1     1  LIG1        0.1020
@<TRIPOS>BOND
     1     8     9    3
     2    28    29    3
     3    10    11    3
     4     9     2    1
     5    30    31    3
     6    11     3    1
     7    29    23    1
     8    31    24    1
     9     2     3   ar
    10     2     1   ar
    11     3     4   ar
    12    17    16    1
    13    23    24   ar
    14    23    22   ar
    15    24    25   ar
    16     1     7    1
    17     1     5   ar
    18    37    36    1
    19     4     5   ar
    20     4    12    1
    21    16    12   ar
    22    16    15   ar
    23    22    15    1
    24    22    26   ar
    25     5     6    1
    26    12    13   ar
    27    25    26   ar
    28    25    32    1
    29    36    32   ar
    30    36    35   ar
    31    15    14   ar
    32    38    35    1
    33    26    27    1
    34    32    33   ar
    35    35    34   ar
    36    13    14   ar
    37    13    19    1
    38    14    21    1
    39    33    34   ar
    40    33    40    1
    41    34    42    1
    42    19    18    3
    43    21    20    3
    44    40    39    3
    45    42    41    3
