@<TRIPOS>MOLECULE
mol_data/opt/b3lyp/geoms/mol2/13de13if-4de-4ef.out
 51 54 0 0 0
SMALL
GASTEIGER

@<TRIPOS>ATOM
      1 C           1.0291    0.0570    1.2830 C.ar    1  LIG1        0.0209
      2 C           0.9213    0.9867    0.2661 C.ar    1  LIG1        0.0850
      3 C          -0.4168    0.8943   -0.2720 C.ar    1  LIG1        0.0687
      4 C          -1.0761   -0.0944    0.4579 C.ar    1  LIG1        0.0801
      5 N          -0.1683   -0.5918    1.3789 N.ar    1  LIG1       -0.3573
      6 H          -0.4186   -1.2301    2.1185 H       1  LIG1        0.1655
      7 H           1.8623   -0.1735    1.9283 H       1  LIG1        0.0820
      8 N           2.8066    2.5614   -0.5337 N.1     1  LIG1       -0.1908
      9 C           1.9550    1.8533   -0.1760 C.1     1  LIG1        0.1019
     10 C          -0.9211    1.6232   -1.3755 C.1     1  LIG1       -0.0662
     11 C          -1.3267    2.2512   -2.3269 C.1     1  LIG1       -0.1138
     12 H          -1.6747    2.8041   -3.1685 H       1  LIG1        0.1232
     13 C          -2.4218   -0.6273    0.3648 C.ar    1  LIG1        0.0711
     14 C          -3.6576    0.0109    0.3012 C.ar    1  LIG1        0.0183
     15 C          -4.6429   -1.0116    0.3344 C.ar    1  LIG1        0.1456
     16 C          -4.0059   -2.2613    0.4096 C.ar    1  LIG1        0.0905
     17 N          -2.6472   -1.9857    0.4394 N.ar    1  LIG1       -0.3498
     18 H          -1.9260   -2.6886    0.4294 H       1  LIG1        0.1661
     19 C          -3.9463    1.4788    0.2602 C.3     1  LIG1       -0.0342
     20 H          -4.9226    1.6780    0.7092 H       1  LIG1        0.0279
     21 H          -3.9677    1.8594   -0.7665 H       1  LIG1        0.0279
     22 H          -3.1844    2.0500    0.7980 H       1  LIG1        0.0279
     23 O          -5.9680   -0.7341    0.2059 O.3     1  LIG1       -0.5044
     24 H          -6.4795   -1.1643    0.9112 H       1  LIG1        0.2922
     25 C          -5.6792   -4.1047    0.9022 C.ar    1  LIG1        0.0616
     26 C          -6.0936   -5.4353    0.7464 C.ar    1  LIG1       -0.0348
     27 C          -4.4764   -3.6359    0.3084 C.ar    1  LIG1        0.0204
     28 C          -5.3366   -6.3698    0.0413 C.ar    1  LIG1        0.0000
     29 H          -7.0194   -5.7484    1.2141 H       1  LIG1        0.0637
     30 C          -3.7252   -4.5841   -0.4047 C.ar    1  LIG1       -0.0353
     31 C          -4.1198   -5.9229   -0.5423 C.ar    1  LIG1        0.0331
     32 H          -2.8269   -4.2686   -0.9236 H       1  LIG1        0.0637
     33 N          -7.0919   -2.5214    2.3927 N.1     1  LIG1       -0.1908
     34 C          -6.4650   -3.2439    1.7258 C.1     1  LIG1        0.0998
     35 C          -3.2894   -6.7826   -1.3276 C.1     1  LIG1       -0.0690
     36 C          -2.5519   -7.4610   -2.0060 C.1     1  LIG1       -0.1139
     37 H          -1.9229   -8.0692   -2.6146 H       1  LIG1        0.1232
     38 C          -7.0958   -8.1055   -0.5297 C.ar    1  LIG1        0.0326
     39 C          -7.4851   -9.4602   -0.5614 C.ar    1  LIG1       -0.0423
     40 C          -5.8008   -7.7805   -0.0528 C.ar    1  LIG1        0.0021
     41 C          -6.6376  -10.4721   -0.1394 C.ar    1  LIG1       -0.0190
     42 H          -8.4744   -9.7053   -0.9325 H       1  LIG1        0.0631
     43 C          -4.9532   -8.8108    0.3698 C.ar    1  LIG1       -0.0113
     44 C          -5.3596  -10.1459    0.3283 C.ar    1  LIG1        0.1175
     45 H          -3.9633   -8.5631    0.7426 H       1  LIG1        0.0660
     46 H          -6.9427  -11.5124   -0.1650 H       1  LIG1        0.0654
     47 C          -8.0090   -7.1150   -1.0066 C.1     1  LIG1       -0.0690
     48 C          -8.8122   -6.3091   -1.4204 C.1     1  LIG1       -0.1139
     49 H          -9.5085   -5.5904   -1.7864 H       1  LIG1        0.1232
     50 O          -4.5596  -11.1702    0.7379 O.3     1  LIG1       -0.5067
     51 H          -3.7078  -10.8164    1.0267 H       1  LIG1        0.2921
@<TRIPOS>BOND
     1    12    11    1
     2    37    36    1
     3    11    10    3
     4    36    35    3
     5    49    48    1
     6    48    47    3
     7    10     3    1
     8    35    31    1
     9    47    38    1
    10    42    39    1
    11    32    30    1
    12    21    19    1
    13    39    38   ar
    14    39    41   ar
    15    31    30   ar
    16    31    28   ar
    17     8     9    3
    18    38    40   ar
    19    30    27   ar
    20     3     2   ar
    21     3     4   ar
    22     9     2    1
    23    46    41    1
    24    41    44   ar
    25    40    28    1
    26    40    43   ar
    27    28    26   ar
    28    23    15    1
    29    23    24    1
    30    19    14    1
    31    19    20    1
    32    19    22    1
    33     2     1   ar
    34    14    15   ar
    35    14    13   ar
    36    27    16    1
    37    27    25   ar
    38    44    43   ar
    39    44    50    1
    40    15    16   ar
    41    13    17   ar
    42    13     4    1
    43    43    45    1
    44    16    17   ar
    45    18    17    1
    46     4     5   ar
    47    50    51    1
    48    26    25   ar
    49    26    29    1
    50    25    34    1
    51     1     5   ar
    52     1     7    1
    53     5     6    1
    54    34    33    3
