@<TRIPOS>MOLECULE
mol_data/opt/b3lyp/geoms/mol2/13de13de13de.out
 35 37 0 0 0
SMALL
GASTEIGER

@<TRIPOS>ATOM
      1 C           0.9586   -0.1070   -1.3681 C.ar    1  LIG1        0.0209
      2 C           0.8585    0.9417   -0.4719 C.ar    1  LIG1        0.0850
      3 C          -0.4709    0.9139    0.0883 C.ar    1  LIG1        0.0687
      4 C          -1.1282   -0.1632   -0.5023 C.ar    1  LIG1        0.0810
      5 N          -0.2314   -0.7727   -1.3660 N.ar    1  LIG1       -0.3573
      6 H          -0.4867   -1.4866   -2.0318 H       1  LIG1        0.1655
      7 H           1.7835   -0.4068   -1.9955 H       1  LIG1        0.0820
      8 N           2.7495    2.6026    0.1110 N.1     1  LIG1       -0.1908
      9 C           1.8940    1.8587   -0.1509 C.1     1  LIG1        0.1019
     10 C          -0.9842    1.7849    1.0780 C.1     1  LIG1       -0.0662
     11 C          -1.4099    2.5336    1.9264 C.1     1  LIG1       -0.1138
     12 H          -1.7948    3.2097    2.6547 H       1  LIG1        0.1232
     13 C          -2.4638   -0.6931   -0.2989 C.ar    1  LIG1        0.0834
     14 C          -3.7166   -0.0822   -0.3247 C.ar    1  LIG1        0.0944
     15 C          -4.7118   -1.0949   -0.0864 C.ar    1  LIG1        0.0694
     16 C          -4.0307   -2.3014    0.0691 C.ar    1  LIG1        0.0815
     17 N          -2.6819   -2.0302   -0.0605 N.ar    1  LIG1       -0.3498
     18 H          -1.9511   -2.7220    0.0095 H       1  LIG1        0.1661
     19 N          -4.2083    2.4078   -0.7995 N.1     1  LIG1       -0.1908
     20 C          -3.9770    1.2886   -0.5815 C.1     1  LIG1        0.1026
     21 C          -6.1095   -0.8929   -0.0042 C.1     1  LIG1       -0.0662
     22 C          -7.3019   -0.7068    0.0665 C.1     1  LIG1       -0.1138
     23 H          -8.3548   -0.5474    0.1078 H       1  LIG1        0.1232
     24 C          -4.5110   -3.6375    0.3693 C.ar    1  LIG1        0.0829
     25 C          -5.5003   -4.4191   -0.2229 C.ar    1  LIG1        0.0937
     26 C          -5.5464   -5.6796    0.4793 C.ar    1  LIG1        0.0600
     27 C          -4.5795   -5.6150    1.4659 C.ar    1  LIG1        0.0190
     28 N          -3.9582   -4.3971    1.3801 N.ar    1  LIG1       -0.3573
     29 H          -3.3159   -4.0337    2.0681 H       1  LIG1        0.1655
     30 H          -4.3027   -6.3448    2.2105 H       1  LIG1        0.0820
     31 N          -6.9090   -3.8120   -2.3000 N.1     1  LIG1       -0.1908
     32 C          -6.2761   -4.0731   -1.3590 C.1     1  LIG1        0.1026
     33 C          -6.4020   -6.7743    0.2007 C.1     1  LIG1       -0.0669
     34 C          -7.1356   -7.7039   -0.0437 C.1     1  LIG1       -0.1138
     35 H          -7.7873   -8.5175   -0.2648 H       1  LIG1        0.1232
@<TRIPOS>BOND
     1    31    32    3
     2     6     5    1
     3     7     1    1
     4     1     5   ar
     5     1     2   ar
     6     5     4   ar
     7    32    25    1
     8    19    20    3
     9    20    14    1
    10     4    13    1
    11     4     3   ar
    12     2     9    1
    13     2     3   ar
    14    14    13   ar
    15    14    15   ar
    16    13    17   ar
    17    35    34    1
    18    25    24   ar
    19    25    26   ar
    20     9     8    3
    21    15    21    1
    22    15    16   ar
    23    17    18    1
    24    17    16   ar
    25    34    33    3
    26    21    22    3
    27    22    23    1
    28    16    24    1
    29     3    10    1
    30    33    26    1
    31    24    28   ar
    32    26    27   ar
    33    10    11    3
    34    28    27   ar
    35    28    29    1
    36    27    30    1
    37    11    12    1
