@<TRIPOS>MOLECULE
mol_data/opt/b3lyp/geoms/mol2/13de13de13de-13de.out
 46 49 0 0 0
SMALL
GASTEIGER

@<TRIPOS>ATOM
      1 C           1.2491   -0.2602   -0.5601 C.ar    1  LIG1        0.0209
      2 C           0.9843    0.9451    0.0657 C.ar    1  LIG1        0.0850
      3 C          -0.4398    1.0266    0.2766 C.ar    1  LIG1        0.0687
      4 C          -0.9861   -0.1464   -0.2486 C.ar    1  LIG1        0.0810
      5 N           0.0652   -0.9097   -0.7328 N.ar    1  LIG1       -0.3573
      6 H          -0.0418   -1.7752   -1.2411 H       1  LIG1        0.1655
      7 H           2.1866   -0.6801   -0.8898 H       1  LIG1        0.0820
      8 N           2.7524    2.6968    0.7575 N.1     1  LIG1       -0.1908
      9 C           1.9525    1.9110    0.4469 C.1     1  LIG1        0.1019
     10 C          -1.1214    2.0669    0.9480 C.1     1  LIG1       -0.0662
     11 C          -1.6855    2.9609    1.5350 C.1     1  LIG1       -0.1138
     12 H          -2.1958    3.7567    2.0268 H       1  LIG1        0.1232
     13 C          -2.3408   -0.6508   -0.2813 C.ar    1  LIG1        0.0834
     14 C          -3.5783   -0.0338   -0.4910 C.ar    1  LIG1        0.0944
     15 C          -4.5892   -1.0536   -0.4360 C.ar    1  LIG1        0.0694
     16 C          -3.9346   -2.2689   -0.2105 C.ar    1  LIG1        0.0815
     17 N          -2.5849   -1.9924   -0.1274 N.ar    1  LIG1       -0.3498
     18 H          -1.8853   -2.6680    0.1511 H       1  LIG1        0.1661
     19 N          -4.0613    2.4295   -1.0908 N.1     1  LIG1       -0.1908
     20 C          -3.8234    1.3264   -0.8065 C.1     1  LIG1        0.1026
     21 C          -5.9809   -0.8722   -0.5997 C.1     1  LIG1       -0.0662
     22 C          -7.1751   -0.7208   -0.7321 C.1     1  LIG1       -0.1138
     23 H          -8.2343   -0.6297   -0.8198 H       1  LIG1        0.1232
     24 C          -4.4405   -3.6111   -0.0902 C.ar    1  LIG1        0.0834
     25 C          -3.7372   -4.8214   -0.0005 C.ar    1  LIG1        0.0944
     26 C          -4.6952   -5.8828    0.1027 C.ar    1  LIG1        0.0694
     27 C          -5.9631   -5.2877    0.0696 C.ar    1  LIG1        0.0815
     28 N          -5.7750   -3.9254   -0.0463 N.ar    1  LIG1       -0.3498
     29 H          -6.5125   -3.2292   -0.1072 H       1  LIG1        0.1661
     30 N          -1.1632   -4.9408   -0.0640 N.1     1  LIG1       -0.1908
     31 C          -2.3298   -4.9409   -0.0312 C.1     1  LIG1        0.1026
     32 C          -4.3864   -7.2590    0.2115 C.1     1  LIG1       -0.0662
     33 C          -4.1073   -8.4351    0.3040 C.1     1  LIG1       -0.1138
     34 H          -3.8275   -9.4609    0.3847 H       1  LIG1        0.1232
     35 C          -7.2604   -5.9154    0.1411 C.ar    1  LIG1        0.0829
     36 C          -8.5645   -5.4001    0.1227 C.ar    1  LIG1        0.0937
     37 C          -9.4800   -6.5085    0.2250 C.ar    1  LIG1        0.0600
     38 C          -8.6993   -7.6485    0.3018 C.ar    1  LIG1        0.0190
     39 N          -7.3862   -7.2789    0.2507 N.ar    1  LIG1       -0.3573
     40 H          -6.5923   -7.9062    0.2879 H       1  LIG1        0.1655
     41 H          -8.9954   -8.6820    0.3888 H       1  LIG1        0.0820
     42 N          -9.2369   -2.9173   -0.0605 N.1     1  LIG1       -0.1908
     43 C          -8.9340   -4.0397    0.0223 C.1     1  LIG1        0.1026
     44 C         -10.8943   -6.4390    0.2433 C.1     1  LIG1       -0.0669
     45 C         -12.1016   -6.3697    0.2579 C.1     1  LIG1       -0.1138
     46 H         -13.1650   -6.3023    0.2708 H       1  LIG1        0.1232
@<TRIPOS>BOND
     1     6     5    1
     2    19    20    3
     3     7     1    1
     4    23    22    1
     5    20    14    1
     6     5     1   ar
     7     5     4   ar
     8    22    21    3
     9    21    15    1
    10     1     2   ar
    11    14    15   ar
    12    14    13   ar
    13    15    16   ar
    14    13     4    1
    15    13    17   ar
    16     4     3   ar
    17    16    17   ar
    18    16    24    1
    19    17    18    1
    20    29    28    1
    21    24    28   ar
    22    24    25   ar
    23    30    31    3
    24    42    43    3
    25    28    27   ar
    26    31    25    1
    27    25    26   ar
    28    43    36    1
    29     2     3   ar
    30     2     9    1
    31    27    26   ar
    32    27    35    1
    33    26    32    1
    34    36    35   ar
    35    36    37   ar
    36    35    39   ar
    37    32    33    3
    38    37    44    1
    39    37    38   ar
    40    44    45    3
    41    39    40    1
    42    39    38   ar
    43    45    46    1
    44     3    10    1
    45    38    41    1
    46    33    34    1
    47     9     8    3
    48    10    11    3
    49    11    12    1
