@<TRIPOS>MOLECULE
mol_data/opt/b3lyp/geoms/mol2/13de13de-4de13de.out
 48 51 0 0 0
SMALL
GASTEIGER

@<TRIPOS>ATOM
      1 C           1.4232   -0.5997   -0.0064 C.ar    1  LIG1        0.0209
      2 C           1.1598    0.7598   -0.0082 C.ar    1  LIG1        0.0850
      3 C          -0.2696    0.9202   -0.0056 C.ar    1  LIG1        0.0687
      4 C          -0.8217   -0.3672   -0.0022 C.ar    1  LIG1        0.0810
      5 N           0.2376   -1.2590   -0.0029 N.ar    1  LIG1       -0.3573
      6 H           0.1413   -2.2665   -0.0010 H       1  LIG1        0.1655
      7 H           2.3665   -1.1234   -0.0074 H       1  LIG1        0.0820
      8 N           2.9245    2.6457   -0.0152 N.1     1  LIG1       -0.1908
      9 C           2.1269    1.7983   -0.0120 C.1     1  LIG1        0.1019
     10 C          -0.9575    2.1527   -0.0072 C.1     1  LIG1       -0.0662
     11 C          -1.5032    3.2332   -0.0090 C.1     1  LIG1       -0.1138
     12 H          -2.0227    4.1634   -0.0097 H       1  LIG1        0.1232
     13 C          -2.1895   -0.8302    0.0011 C.ar    1  LIG1        0.0834
     14 C          -2.6661   -2.1482    0.0023 C.ar    1  LIG1        0.0944
     15 C          -4.0946   -2.1095    0.0047 C.ar    1  LIG1        0.0679
     16 C          -4.4746   -0.7547    0.0055 C.ar    1  LIG1        0.0651
     17 N          -3.2943   -0.0194    0.0035 N.ar    1  LIG1       -0.3509
     18 H          -3.2297    0.9939    0.0033 H       1  LIG1        0.1660
     19 N          -1.1632   -4.2441   -0.0003 N.1     1  LIG1       -0.1908
     20 C          -1.8738   -3.3189    0.0009 C.1     1  LIG1        0.1026
     21 C          -4.8671   -3.2960    0.0067 C.1     1  LIG1       -0.0662
     22 C          -5.4335   -4.3663    0.0085 C.1     1  LIG1       -0.1138
     23 H          -5.9364   -5.3060    0.0110 H       1  LIG1        0.1232
     24 C          -6.1513    1.2014    0.0136 C.ar    1  LIG1        0.0616
     25 C          -7.4807    1.6399    0.0142 C.ar    1  LIG1       -0.0334
     26 C          -5.8233   -0.1837    0.0074 C.ar    1  LIG1        0.0181
     27 C          -8.5783    0.7690    0.0089 C.ar    1  LIG1        0.0162
     28 H          -7.6433    2.7091    0.0193 H       1  LIG1        0.0637
     29 C          -6.9279   -1.0500    0.0027 C.ar    1  LIG1       -0.0353
     30 C          -8.2613   -0.6229    0.0033 C.ar    1  LIG1        0.0345
     31 H          -6.7608   -2.1166   -0.0023 H       1  LIG1        0.0637
     32 N          -4.4526    3.1591    0.0290 N.1     1  LIG1       -0.1908
     33 C          -5.1806    2.2513    0.0215 C.1     1  LIG1        0.0998
     34 C          -9.2340   -1.6740   -0.0026 C.1     1  LIG1       -0.0690
     35 C         -10.0011   -2.6124   -0.0076 C.1     1  LIG1       -0.1139
     36 H         -10.6652   -3.4470   -0.0124 H       1  LIG1        0.1232
     37 C          -9.9355    1.3153    0.0098 C.ar    1  LIG1        0.0665
     38 C         -10.4059    2.6430    0.0124 C.ar    1  LIG1        0.0923
     39 C         -11.8437    2.6089    0.0123 C.ar    1  LIG1        0.0599
     40 C         -12.1996    1.2709    0.0096 C.ar    1  LIG1        0.0189
     41 N         -11.0613    0.5248    0.0082 N.ar    1  LIG1       -0.3585
     42 H         -11.0253   -0.4865    0.0060 H       1  LIG1        0.1654
     43 H         -13.1780    0.8166    0.0087 H       1  LIG1        0.0820
     44 N          -9.0566    4.8441    0.0160 N.1     1  LIG1       -0.1908
     45 C          -9.6568    3.8454    0.0144 C.1     1  LIG1        0.1025
     46 C         -12.7187    3.7229    0.0144 C.1     1  LIG1       -0.0669
     47 C         -13.4599    4.6784    0.0162 C.1     1  LIG1       -0.1138
     48 H         -14.1054    5.5262    0.0185 H       1  LIG1        0.1232
@<TRIPOS>BOND
     1     8     9    3
     2    36    35    1
     3     9     2    1
     4    12    11    1
     5    11    10    3
     6     2     1   ar
     7     2     3   ar
     8    35    34    3
     9     7     1    1
    10    10     3    1
    11     1     5   ar
    12     3     4   ar
    13     5     4   ar
    14     5     6    1
    15    34    30    1
    16    31    29    1
    17     4    13    1
    18    19    20    3
    19    20    14    1
    20    13    14   ar
    21    13    17   ar
    22    14    15   ar
    23    29    30   ar
    24    29    26   ar
    25    30    27   ar
    26    18    17    1
    27    17    16   ar
    28    15    16   ar
    29    15    21    1
    30    16    26    1
    31    42    41    1
    32    21    22    3
    33    26    24   ar
    34    41    40   ar
    35    41    37   ar
    36    22    23    1
    37    43    40    1
    38    27    37    1
    39    27    25   ar
    40    40    39   ar
    41    37    38   ar
    42    39    38   ar
    43    39    46    1
    44    38    45    1
    45    24    25   ar
    46    24    33    1
    47    25    28    1
    48    45    44    3
    49    46    47    3
    50    47    48    1
    51    33    32    3
