@<TRIPOS>MOLECULE
mol_data/opt/b3lyp/geoms/mol2/13de13de-13de13de-.out
 46 49 0 0 0
SMALL
GASTEIGER

@<TRIPOS>ATOM
      1 C           1.3855   -0.3400   -0.0015 C.ar    1  LIG1        0.0209
      2 C           1.0266    0.9980   -0.0014 C.ar    1  LIG1        0.0850
      3 C          -0.4104    1.0559   -0.0005 C.ar    1  LIG1        0.0687
      4 C          -0.8679   -0.2676   -0.0001 C.ar    1  LIG1        0.0810
      5 N           0.2491   -1.0829   -0.0007 N.ar    1  LIG1       -0.3573
      6 H           0.2209   -2.0949   -0.0007 H       1  LIG1        0.1655
      7 H           2.3638   -0.7949   -0.0021 H       1  LIG1        0.0820
      8 N           2.6512    3.0057   -0.0025 N.1     1  LIG1       -0.1908
      9 C           1.9176    2.1024   -0.0020 C.1     1  LIG1        0.1019
     10 C          -1.2029    2.2252   -0.0000 C.1     1  LIG1       -0.0662
     11 C          -1.8701    3.2360    0.0003 C.1     1  LIG1       -0.1138
     12 H          -2.4972    4.0984    0.0007 H       1  LIG1        0.1232
     13 C          -2.2058   -0.8064    0.0008 C.ar    1  LIG1        0.0834
     14 C          -2.6266   -2.1446    0.0010 C.ar    1  LIG1        0.0944
     15 C          -4.0572   -2.1601    0.0019 C.ar    1  LIG1        0.0694
     16 C          -4.4779   -0.8250    0.0023 C.ar    1  LIG1        0.0815
     17 N          -3.3394   -0.0364    0.0016 N.ar    1  LIG1       -0.3498
     18 H          -3.3174    0.9790    0.0017 H       1  LIG1        0.1661
     19 N          -1.0073   -4.1511   -0.0003 N.1     1  LIG1       -0.1908
     20 C          -1.7738   -3.2719    0.0003 C.1     1  LIG1        0.1026
     21 C          -4.8641   -3.3192    0.0024 C.1     1  LIG1       -0.0662
     22 C          -5.5286   -4.3320    0.0027 C.1     1  LIG1       -0.1138
     23 H          -6.1662   -5.1874    0.0031 H       1  LIG1        0.1232
     24 C          -5.8187   -0.2916    0.0033 C.ar    1  LIG1        0.0834
     25 C          -6.2832    1.0304    0.0037 C.ar    1  LIG1        0.0944
     26 C          -7.7169    0.9969    0.0046 C.ar    1  LIG1        0.0694
     27 C          -8.0941   -0.3514    0.0047 C.ar    1  LIG1        0.0815
     28 N          -6.9350   -1.0972    0.0039 N.ar    1  LIG1       -0.3498
     29 H          -6.8861   -2.1121    0.0037 H       1  LIG1        0.1661
     30 N          -4.9176    3.2164    0.0032 N.1     1  LIG1       -0.1908
     31 C          -5.5193    2.2185    0.0034 C.1     1  LIG1        0.1026
     32 C          -8.5559    2.1358    0.0053 C.1     1  LIG1       -0.0662
     33 C          -9.2608    3.1222    0.0059 C.1     1  LIG1       -0.1138
     34 H          -9.8501    4.0109    0.0062 H       1  LIG1        0.1232
     35 C          -9.4257   -0.9110    0.0054 C.ar    1  LIG1        0.0829
     36 C          -9.9134   -2.2261    0.0057 C.ar    1  LIG1        0.0937
     37 C         -11.3540   -2.1649    0.0065 C.ar    1  LIG1        0.0600
     38 C         -11.6837   -0.8214    0.0067 C.ar    1  LIG1        0.0190
     39 N         -10.5300   -0.0930    0.0060 N.ar    1  LIG1       -0.3573
     40 H         -10.4682    0.9180    0.0060 H       1  LIG1        0.1655
     41 H         -12.6534   -0.3493    0.0072 H       1  LIG1        0.0820
     42 N          -8.5528   -4.4156    0.0051 N.1     1  LIG1       -0.1908
     43 C          -9.1585   -3.4202    0.0054 C.1     1  LIG1        0.1026
     44 C         -12.2474   -3.2635    0.0071 C.1     1  LIG1       -0.0669
     45 C         -13.0034   -4.2075    0.0075 C.1     1  LIG1       -0.1138
     46 H         -13.6646   -5.0431    0.0080 H       1  LIG1        0.1232
@<TRIPOS>BOND
     1     8     9    3
     2     7     1    1
     3     9     2    1
     4     1     2   ar
     5     1     5   ar
     6     2     3   ar
     7     5     6    1
     8     5     4   ar
     9     3     4   ar
    10     3    10    1
    11    19    20    3
    12     4    13    1
    13    10    11    3
    14    20    14    1
    15    11    12    1
    16    13    14   ar
    17    13    17   ar
    18    14    15   ar
    19    17    18    1
    20    17    16   ar
    21    15    16   ar
    22    15    21    1
    23    16    24    1
    24    21    22    3
    25    22    23    1
    26    30    31    3
    27    24    25   ar
    28    24    28   ar
    29    31    25    1
    30    29    28    1
    31    25    26   ar
    32    28    27   ar
    33    26    27   ar
    34    26    32    1
    35    27    35    1
    36    42    43    3
    37    32    33    3
    38    43    36    1
    39    35    36   ar
    40    35    39   ar
    41    36    37   ar
    42    33    34    1
    43    40    39    1
    44    39    38   ar
    45    37    38   ar
    46    37    44    1
    47    38    41    1
    48    44    45    3
    49    45    46    1
