@<TRIPOS>MOLECULE
mol_data/opt/b3lyp/geoms/mol2/13de13de13de13de-.out
 46 49 0 0 0
SMALL
GASTEIGER

@<TRIPOS>ATOM
      1 C           1.1009   -0.7972    0.0176 C.ar    1  LIG1        0.0209
      2 C           0.9131    0.5221   -0.3566 C.ar    1  LIG1        0.0850
      3 C          -0.5058    0.7768   -0.3676 C.ar    1  LIG1        0.0687
      4 C          -1.1252   -0.4143    0.0170 C.ar    1  LIG1        0.0810
      5 N          -0.1234   -1.3524    0.2280 N.ar    1  LIG1       -0.3573
      6 H          -0.2688   -2.2872    0.5869 H       1  LIG1        0.1655
      7 H           2.0132   -1.3576    0.1508 H       1  LIG1        0.0820
      8 N           2.7893    2.1915   -0.9617 N.1     1  LIG1       -0.1908
      9 C           1.9409    1.4435   -0.6887 C.1     1  LIG1        0.1019
     10 C          -1.1319    1.9819   -0.7589 C.1     1  LIG1       -0.0662
     11 C          -1.6521    3.0164   -1.1070 C.1     1  LIG1       -0.1138
     12 H          -2.1216    3.9314   -1.3863 H       1  LIG1        0.1232
     13 C          -2.5137   -0.7946    0.1404 C.ar    1  LIG1        0.0834
     14 C          -3.6664   -0.1369    0.5755 C.ar    1  LIG1        0.0944
     15 C          -4.7653   -1.0727    0.5156 C.ar    1  LIG1        0.0694
     16 C          -4.2446   -2.2773    0.0483 C.ar    1  LIG1        0.0815
     17 N          -2.8847   -2.0863   -0.1527 N.ar    1  LIG1       -0.3498
     18 H          -2.3198   -2.6958   -0.7279 H       1  LIG1        0.1661
     19 N          -3.8680    2.2334    1.5776 N.1     1  LIG1       -0.1908
     20 C          -3.7595    1.1726    1.1117 C.1     1  LIG1        0.1026
     21 C          -6.0889   -0.8260    0.9448 C.1     1  LIG1       -0.0662
     22 C          -7.2179   -0.6078    1.3185 C.1     1  LIG1       -0.1138
     23 H          -8.2210   -0.4194    1.6253 H       1  LIG1        0.1232
     24 C          -4.7593   -3.6186   -0.0885 C.ar    1  LIG1        0.0834
     25 C          -5.9785   -4.2052   -0.4464 C.ar    1  LIG1        0.0944
     26 C          -5.7884   -5.6354   -0.4421 C.ar    1  LIG1        0.0694
     27 C          -4.4545   -5.8710   -0.0936 C.ar    1  LIG1        0.0815
     28 N          -3.8724   -4.6461    0.1120 N.ar    1  LIG1       -0.3498
     29 H          -2.9494   -4.5197    0.5044 H       1  LIG1        0.1661
     30 N          -8.1698   -3.0499   -1.1691 N.1     1  LIG1       -0.1908
     31 C          -7.1747   -3.5507   -0.8320 C.1     1  LIG1        0.1026
     32 C          -6.7524   -6.6222   -0.7560 C.1     1  LIG1       -0.0662
     33 C          -7.5668   -7.4816   -1.0157 C.1     1  LIG1       -0.1138
     34 H          -8.3159   -8.2002   -1.2595 H       1  LIG1        0.1232
     35 C          -3.6829   -7.0781    0.0334 C.ar    1  LIG1        0.0829
     36 C          -2.3052   -7.2459    0.2586 C.ar    1  LIG1        0.0937
     37 C          -2.0350   -8.6615    0.2920 C.ar    1  LIG1        0.0600
     38 C          -3.2506   -9.2896    0.0835 C.ar    1  LIG1        0.0190
     39 N          -4.2189   -8.3323   -0.0667 N.ar    1  LIG1       -0.3573
     40 H          -5.2013   -8.4975   -0.2483 H       1  LIG1        0.1655
     41 H          -3.4809  -10.3420    0.0341 H       1  LIG1        0.0820
     42 N          -0.7522   -5.2020    0.4952 N.1     1  LIG1       -0.1908
     43 C          -1.3950   -6.1727    0.3970 C.1     1  LIG1        0.1026
     44 C          -0.7767   -9.2791    0.4931 C.1     1  LIG1       -0.0669
     45 C           0.3037   -9.7945    0.6660 C.1     1  LIG1       -0.1138
     46 H           1.2560  -10.2481    0.8182 H       1  LIG1        0.1232
@<TRIPOS>BOND
     1    12    11    1
     2    34    33    1
     3    30    31    3
     4    11    10    3
     5    33    32    3
     6     8     9    3
     7    31    25    1
     8    10     3    1
     9    32    26    1
    10    18    17    1
    11     9     2    1
    12    25    26   ar
    13    25    24   ar
    14    26    27   ar
    15     3     2   ar
    16     3     4   ar
    17     2     1   ar
    18    40    39    1
    19    17    16   ar
    20    17    13   ar
    21    27    35    1
    22    27    28   ar
    23    24    16    1
    24    24    28   ar
    25    39    35   ar
    26    39    38   ar
    27     4    13    1
    28     4     5   ar
    29     1     7    1
    30     1     5   ar
    31    35    36   ar
    32    41    38    1
    33    16    15   ar
    34    38    37   ar
    35    28    29    1
    36    13    14   ar
    37     5     6    1
    38    36    37   ar
    39    36    43    1
    40    37    44    1
    41    43    42    3
    42    44    45    3
    43    15    14   ar
    44    15    21    1
    45    14    20    1
    46    45    46    1
    47    21    22    3
    48    20    19    3
    49    22    23    1
