@<TRIPOS>MOLECULE
mol_data/opt/b3lyp/geoms/mol2/13de13de-13de-13de-.out
 46 49 0 0 0
SMALL
GASTEIGER

@<TRIPOS>ATOM
      1 C           1.2732   -0.1760   -0.4235 C.ar    1  LIG1        0.0209
      2 C           0.7854    1.0454   -0.8565 C.ar    1  LIG1        0.0850
      3 C          -0.6504    0.9863   -0.7717 C.ar    1  LIG1        0.0687
      4 C          -0.9725   -0.2860   -0.2820 C.ar    1  LIG1        0.0810
      5 N           0.2142   -0.9594   -0.0844 N.ar    1  LIG1       -0.3573
      6 H           0.2799   -1.9082    0.2645 H       1  LIG1        0.1655
      7 H           2.2906   -0.5247   -0.3394 H       1  LIG1        0.0820
      8 N           2.1912    3.0580   -1.6584 N.1     1  LIG1       -0.1908
      9 C           1.5596    2.1494   -1.2985 C.1     1  LIG1        0.1019
     10 C          -1.5573    2.0120   -1.1291 C.1     1  LIG1       -0.0662
     11 C          -2.3376    2.8869   -1.4396 C.1     1  LIG1       -0.1138
     12 H          -2.9822    3.6801   -1.7442 H       1  LIG1        0.1232
     13 C          -2.2587   -0.8718   -0.0022 C.ar    1  LIG1        0.0834
     14 C          -2.6106   -2.1413    0.4747 C.ar    1  LIG1        0.0944
     15 C          -4.0440   -2.2082    0.5571 C.ar    1  LIG1        0.0694
     16 C          -4.5222   -0.9727    0.1186 C.ar    1  LIG1        0.0815
     17 N          -3.4284   -0.1878   -0.1956 N.ar    1  LIG1       -0.3498
     18 H          -3.4624    0.7145   -0.6566 H       1  LIG1        0.1661
     19 N          -0.8397   -3.9092    1.0956 N.1     1  LIG1       -0.1908
     20 C          -1.6802   -3.1463    0.8278 C.1     1  LIG1        0.1026
     21 C          -4.7995   -3.2983    1.0460 C.1     1  LIG1       -0.0662
     22 C          -5.4298   -4.2377    1.4726 C.1     1  LIG1       -0.1138
     23 H          -5.9957   -5.0715    1.8200 H       1  LIG1        0.1232
     24 C          -5.8673   -0.4429    0.0353 C.ar    1  LIG1        0.0834
     25 C          -7.0553   -0.9816   -0.4601 C.ar    1  LIG1        0.0944
     26 C          -8.0862    0.0139   -0.3235 C.ar    1  LIG1        0.0694
     27 C          -7.4894    1.1394    0.2436 C.ar    1  LIG1        0.0815
     28 N          -6.1575    0.8364    0.4510 N.ar    1  LIG1       -0.3498
     29 H          -5.4824    1.4746    0.8447 H       1  LIG1        0.1661
     30 N          -7.3782   -3.3026   -1.5437 N.1     1  LIG1       -0.1908
     31 C          -7.2230   -2.2612   -1.0484 C.1     1  LIG1        0.1026
     32 C          -9.4472   -0.1385   -0.6768 C.1     1  LIG1       -0.0662
     33 C         -10.6086   -0.2827   -0.9800 C.1     1  LIG1       -0.1138
     34 H         -11.6280   -0.3997   -1.2678 H       1  LIG1        0.1232
     35 C          -8.0464    2.4168    0.6463 C.ar    1  LIG1        0.0829
     36 C          -8.8523    3.3298   -0.0304 C.ar    1  LIG1        0.0937
     37 C          -9.0911    4.4466    0.8527 C.ar    1  LIG1        0.0600
     38 C          -8.4165    4.1697    2.0278 C.ar    1  LIG1        0.0190
     39 N          -7.7839    2.9628    1.8864 N.ar    1  LIG1       -0.3573
     40 H          -7.3440    2.4575    2.6405 H       1  LIG1        0.1655
     41 H          -8.3506    4.7442    2.9384 H       1  LIG1        0.0820
     42 N          -9.6597    3.1642   -2.4773 N.1     1  LIG1       -0.1908
     43 C          -9.2986    3.2253   -1.3728 C.1     1  LIG1        0.1026
     44 C          -9.8520    5.6068    0.5648 C.1     1  LIG1       -0.0669
     45 C         -10.5030    6.5937    0.3109 C.1     1  LIG1       -0.1138
     46 H         -11.0797    7.4591    0.0788 H       1  LIG1        0.1232
@<TRIPOS>BOND
     1    42    43    3
     2    12    11    1
     3     8     9    3
     4    30    31    3
     5    11    10    3
     6    43    36    1
     7     9     2    1
     8    34    33    1
     9    10     3    1
    10    31    25    1
    11    33    32    3
    12     2     3   ar
    13     2     1   ar
    14     3     4   ar
    15    32    26    1
    16    18    17    1
    17    25    26   ar
    18    25    24   ar
    19     1     7    1
    20     1     5   ar
    21    26    27   ar
    22     4     5   ar
    23     4    13    1
    24    17    13   ar
    25    17    16   ar
    26     5     6    1
    27    36    35   ar
    28    36    37   ar
    29    13    14   ar
    30    24    16    1
    31    24    28   ar
    32    46    45    1
    33    16    15   ar
    34    27    28   ar
    35    27    35    1
    36    45    44    3
    37    28    29    1
    38    14    15   ar
    39    14    20    1
    40    15    21    1
    41    44    37    1
    42    35    39   ar
    43    20    19    3
    44    37    38   ar
    45    21    22    3
    46    22    23    1
    47    39    38   ar
    48    39    40    1
    49    38    41    1
