@<TRIPOS>MOLECULE
mol_data/opt/b3lyp/geoms/mol2/13de13de-13de.out
 35 37 0 0 0
SMALL
GASTEIGER

@<TRIPOS>ATOM
      1 C           1.2985   -0.4165   -0.0010 C.ar    1  LIG1        0.0209
      2 C           0.9517    0.9247   -0.0005 C.ar    1  LIG1        0.0850
      3 C          -0.4849    0.9958    0.0002 C.ar    1  LIG1        0.0687
      4 C          -0.9537   -0.3236    0.0002 C.ar    1  LIG1        0.0810
      5 N           0.1550   -1.1495   -0.0006 N.ar    1  LIG1       -0.3573
      6 H           0.1176   -2.1610   -0.0008 H       1  LIG1        0.1655
      7 H           2.2727   -0.8799   -0.0016 H       1  LIG1        0.0820
      8 N           2.5978    2.9148   -0.0010 N.1     1  LIG1       -0.1908
      9 C           1.8538    2.0200   -0.0008 C.1     1  LIG1        0.1019
     10 C          -1.2724    2.1689    0.0008 C.1     1  LIG1       -0.0662
     11 C          -1.9452    3.1762    0.0014 C.1     1  LIG1       -0.1138
     12 H          -2.5811    4.0326    0.0018 H       1  LIG1        0.1232
     13 C          -2.2981   -0.8452    0.0008 C.ar    1  LIG1        0.0834
     14 C          -2.7421   -2.1744    0.0007 C.ar    1  LIG1        0.0944
     15 C          -4.1757   -2.1620    0.0015 C.ar    1  LIG1        0.0694
     16 C          -4.5694   -0.8178    0.0019 C.ar    1  LIG1        0.0815
     17 N          -3.4199   -0.0544    0.0015 N.ar    1  LIG1       -0.3498
     18 H          -3.3824    0.9610    0.0017 H       1  LIG1        0.1661
     19 N          -1.1623   -4.2121   -0.0005 N.1     1  LIG1       -0.1908
     20 C          -1.9094   -3.3161    0.0000 C.1     1  LIG1        0.1026
     21 C          -5.0033   -3.3092    0.0017 C.1     1  LIG1       -0.0662
     22 C          -5.7002   -4.3014    0.0018 C.1     1  LIG1       -0.1138
     23 H          -6.2825   -5.1946    0.0019 H       1  LIG1        0.1232
     24 C          -5.9044   -0.2684    0.0028 C.ar    1  LIG1        0.0829
     25 C          -6.3934    1.0461    0.0032 C.ar    1  LIG1        0.0937
     26 C          -7.8338    0.9827    0.0040 C.ar    1  LIG1        0.0600
     27 C          -8.1616   -0.3613    0.0041 C.ar    1  LIG1        0.0190
     28 N          -7.0066   -1.0887    0.0033 N.ar    1  LIG1       -0.3573
     29 H          -6.9430   -2.0993    0.0032 H       1  LIG1        0.1655
     30 H          -9.1309   -0.8345    0.0046 H       1  LIG1        0.0820
     31 N          -5.0121    3.2233    0.0025 N.1     1  LIG1       -0.1908
     32 C          -5.6324    2.2367    0.0028 C.1     1  LIG1        0.1026
     33 C          -8.7291    2.0798    0.0046 C.1     1  LIG1       -0.0669
     34 C          -9.4868    3.0225    0.0051 C.1     1  LIG1       -0.1138
     35 H         -10.1491    3.8573    0.0055 H       1  LIG1        0.1232
@<TRIPOS>BOND
     1     7     1    1
     2     1     5   ar
     3     1     2   ar
     4     8     9    3
     5     9     2    1
     6     6     5    1
     7     5     4   ar
     8     2     3   ar
     9    19    20    3
    10    20    14    1
    11     4     3   ar
    12     4    13    1
    13     3    10    1
    14    14    13   ar
    15    14    15   ar
    16    13    17   ar
    17    10    11    3
    18    11    12    1
    19    15    21    1
    20    15    16   ar
    21    17    18    1
    22    17    16   ar
    23    21    22    3
    24    22    23    1
    25    16    24    1
    26    31    32    3
    27    24    25   ar
    28    24    28   ar
    29    32    25    1
    30    25    26   ar
    31    29    28    1
    32    28    27   ar
    33    26    27   ar
    34    26    33    1
    35    27    30    1
    36    33    34    3
    37    34    35    1
