@<TRIPOS>MOLECULE
mol_data/opt/b3lyp/geoms/mol2/13de13de13de-13de-.out
 46 49 0 0 0
SMALL
GASTEIGER

@<TRIPOS>ATOM
      1 C           1.2227   -0.1755   -0.5681 C.ar    1  LIG1        0.0209
      2 C           0.8951    1.0572   -0.0319 C.ar    1  LIG1        0.0850
      3 C          -0.5347    1.0905    0.1498 C.ar    1  LIG1        0.0687
      4 C          -1.0205   -0.1385   -0.3013 C.ar    1  LIG1        0.0810
      5 N           0.0710   -0.8866   -0.7144 N.ar    1  LIG1       -0.3573
      6 H           0.0114   -1.7881   -1.1647 H       1  LIG1        0.1655
      7 H           2.1832   -0.5759   -0.8526 H       1  LIG1        0.0820
      8 N           2.5703    2.9307    0.5655 N.1     1  LIG1       -0.1908
      9 C           1.8128    2.0894    0.2970 C.1     1  LIG1        0.1019
     10 C          -1.2727    2.1439    0.7359 C.1     1  LIG1       -0.0662
     11 C          -1.8840    3.0520    1.2495 C.1     1  LIG1       -0.1138
     12 H          -2.4328    3.8594    1.6766 H       1  LIG1        0.1232
     13 C          -2.3527   -0.7000   -0.3204 C.ar    1  LIG1        0.0834
     14 C          -3.6081   -0.1496   -0.5947 C.ar    1  LIG1        0.0944
     15 C          -4.5793   -1.2048   -0.4830 C.ar    1  LIG1        0.0694
     16 C          -3.8812   -2.3727   -0.1581 C.ar    1  LIG1        0.0815
     17 N          -2.5487   -2.0373   -0.0720 N.ar    1  LIG1       -0.3498
     18 H          -1.8302   -2.6701    0.2581 H       1  LIG1        0.1661
     19 N          -4.1923    2.2402   -1.3731 N.1     1  LIG1       -0.1908
     20 C          -3.9042    1.1729   -1.0095 C.1     1  LIG1        0.1026
     21 C          -5.9730   -1.0891   -0.6989 C.1     1  LIG1       -0.0662
     22 C          -7.1679   -0.9951   -0.8812 C.1     1  LIG1       -0.1138
     23 H          -8.2092   -0.8644   -1.0706 H       1  LIG1        0.1232
     24 C          -4.3525   -3.7150    0.0564 C.ar    1  LIG1        0.0834
     25 C          -3.6478   -4.9080    0.2694 C.ar    1  LIG1        0.0944
     26 C          -4.6014   -5.9746    0.4037 C.ar    1  LIG1        0.0694
     27 C          -5.8634   -5.3959    0.2559 C.ar    1  LIG1        0.0815
     28 N          -5.6823   -4.0388    0.0643 N.ar    1  LIG1       -0.3498
     29 H          -6.4067   -3.3790   -0.1951 H       1  LIG1        0.1661
     30 N          -1.0728   -4.9303    0.3713 N.1     1  LIG1       -0.1908
     31 C          -2.2378   -4.9871    0.3359 C.1     1  LIG1        0.1026
     32 C          -4.3018   -7.3270    0.6847 C.1     1  LIG1       -0.0662
     33 C          -4.0265   -8.4782    0.9314 C.1     1  LIG1       -0.1138
     34 H          -3.7952   -9.5007    1.1235 H       1  LIG1        0.1232
     35 C          -7.1912   -5.9677    0.3325 C.ar    1  LIG1        0.0829
     36 C          -7.7354   -7.1371   -0.1982 C.ar    1  LIG1        0.0937
     37 C          -9.1255   -7.1891    0.1870 C.ar    1  LIG1        0.0600
     38 C          -9.3718   -6.0481    0.9287 C.ar    1  LIG1        0.0190
     39 N          -8.2135   -5.3207    0.9958 N.ar    1  LIG1       -0.3573
     40 H          -8.0799   -4.5099    1.5809 H       1  LIG1        0.1655
     41 H         -10.2807   -5.7170    1.4058 H       1  LIG1        0.0820
     42 N          -6.5646   -8.8447   -1.7403 N.1     1  LIG1       -0.1908
     43 C          -7.0791   -8.0727   -1.0376 C.1     1  LIG1        0.1026
     44 C         -10.0590   -8.2019   -0.1454 C.1     1  LIG1       -0.0669
     45 C         -10.8491   -9.0709   -0.4331 C.1     1  LIG1       -0.1138
     46 H         -11.5386   -9.8412   -0.6913 H       1  LIG1        0.1232
@<TRIPOS>BOND
     1    42    43    3
     2    19    20    3
     3     6     5    1
     4    23    22    1
     5    43    36    1
     6    20    14    1
     7    22    21    3
     8     7     1    1
     9     5     1   ar
    10     5     4   ar
    11    21    15    1
    12    46    45    1
    13    14    15   ar
    14    14    13   ar
    15     1     2   ar
    16    15    16   ar
    17    45    44    3
    18    13     4    1
    19    13    17   ar
    20     4     3   ar
    21    36    37   ar
    22    36    35   ar
    23    29    28    1
    24    16    17   ar
    25    16    24    1
    26    44    37    1
    27    17    18    1
    28     2     3   ar
    29     2     9    1
    30    24    28   ar
    31    24    25   ar
    32    28    27   ar
    33     3    10    1
    34    37    38   ar
    35    27    35    1
    36    27    26   ar
    37    25    31    1
    38    25    26   ar
    39     9     8    3
    40    35    39   ar
    41    31    30    3
    42    26    32    1
    43    32    33    3
    44    10    11    3
    45    38    39   ar
    46    38    41    1
    47    33    34    1
    48    39    40    1
    49    11    12    1
