@<TRIPOS>MOLECULE
mol_data/opt/b3lyp/geoms/mol2/13de13de-13de-13de.out
 46 49 0 0 0
SMALL
GASTEIGER

@<TRIPOS>ATOM
      1 C           1.3363   -0.4816   -0.2997 C.ar    1  LIG1        0.0209
      2 C           0.9551    0.8277   -0.5458 C.ar    1  LIG1        0.0850
      3 C          -0.4782    0.8831   -0.4372 C.ar    1  LIG1        0.0687
      4 C          -0.9080   -0.4134   -0.1296 C.ar    1  LIG1        0.0810
      5 N           0.2158   -1.2109   -0.0538 N.ar    1  LIG1       -0.3573
      6 H           0.2018   -2.1978    0.1723 H       1  LIG1        0.1655
      7 H           2.3196   -0.9249   -0.2856 H       1  LIG1        0.0820
      8 N           2.5388    2.7940   -1.0902 N.1     1  LIG1       -0.1908
      9 C           1.8244    1.9089   -0.8442 C.1     1  LIG1        0.1019
     10 C          -1.3039    2.0247   -0.5596 C.1     1  LIG1       -0.0662
     11 C          -2.0332    2.9900   -0.6403 C.1     1  LIG1       -0.1138
     12 H          -2.6802    3.8400   -0.6179 H       1  LIG1        0.1232
     13 C          -2.2399   -0.9211    0.0803 C.ar    1  LIG1        0.0834
     14 C          -2.6832   -2.1813    0.5032 C.ar    1  LIG1        0.0944
     15 C          -4.1184   -2.1667    0.5281 C.ar    1  LIG1        0.0694
     16 C          -4.5095   -0.8952    0.0964 C.ar    1  LIG1        0.0815
     17 N          -3.3587   -0.1670   -0.1466 N.ar    1  LIG1       -0.3498
     18 H          -3.3118    0.7733   -0.5239 H       1  LIG1        0.1661
     19 N          -1.0560   -4.0901    1.1002 N.1     1  LIG1       -0.1908
     20 C          -1.8315   -3.2562    0.8482 C.1     1  LIG1        0.1026
     21 C          -4.9390   -3.2234    0.9822 C.1     1  LIG1       -0.0662
     22 C          -5.6129   -4.1397    1.3926 C.1     1  LIG1       -0.1138
     23 H          -6.2211   -4.9492    1.7250 H       1  LIG1        0.1232
     24 C          -5.8247   -0.3219   -0.0764 C.ar    1  LIG1        0.0834
     25 C          -7.0242   -0.8880   -0.5189 C.ar    1  LIG1        0.0944
     26 C          -8.0260    0.1414   -0.5013 C.ar    1  LIG1        0.0694
     27 C          -7.4021    1.3157   -0.0685 C.ar    1  LIG1        0.0815
     28 N          -6.0807    1.0083    0.1735 N.ar    1  LIG1       -0.3498
     29 H          -5.4192    1.6537    0.5862 H       1  LIG1        0.1661
     30 N          -7.4578   -3.2503   -1.4620 N.1     1  LIG1       -0.1908
     31 C          -7.2382   -2.1972   -1.0177 C.1     1  LIG1        0.1026
     32 C          -9.3811   -0.0103   -0.8798 C.1     1  LIG1       -0.0662
     33 C         -10.5439   -0.1427   -1.1956 C.1     1  LIG1       -0.1138
     34 H         -11.5551   -0.2999   -1.4951 H       1  LIG1        0.1232
     35 C          -7.9492    2.6359    0.1165 C.ar    1  LIG1        0.0829
     36 C          -7.3342    3.8618    0.4079 C.ar    1  LIG1        0.0937
     37 C          -8.3628    4.8690    0.4765 C.ar    1  LIG1        0.0600
     38 C          -9.5560    4.2160    0.2217 C.ar    1  LIG1        0.0190
     39 N          -9.2921    2.8908    0.0117 N.ar    1  LIG1       -0.3573
     40 H          -9.9725    2.1761   -0.2162 H       1  LIG1        0.1655
     41 H         -10.5598    4.6082    0.1791 H       1  LIG1        0.0820
     42 N          -4.7860    4.1344    0.6769 N.1     1  LIG1       -0.1908
     43 C          -5.9439    4.0487    0.5641 C.1     1  LIG1        0.1026
     44 C          -8.1817    6.2475    0.7451 C.1     1  LIG1       -0.0669
     45 C          -8.0147    7.4229    0.9757 C.1     1  LIG1       -0.1138
     46 H          -7.8637    8.4580    1.1791 H       1  LIG1        0.1232
@<TRIPOS>BOND
     1    34    33    1
     2    30    31    3
     3    33    32    3
     4     8     9    3
     5    31    25    1
     6    32    26    1
     7     9     2    1
     8    11    12    1
     9    11    10    3
    10    10     3    1
    11     2     3   ar
    12     2     1   ar
    13    18    17    1
    14    25    26   ar
    15    25    24   ar
    16    26    27   ar
    17     3     4   ar
    18     1     7    1
    19     1     5   ar
    20    40    39    1
    21    17    13   ar
    22    17    16   ar
    23     4     5   ar
    24     4    13    1
    25    24    16    1
    26    24    28   ar
    27    27    35    1
    28    27    28   ar
    29     5     6    1
    30    39    35   ar
    31    39    38   ar
    32    13    14   ar
    33    16    15   ar
    34    35    36   ar
    35    28    29    1
    36    41    38    1
    37    38    37   ar
    38    36    37   ar
    39    36    43    1
    40    37    44    1
    41    14    15   ar
    42    14    20    1
    43    15    21    1
    44    43    42    3
    45    44    45    3
    46    20    19    3
    47    45    46    1
    48    21    22    3
    49    22    23    1
