@<TRIPOS>MOLECULE
mol_data/opt/b3lyp/geoms/mol2/13de13dd13ha-4fi.out
 47 50 0 0 0
SMALL
GASTEIGER

@<TRIPOS>ATOM
      1 C           0.7702    0.0440    1.6431 C.ar    1  LIG1        0.0209
      2 C           0.8101    0.9073    0.5635 C.ar    1  LIG1        0.0850
      3 C          -0.4509    0.8013   -0.1302 C.ar    1  LIG1        0.0687
      4 C          -1.2138   -0.1307    0.5718 C.ar    1  LIG1        0.0810
      5 N          -0.4399   -0.5851    1.6291 N.ar    1  LIG1       -0.3573
      6 H          -0.7947   -1.1548    2.3823 H       1  LIG1        0.1655
      7 H           1.5103   -0.1508    2.4035 H       1  LIG1        0.0820
      8 N           2.8214    2.3894   -0.0936 N.1     1  LIG1       -0.1908
      9 C           1.9118    1.7257    0.1996 C.1     1  LIG1        0.1019
     10 C          -0.8134    1.4766   -1.3189 C.1     1  LIG1       -0.0662
     11 C          -1.1100    2.0568   -2.3374 C.1     1  LIG1       -0.1138
     12 H          -1.3849    2.5856   -3.2207 H       1  LIG1        0.1232
     13 C          -2.5386   -0.6633    0.3267 C.ar    1  LIG1        0.0835
     14 C          -3.7489   -0.0429    0.0431 C.ar    1  LIG1        0.0964
     15 C          -4.7474   -1.0751   -0.0787 C.ar    1  LIG1        0.0964
     16 C          -4.1236   -2.3091    0.1587 C.ar    1  LIG1        0.0840
     17 N          -2.7960   -2.0212    0.3955 N.ar    1  LIG1       -0.3497
     18 H          -2.1062   -2.7289    0.5973 H       1  LIG1        0.1661
     19 N          -4.1968    2.4936   -0.1299 N.1     1  LIG1       -0.1908
     20 C          -3.9805    1.3524   -0.0578 C.1     1  LIG1        0.1026
     21 N          -7.2379   -0.8169   -0.6911 N.1     1  LIG1       -0.1908
     22 C          -6.1057   -0.9027   -0.4228 C.1     1  LIG1        0.1026
     23 C          -4.5989   -3.6609    0.1655 C.ar    1  LIG1        0.0856
     24 C          -5.8085   -4.2381    0.5716 C.ar    1  LIG1        0.0523
     25 C          -5.6425   -5.6519    0.4926 C.ar    1  LIG1       -0.0149
     26 C          -4.3612   -5.9253    0.0506 C.ar    1  LIG1        0.0523
     27 N          -3.6998   -4.7138   -0.0976 N.ar    1  LIG1       -0.3514
     28 H          -3.0155   -4.6174   -0.8369 H       1  LIG1        0.1660
     29 N          -6.9199   -3.6084    1.0996 N.pl3   1  LIG1       -0.3563
     30 H          -7.1646   -2.7068    0.7080 H       1  LIG1        0.1424
     31 H          -7.7285   -4.2088    1.1816 H       1  LIG1        0.1424
     32 H          -6.3804   -6.3894    0.7653 H       1  LIG1        0.0657
     33 C          -4.3747   -8.3854   -0.4839 C.ar    1  LIG1        0.1260
     34 C          -3.6741   -9.5526   -0.7970 C.ar    1  LIG1       -0.0193
     35 C          -3.6753   -7.1817   -0.2463 C.ar    1  LIG1        0.0400
     36 C          -2.2853   -9.5526   -0.8751 C.ar    1  LIG1       -0.0554
     37 H          -4.2288  -10.4705   -0.9811 H       1  LIG1        0.0654
     38 C          -2.2690   -7.2263   -0.3179 C.ar    1  LIG1       -0.0462
     39 C          -1.5547   -8.3818   -0.6329 C.ar    1  LIG1       -0.0496
     40 H          -1.7141   -6.3207   -0.0883 H       1  LIG1        0.0628
     41 H          -1.7657  -10.4757   -1.1175 H       1  LIG1        0.0621
     42 O          -5.7392   -8.3743   -0.4028 O.3     1  LIG1       -0.5061
     43 H          -6.0737   -9.2526   -0.6272 H       1  LIG1        0.2922
     44 C          -0.0461   -8.3765   -0.7126 C.3     1  LIG1       -0.0397
     45 H           0.3713   -7.4421   -0.3270 H       1  LIG1        0.0278
     46 H           0.3011   -8.4904   -1.7465 H       1  LIG1        0.0278
     47 H           0.3890   -9.1991   -0.1351 H       1  LIG1        0.0278
@<TRIPOS>BOND
     1    12    11    1
     2    11    10    3
     3    46    44    1
     4    10     3    1
     5    41    36    1
     6    37    34    1
     7    36    34   ar
     8    36    39   ar
     9    28    27    1
    10    34    33   ar
    11    44    39    1
    12    44    45    1
    13    44    47    1
    14    21    22    3
    15    39    38   ar
    16    43    42    1
    17    33    42    1
    18    33    35   ar
    19    22    15    1
    20    38    35   ar
    21    38    40    1
    22    35    26    1
    23     3     2   ar
    24     3     4   ar
    25    19    20    3
    26    27    26   ar
    27    27    23   ar
    28     8     9    3
    29    15    14   ar
    30    15    16   ar
    31    20    14    1
    32    14    13   ar
    33    26    25   ar
    34    16    23    1
    35    16    17   ar
    36    23    24   ar
    37     9     2    1
    38    13    17   ar
    39    13     4    1
    40    17    18    1
    41    25    24   ar
    42    25    32    1
    43     2     1   ar
    44    24    29    1
    45     4     5   ar
    46    30    29    1
    47    29    31    1
    48     5     1   ar
    49     5     6    1
    50     1     7    1
