@<TRIPOS>MOLECULE
mol_data/opt/b3lyp/geoms/mol2/13de13de.out
 24 25 0 0 0
SMALL
GASTEIGER

@<TRIPOS>ATOM
      1 C           1.1368   -0.3163   -0.5844 C.ar    1  LIG1        0.0209
      2 C           0.8389    0.9689   -0.1697 C.ar    1  LIG1        0.0850
      3 C          -0.5696    1.0141    0.1420 C.ar    1  LIG1        0.0687
      4 C          -1.0725   -0.2619   -0.1055 C.ar    1  LIG1        0.0810
      5 N          -0.0122   -1.0487   -0.5271 N.ar    1  LIG1       -0.3573
      6 H          -0.1171   -1.9789   -0.9029 H       1  LIG1        0.1655
      7 H           2.0730   -0.7401   -0.9129 H       1  LIG1        0.0820
      8 N           2.5366    2.9044    0.0434 N.1     1  LIG1       -0.1908
      9 C           1.7677    2.0365   -0.0528 C.1     1  LIG1        0.1019
     10 C          -1.2810    2.1276    0.6468 C.1     1  LIG1       -0.0662
     11 C          -1.8761    3.0859    1.0819 C.1     1  LIG1       -0.1138
     12 H          -2.4087    3.9355    1.4425 H       1  LIG1        0.1232
     13 C          -2.4021   -0.8172    0.0590 C.ar    1  LIG1        0.0829
     14 C          -3.6578   -0.3577   -0.3330 C.ar    1  LIG1        0.0937
     15 C          -4.6357   -1.3334    0.0882 C.ar    1  LIG1        0.0600
     16 C          -3.9351   -2.3488    0.7124 C.ar    1  LIG1        0.0190
     17 N          -2.6017   -2.0354    0.6756 N.ar    1  LIG1       -0.3573
     18 H          -1.8825   -2.5320    1.1790 H       1  LIG1        0.1655
     19 H          -4.2952   -3.2555    1.1724 H       1  LIG1        0.0820
     20 N          -4.1805    1.7690   -1.7005 N.1     1  LIG1       -0.1908
     21 C          -3.9328    0.8178   -1.0775 C.1     1  LIG1        0.1026
     22 C          -6.0367   -1.2712   -0.1151 C.1     1  LIG1       -0.0669
     23 C          -7.2314   -1.2104   -0.2922 C.1     1  LIG1       -0.1138
     24 H          -8.2829   -1.1471   -0.4524 H       1  LIG1        0.1232
@<TRIPOS>BOND
     1    20    21    3
     2    21    14    1
     3     7     1    1
     4     6     5    1
     5     1     5   ar
     6     1     2   ar
     7     5     4   ar
     8    24    23    1
     9    14    13   ar
    10    14    15   ar
    11    23    22    3
    12     2     9    1
    13     2     3   ar
    14    22    15    1
    15     4    13    1
    16     4     3   ar
    17     9     8    3
    18    13    17   ar
    19    15    16   ar
    20     3    10    1
    21    10    11    3
    22    17    16   ar
    23    17    18    1
    24    16    19    1
    25    11    12    1
