@<TRIPOS>MOLECULE
mol_data/opt/b3lyp/geoms/mol2/13de13de-.out
 24 25 0 0 0
SMALL
GASTEIGER

@<TRIPOS>ATOM
      1 C           1.1988   -0.3163   -0.0003 C.ar    1  LIG1        0.0209
      2 C           0.8051    1.0107   -0.0003 C.ar    1  LIG1        0.0850
      3 C          -0.6353    1.0295    0.0003 C.ar    1  LIG1        0.0687
      4 C          -1.0554   -0.3061    0.0004 C.ar    1  LIG1        0.0810
      5 N           0.0789   -1.0896   -0.0000 N.ar    1  LIG1       -0.3573
      6 H           0.0704   -2.1024   -0.0001 H       1  LIG1        0.1655
      7 H           2.1883   -0.7455   -0.0006 H       1  LIG1        0.0820
      8 N           2.3660    3.0683   -0.0009 N.1     1  LIG1       -0.1908
      9 C           1.6640    2.1400   -0.0007 C.1     1  LIG1        0.1019
     10 C          -1.4609    2.1786    0.0007 C.1     1  LIG1       -0.0662
     11 C          -2.1716    3.1609    0.0009 C.1     1  LIG1       -0.1138
     12 H          -2.7575    4.0516    0.0009 H       1  LIG1        0.1232
     13 C          -2.3856   -0.8643    0.0008 C.ar    1  LIG1        0.0829
     14 C          -2.8257   -2.1948    0.0008 C.ar    1  LIG1        0.0937
     15 C          -4.2666   -2.1837    0.0015 C.ar    1  LIG1        0.0600
     16 C          -4.6408   -0.8510    0.0016 C.ar    1  LIG1        0.0190
     17 N          -3.5103   -0.0809    0.0014 N.ar    1  LIG1       -0.3573
     18 H          -3.4765    0.9312    0.0014 H       1  LIG1        0.1655
     19 H          -5.6260   -0.4125    0.0020 H       1  LIG1        0.0820
     20 N          -1.1894   -4.1871    0.0001 N.1     1  LIG1       -0.1908
     21 C          -1.9700   -3.3199    0.0003 C.1     1  LIG1        0.1026
     22 C          -5.1230   -3.3118    0.0017 C.1     1  LIG1       -0.0669
     23 C          -5.8447   -4.2823    0.0020 C.1     1  LIG1       -0.1138
     24 H          -6.4763   -5.1405    0.0025 H       1  LIG1        0.1232
@<TRIPOS>BOND
     1     8     9    3
     2     9     2    1
     3     7     1    1
     4     1     2   ar
     5     1     5   ar
     6     2     3   ar
     7     6     5    1
     8     5     4   ar
     9    20    21    3
    10    21    14    1
    11     3     4   ar
    12     3    10    1
    13     4    13    1
    14    10    11    3
    15    14    13   ar
    16    14    15   ar
    17    13    17   ar
    18    12    11    1
    19    17    18    1
    20    17    16   ar
    21    15    16   ar
    22    15    22    1
    23    16    19    1
    24    22    23    3
    25    23    24    1
