@<TRIPOS>MOLECULE
mol_data/opt/b3lyp/geoms/mol2/13de13lf4dh-6af.out
 49 52 0 0 0
SMALL
GASTEIGER

@<TRIPOS>ATOM
      1 C           1.4456   -0.2384   -0.3258 C.ar    1  LIG1        0.0209
      2 C           1.1746    0.9379    0.3483 C.ar    1  LIG1        0.0850
      3 C          -0.2506    0.9967    0.5792 C.ar    1  LIG1        0.0688
      4 C          -0.7931   -0.1602    0.0166 C.ar    1  LIG1        0.0835
      5 N           0.2615   -0.8915   -0.5068 N.ar    1  LIG1       -0.3572
      6 H           0.1356   -1.7203   -1.0667 H       1  LIG1        0.1655
      7 H           2.3840   -0.6374   -0.6777 H       1  LIG1        0.0820
      8 N           2.9381    2.6782    1.0802 N.1     1  LIG1       -0.1908
      9 C           2.1396    1.8970    0.7531 C.1     1  LIG1        0.1019
     10 C          -0.9304    2.0074    1.2979 C.1     1  LIG1       -0.0662
     11 C          -1.4807    2.8775    1.9324 C.1     1  LIG1       -0.1138
     12 H          -1.9744    3.6441    2.4830 H       1  LIG1        0.1232
     13 C          -2.1435   -0.6649   -0.0631 C.ar    1  LIG1        0.1105
     14 C          -3.3553   -0.0239   -0.2760 C.ar    1  LIG1        0.1888
     15 C          -4.3859   -1.0157   -0.2499 C.ar    1  LIG1        0.1851
     16 C          -3.7806   -2.2580   -0.0408 C.ar    1  LIG1        0.0941
     17 N          -2.4035   -2.0293    0.0261 N.ar    1  LIG1       -0.3471
     18 H          -1.8294   -2.6184    0.6158 H       1  LIG1        0.1662
     19 O          -3.4940    1.3102   -0.4656 O.3     1  LIG1       -0.4895
     20 C          -4.1978    1.7150   -1.6481 C.3     1  LIG1        0.0791
     21 H          -4.1885    2.8059   -1.6390 H       1  LIG1        0.0660
     22 H          -3.6825    1.3555   -2.5477 H       1  LIG1        0.0660
     23 H          -5.2266    1.3481   -1.6439 H       1  LIG1        0.0660
     24 O          -5.6807   -0.7289   -0.5509 O.3     1  LIG1       -0.5019
     25 H          -6.2712   -1.0360    0.1604 H       1  LIG1        0.2924
     26 C          -5.5412   -3.9777    0.5722 C.ar    1  LIG1        0.0617
     27 C          -5.9541   -5.3195    0.5777 C.ar    1  LIG1       -0.0342
     28 C          -4.2829   -3.6239    0.0115 C.ar    1  LIG1        0.0211
     29 C          -5.1654   -6.3519    0.0799 C.ar    1  LIG1        0.0056
     30 H          -6.9130   -5.5626    1.0234 H       1  LIG1        0.0637
     31 C          -3.4954   -4.6662   -0.4961 C.ar    1  LIG1       -0.0300
     32 C          -3.8973   -6.0100   -0.4751 C.ar    1  LIG1        0.0331
     33 H          -2.5515   -4.4169   -0.9715 H       1  LIG1        0.0643
     34 N          -7.0410   -2.1824    1.6825 N.1     1  LIG1       -0.1908
     35 C          -6.3721   -3.0037    1.1919 C.1     1  LIG1        0.0998
     36 N          -3.0566   -6.9762   -0.9893 N.pl3   1  LIG1       -0.3575
     37 H          -3.4704   -7.8620   -1.2417 H       1  LIG1        0.1423
     38 H          -2.3372   -6.6603   -1.6227 H       1  LIG1        0.1423
     39 C          -4.8929   -8.8086    0.6302 C.ar    1  LIG1        0.0356
     40 C          -5.6704   -7.7493    0.1221 C.ar    1  LIG1        0.0055
     41 C          -6.9691   -8.0512   -0.3057 C.ar    1  LIG1       -0.0095
     42 C          -7.4300   -9.3640   -0.2087 C.ar    1  LIG1        0.1354
     43 C          -6.5662  -10.3402    0.3048 C.ar    1  LIG1        0.0690
     44 N          -5.3268  -10.0691    0.7161 N.ar    1  LIG1       -0.2590
     45 H          -7.6185   -7.2875   -0.7210 H       1  LIG1        0.0661
     46 H          -6.8966  -11.3771    0.3848 H       1  LIG1        0.0867
     47 H          -3.8878   -8.6202    0.9989 H       1  LIG1        0.0836
     48 O          -8.6948   -9.6360   -0.6300 O.3     1  LIG1       -0.5052
     49 H          -8.8810  -10.5767   -0.5044 H       1  LIG1        0.2922
@<TRIPOS>BOND
     1    22    20    1
     2    20    23    1
     3    20    21    1
     4    20    19    1
     5    38    36    1
     6    37    36    1
     7     6     5    1
     8    36    32    1
     9    33    31    1
    10    45    41    1
    11     7     1    1
    12    48    49    1
    13    48    42    1
    14    24    15    1
    15    24    25    1
    16     5     1   ar
    17     5     4   ar
    18    31    32   ar
    19    31    28   ar
    20    32    29   ar
    21    19    14    1
    22     1     2   ar
    23    41    42   ar
    24    41    40   ar
    25    14    15   ar
    26    14    13   ar
    27    15    16   ar
    28    42    43   ar
    29    13     4    1
    30    13    17   ar
    31    16    28    1
    32    16    17   ar
    33    28    26   ar
    34     4     3   ar
    35    17    18    1
    36    29    40    1
    37    29    27   ar
    38    40    39   ar
    39    43    46    1
    40    43    44   ar
    41     2     3   ar
    42     2     9    1
    43    26    27   ar
    44    26    35    1
    45    27    30    1
    46     3    10    1
    47    39    44   ar
    48    39    47    1
    49     9     8    3
    50    35    34    3
    51    10    11    3
    52    11    12    1
