@<TRIPOS>MOLECULE
mol_data/opt/b3lyp/geoms/mol2/13de13de13de13de.out
 46 49 0 0 0
SMALL
GASTEIGER

@<TRIPOS>ATOM
      1 C           0.4477    0.2795   -2.3457 C.ar    1  LIG1        0.0209
      2 C           0.7232    0.9834   -1.1874 C.ar    1  LIG1        0.0850
      3 C          -0.3728    0.7697   -0.2739 C.ar    1  LIG1        0.0687
      4 C          -1.2777   -0.0636   -0.9279 C.ar    1  LIG1        0.0810
      5 N          -0.7451   -0.3582   -2.1732 N.ar    1  LIG1       -0.3573
      6 H          -1.2552   -0.8213   -2.9105 H       1  LIG1        0.1655
      7 H           1.0128    0.2021   -3.2616 H       1  LIG1        0.0820
      8 N           2.8522    2.3790   -0.7468 N.1     1  LIG1       -0.1908
      9 C           1.8906    1.7540   -0.9430 C.1     1  LIG1        0.1019
     10 C          -0.4780    1.2726    1.0442 C.1     1  LIG1       -0.0662
     11 C          -0.5538    1.7062    2.1703 C.1     1  LIG1       -0.1138
     12 H          -0.6333    2.1122    3.1524 H       1  LIG1        0.1232
     13 C          -2.5331   -0.6402   -0.4837 C.ar    1  LIG1        0.0834
     14 C          -3.6680   -0.0629    0.0846 C.ar    1  LIG1        0.0944
     15 C          -4.6377   -1.1047    0.3003 C.ar    1  LIG1        0.0694
     16 C          -4.0629   -2.2906   -0.1529 C.ar    1  LIG1        0.0815
     17 N          -2.7969   -1.9837   -0.6146 N.ar    1  LIG1       -0.3498
     18 H          -2.1541   -2.6525   -1.0115 H       1  LIG1        0.1661
     19 N          -4.0373    2.4409    0.5962 N.1     1  LIG1       -0.1908
     20 C          -3.8597    1.3144    0.3661 C.1     1  LIG1        0.1026
     21 C          -5.9187   -0.9518    0.8811 C.1     1  LIG1       -0.0662
     22 C          -7.0102   -0.8090    1.3809 C.1     1  LIG1       -0.1138
     23 H          -7.9816   -0.6775    1.7991 H       1  LIG1        0.1232
     24 C          -4.5622   -3.6541   -0.1467 C.ar    1  LIG1        0.0834
     25 C          -5.7355   -4.2082   -0.6549 C.ar    1  LIG1        0.0944
     26 C          -5.7052   -5.6251   -0.4039 C.ar    1  LIG1        0.0694
     27 C          -4.5018   -5.8935    0.2472 C.ar    1  LIG1        0.0815
     28 N          -3.8354   -4.6917    0.3899 N.ar    1  LIG1       -0.3498
     29 H          -2.9391   -4.5870    0.8412 H       1  LIG1        0.1661
     30 N          -7.6049   -2.9471   -1.9133 N.1     1  LIG1       -0.1908
     31 C          -6.7621   -3.5082   -1.3401 C.1     1  LIG1        0.1026
     32 C          -6.7159   -6.5570   -0.7378 C.1     1  LIG1       -0.0662
     33 C          -7.5882   -7.3426   -1.0264 C.1     1  LIG1       -0.1138
     34 H          -8.3478   -8.0389   -1.2984 H       1  LIG1        0.1232
     35 C          -3.9553   -7.1333    0.7681 C.ar    1  LIG1        0.0829
     36 C          -3.7604   -8.3764    0.1708 C.ar    1  LIG1        0.0937
     37 C          -3.1627   -9.2492    1.1527 C.ar    1  LIG1        0.0600
     38 C          -3.0142   -8.4992    2.3055 C.ar    1  LIG1        0.0190
     39 N          -3.4771   -7.2339    2.0583 N.ar    1  LIG1       -0.3573
     40 H          -3.6154   -6.5279    2.7657 H       1  LIG1        0.1655
     41 H          -2.6180   -8.7831    3.2678 H       1  LIG1        0.0820
     42 N          -4.2290   -8.9858   -2.2943 N.1     1  LIG1       -0.1908
     43 C          -4.0296   -8.7068   -1.1823 C.1     1  LIG1        0.1026
     44 C          -2.7861  -10.6025    0.9666 C.1     1  LIG1       -0.0669
     45 C          -2.4675  -11.7568    0.7991 C.1     1  LIG1       -0.1138
     46 H          -2.1915  -12.7742    0.6435 H       1  LIG1        0.1232
@<TRIPOS>BOND
     1     7     1    1
     2     6     5    1
     3     1     5   ar
     4     1     2   ar
     5    42    43    3
     6     5     4   ar
     7    30    31    3
     8    31    25    1
     9    34    33    1
    10     2     9    1
    11     2     3   ar
    12    43    36    1
    13    33    32    3
    14    18    17    1
    15     9     8    3
    16     4    13    1
    17     4     3   ar
    18    32    26    1
    19    25    26   ar
    20    25    24   ar
    21    17    13   ar
    22    17    16   ar
    23    13    14   ar
    24    26    27   ar
    25     3    10    1
    26    16    24    1
    27    16    15   ar
    28    24    28   ar
    29    14    15   ar
    30    14    20    1
    31    36    35   ar
    32    36    37   ar
    33    27    28   ar
    34    27    35    1
    35    15    21    1
    36    20    19    3
    37    28    29    1
    38    46    45    1
    39    35    39   ar
    40    45    44    3
    41    21    22    3
    42    44    37    1
    43    10    11    3
    44    37    38   ar
    45    22    23    1
    46    39    38   ar
    47    39    40    1
    48    11    12    1
    49    38    41    1
