@<TRIPOS>MOLECULE
mol_data/opt/b3lyp/geoms/mol2/13de4al-12il-12il.out
 55 58 0 0 0
SMALL
GASTEIGER

@<TRIPOS>ATOM
      1 C           1.3356   -0.2093    0.3754 C.ar    1  LIG1        0.0209
      2 C           1.0310    0.9542   -0.3059 C.ar    1  LIG1        0.0850
      3 C          -0.3922    0.9554   -0.5495 C.ar    1  LIG1        0.0672
      4 C          -0.9005   -0.2262   -0.0002 C.ar    1  LIG1        0.0634
      5 N           0.1748   -0.9031    0.5424 N.ar    1  LIG1       -0.3585
      6 H           0.0896   -1.7594    1.0670 H       1  LIG1        0.1654
      7 H           2.2817   -0.5712    0.7463 H       1  LIG1        0.0820
      8 N           2.7238    2.7743   -1.0090 N.1     1  LIG1       -0.1908
      9 C           1.9586    1.9554   -0.6945 C.1     1  LIG1        0.1019
     10 C          -1.0922    1.9648   -1.2534 C.1     1  LIG1       -0.0663
     11 C          -1.6543    2.8496   -1.8589 C.1     1  LIG1       -0.1138
     12 H          -2.1391    3.6264   -2.4033 H       1  LIG1        0.1232
     13 C          -3.3868    0.0475   -0.0159 C.ar    1  LIG1       -0.0517
     14 C          -4.6595   -0.5037    0.0348 C.ar    1  LIG1       -0.0469
     15 C          -2.2528   -0.7793    0.0547 C.ar    1  LIG1        0.0030
     16 C          -4.8806   -1.8872    0.1818 C.ar    1  LIG1        0.0593
     17 H          -5.5167    0.1518   -0.0702 H       1  LIG1        0.0626
     18 C          -2.4577   -2.1623    0.1982 C.ar    1  LIG1       -0.0101
     19 C          -3.7340   -2.7136    0.2754 C.ar    1  LIG1        0.1314
     20 H          -1.6277   -2.8619    0.2202 H       1  LIG1        0.0661
     21 H          -3.2681    1.1179   -0.1291 H       1  LIG1        0.0624
     22 O          -3.8082   -4.0811    0.3874 O.3     1  LIG1       -0.4944
     23 C          -4.2654   -4.5789    1.6454 C.3     1  LIG1        0.0788
     24 H          -4.2631   -5.6668    1.5605 H       1  LIG1        0.0660
     25 H          -3.5891   -4.2748    2.4554 H       1  LIG1        0.0660
     26 H          -5.2803   -4.2413    1.8782 H       1  LIG1        0.0660
     27 C          -6.2485   -2.3965    0.2103 C.ar    1  LIG1        0.1459
     28 C          -7.4251   -1.8705    0.6993 C.ar    1  LIG1        0.0379
     29 C          -8.4299   -2.8440    0.3990 C.ar    1  LIG1        0.1722
     30 C          -7.8204   -3.9044   -0.2334 C.ar    1  LIG1        0.2125
     31 O          -6.4858   -3.6286   -0.3491 O.2     1  LIG1       -0.4475
     32 C          -7.6708   -0.5913    1.4404 C.3     1  LIG1       -0.0326
     33 H          -8.5191   -0.7154    2.1195 H       1  LIG1        0.0280
     34 H          -7.9150    0.2396    0.7665 H       1  LIG1        0.0280
     35 H          -6.7976   -0.2915    2.0260 H       1  LIG1        0.0280
     36 O          -9.7547   -2.7301    0.7284 O.3     1  LIG1       -0.4909
     37 C         -10.5598   -2.1116   -0.2841 C.3     1  LIG1        0.0790
     38 H         -11.5767   -2.0735    0.1107 H       1  LIG1        0.0660
     39 H         -10.2135   -1.0934   -0.4979 H       1  LIG1        0.0660
     40 H         -10.5464   -2.6978   -1.2098 H       1  LIG1        0.0660
     41 C          -8.2869   -5.1629   -0.7661 C.ar    1  LIG1        0.1799
     42 C          -9.3065   -6.0233   -0.4265 C.ar    1  LIG1        0.0402
     43 C          -9.2269   -7.0874   -1.3918 C.ar    1  LIG1        0.1612
     44 C          -8.1806   -6.8140   -2.2232 C.ar    1  LIG1        0.1345
     45 O          -7.5985   -5.6408   -1.8571 O.2     1  LIG1       -0.4557
     46 H          -7.7643   -7.3188   -3.0801 H       1  LIG1        0.1068
     47 C         -10.2866   -5.9502    0.7045 C.3     1  LIG1       -0.0325
     48 H          -9.9374   -6.5237    1.5729 H       1  LIG1        0.0280
     49 H         -11.2443   -6.3814    0.3967 H       1  LIG1        0.0280
     50 H         -10.4493   -4.9219    1.0302 H       1  LIG1        0.0280
     51 O         -10.0823   -8.1515   -1.4896 O.3     1  LIG1       -0.4917
     52 C          -9.7884   -9.2308   -0.6008 C.3     1  LIG1        0.0789
     53 H         -10.5347  -10.0038   -0.7943 H       1  LIG1        0.0660
     54 H          -8.7858   -9.6351   -0.7885 H       1  LIG1        0.0660
     55 H          -9.8545   -8.9214    0.4497 H       1  LIG1        0.0660
@<TRIPOS>BOND
     1    46    44    1
     2    12    11    1
     3    44    45   ar
     4    44    43   ar
     5    11    10    3
     6    45    41   ar
     7    51    43    1
     8    51    52    1
     9    43    42   ar
    10    10     3    1
    11    40    37    1
    12     8     9    3
    13    53    52    1
    14    54    52    1
    15    41    42   ar
    16    41    30    1
    17     9     2    1
    18    52    55    1
    19     3     2   ar
    20     3     4   ar
    21    39    37    1
    22    42    47    1
    23    31    30   ar
    24    31    27   ar
    25     2     1   ar
    26    37    38    1
    27    37    36    1
    28    30    29   ar
    29    21    13    1
    30    17    14    1
    31    13    14   ar
    32    13    15   ar
    33     4    15    1
    34     4     5   ar
    35    14    16   ar
    36    15    18   ar
    37    16    27    1
    38    16    19   ar
    39    18    20    1
    40    18    19   ar
    41    27    28   ar
    42    19    22    1
    43     1     5   ar
    44     1     7    1
    45    22    23    1
    46    49    47    1
    47    29    28   ar
    48    29    36    1
    49     5     6    1
    50    28    32    1
    51    47    50    1
    52    47    48    1
    53    34    32    1
    54    32    35    1
    55    32    33    1
    56    24    23    1
    57    23    26    1
    58    23    25    1
