@<TRIPOS>MOLECULE
mol_data/opt/b3lyp/geoms/mol2/13df12da13aa13ff.out
 38 41 0 0 0
SMALL
GASTEIGER

@<TRIPOS>ATOM
      1 C           1.1031   -0.1691    0.5989 C.ar    1  LIG1        0.0234
      2 C           0.7827    1.1256    0.2061 C.ar    1  LIG1        0.1111
      3 C          -0.6213    1.1556   -0.0666 C.ar    1  LIG1        0.1625
      4 C          -1.1187   -0.1337    0.1693 C.ar    1  LIG1        0.1267
      5 N          -0.0290   -0.9080    0.5717 N.ar    1  LIG1       -0.3541
      6 H          -0.1119   -1.8721    0.8503 H       1  LIG1        0.1656
      7 H           2.0547   -0.5821    0.8954 H       1  LIG1        0.0821
      8 N           2.4431    3.0927    0.0039 N.1     1  LIG1       -0.1907
      9 C           1.6879    2.2116    0.0919 C.1     1  LIG1        0.1043
     10 O          -1.2167    2.2706   -0.5196 O.3     1  LIG1       -0.5034
     11 H          -2.1843    2.2455   -0.4363 H       1  LIG1        0.2923
     12 C          -2.4086   -0.7405    0.0389 C.ar    1  LIG1        0.1727
     13 C          -3.7089   -0.2782   -0.0960 C.ar    1  LIG1        0.0996
     14 C          -4.5639   -1.4277   -0.1902 C.ar    1  LIG1        0.0037
     15 C          -3.7568   -2.5253   -0.0870 C.ar    1  LIG1        0.1531
     16 O          -2.4378   -2.1098    0.0499 O.2     1  LIG1       -0.4504
     17 N          -4.3413    2.2222   -0.1173 N.1     1  LIG1       -0.1907
     18 C          -4.0852    1.0834   -0.1099 C.1     1  LIG1        0.1030
     19 H          -5.6346   -1.4198   -0.3217 H       1  LIG1        0.0669
     20 C          -3.9878   -3.9402   -0.0872 C.ar    1  LIG1        0.0826
     21 C          -5.1676   -4.6733   -0.0056 C.ar    1  LIG1       -0.0328
     22 C          -4.8306   -6.0426   -0.0511 C.ar    1  LIG1       -0.0342
     23 C          -3.4451   -6.1385   -0.1591 C.ar    1  LIG1        0.0671
     24 N          -2.9510   -4.8510   -0.1910 N.ar    1  LIG1       -0.3505
     25 H          -1.9751   -4.6084   -0.1366 H       1  LIG1        0.1660
     26 H          -6.1605   -4.2547    0.0767 H       1  LIG1        0.0640
     27 H          -5.5058   -6.8841   -0.0173 H       1  LIG1        0.0639
     28 C          -2.5808   -7.2872   -0.2460 C.ar    1  LIG1        0.1086
     29 C          -2.7702   -8.5868    0.1870 C.ar    1  LIG1        0.1856
     30 C          -1.5924   -9.3268   -0.1201 C.ar    1  LIG1        0.1767
     31 C          -0.7043   -8.4800   -0.7383 C.ar    1  LIG1        0.0480
     32 N          -1.2842   -7.2156   -0.7675 N.ar    1  LIG1       -0.3535
     33 H          -1.0767   -6.5794   -1.5249 H       1  LIG1        0.1656
     34 H           0.2836   -8.6570   -1.1354 H       1  LIG1        0.0845
     35 O          -3.8648   -9.0628    0.8415 O.3     1  LIG1       -0.5019
     36 H          -3.6798   -9.9804    1.0882 H       1  LIG1        0.2924
     37 O          -1.4960  -10.6425    0.2474 O.3     1  LIG1       -0.5023
     38 H          -0.6173  -10.9790    0.0338 H       1  LIG1        0.2923
@<TRIPOS>BOND
     1    33    32    1
     2    34    31    1
     3    32    31   ar
     4    32    28   ar
     5    31    30   ar
     6    10    11    1
     7    10     3    1
     8    19    14    1
     9    28    23    1
    10    28    29   ar
    11    24    23   ar
    12    24    25    1
    13    24    20   ar
    14    14    13   ar
    15    14    15   ar
    16    23    22   ar
    17    30    29   ar
    18    30    37    1
    19    17    18    3
    20    18    13    1
    21    13    12   ar
    22    20    15    1
    23    20    21   ar
    24    15    16   ar
    25     3     4   ar
    26     3     2   ar
    27    22    27    1
    28    22    21   ar
    29    21    26    1
    30     8     9    3
    31    38    37    1
    32    12    16   ar
    33    12     4    1
    34     9     2    1
    35     4     5   ar
    36    29    35    1
    37     2     1   ar
    38     5     1   ar
    39     5     6    1
    40     1     7    1
    41    35    36    1
