@<TRIPOS>MOLECULE
mol_data/opt/b3lyp/geoms/mol2/13df13df-4df13df.out
 44 47 0 0 0
SMALL
GASTEIGER

@<TRIPOS>ATOM
      1 C           1.4144   -0.4652   -0.0330 C.ar    1  LIG1        0.0233
      2 C           1.0208    0.8689   -0.1407 C.ar    1  LIG1        0.1110
      3 C          -0.4061    0.8736   -0.1449 C.ar    1  LIG1        0.1609
      4 C          -0.8432   -0.4406   -0.0380 C.ar    1  LIG1        0.1076
      5 N           0.3005   -1.2315    0.0240 N.ar    1  LIG1       -0.3554
      6 H           0.2929   -2.2390    0.1033 H       1  LIG1        0.1655
      7 H           2.4055   -0.8891    0.0034 H       1  LIG1        0.0821
      8 N           2.4622    3.0024   -0.3058 N.1     1  LIG1       -0.1907
      9 C           1.8414    2.0195   -0.2305 C.1     1  LIG1        0.1043
     10 O          -1.2606    1.9155   -0.2517 O.3     1  LIG1       -0.5034
     11 H          -0.7954    2.7616   -0.1898 H       1  LIG1        0.2923
     12 C          -2.1842   -0.9456    0.0122 C.ar    1  LIG1        0.0882
     13 C          -2.6577   -2.2712    0.0864 C.ar    1  LIG1        0.1204
     14 C          -4.0788   -2.2054    0.1096 C.ar    1  LIG1        0.1601
     15 C          -4.4659   -0.8652    0.0538 C.ar    1  LIG1        0.0916
     16 N          -3.2729   -0.1367   -0.0059 N.ar    1  LIG1       -0.3489
     17 H          -3.2033    0.8746   -0.0398 H       1  LIG1        0.1661
     18 N          -1.2214   -4.4098    0.1710 N.1     1  LIG1       -0.1907
     19 C          -1.8782   -3.4443    0.1313 C.1     1  LIG1        0.1050
     20 O          -4.9206   -3.2689    0.1788 O.3     1  LIG1       -0.5034
     21 H          -4.3990   -4.0820    0.2410 H       1  LIG1        0.2923
     22 C          -6.0899    1.1048    0.1756 C.ar    1  LIG1        0.0618
     23 C          -7.4108    1.5720    0.1507 C.ar    1  LIG1       -0.0310
     24 C          -5.7986   -0.2842    0.0467 C.ar    1  LIG1        0.0228
     25 C          -8.5200    0.7286    0.0069 C.ar    1  LIG1        0.0423
     26 H          -7.5633    2.6385    0.2535 H       1  LIG1        0.0638
     27 C          -6.9143   -1.1288   -0.0972 C.ar    1  LIG1       -0.0091
     28 C          -8.2173   -0.6527   -0.1121 C.ar    1  LIG1        0.1267
     29 H          -6.7542   -2.1954   -0.2033 H       1  LIG1        0.0661
     30 N          -4.2377    2.8946    0.4956 N.1     1  LIG1       -0.1908
     31 C          -5.0697    2.0912    0.3531 C.1     1  LIG1        0.0998
     32 O          -9.2569   -1.5381   -0.2547 O.3     1  LIG1       -0.5061
     33 H          -8.9072   -2.4369   -0.3168 H       1  LIG1        0.2922
     34 C          -9.8806    1.2629   -0.0132 C.ar    1  LIG1        0.0713
     35 C         -10.3607    2.5898    0.0672 C.ar    1  LIG1        0.1184
     36 C         -11.7854    2.5316    0.0004 C.ar    1  LIG1        0.1520
     37 C         -12.1479    1.2072   -0.1171 C.ar    1  LIG1        0.0455
     38 N         -10.9870    0.4673   -0.1229 N.ar    1  LIG1       -0.3565
     39 H         -10.9218   -0.5362   -0.2006 H       1  LIG1        0.1655
     40 H         -13.1182    0.7421   -0.1959 H       1  LIG1        0.0845
     41 N          -9.0285    4.7889    0.2870 N.1     1  LIG1       -0.1907
     42 C          -9.6255    3.7926    0.1878 C.1     1  LIG1        0.1050
     43 O         -12.5592    3.6453    0.0510 O.3     1  LIG1       -0.5040
     44 H         -13.4893    3.3934   -0.0104 H       1  LIG1        0.2923
@<TRIPOS>BOND
     1    33    32    1
     2     8     9    3
     3    32    28    1
     4    10    11    1
     5    10     3    1
     6     9     2    1
     7    29    27    1
     8    39    38    1
     9    40    37    1
    10     3     2   ar
    11     3     4   ar
    12     2     1   ar
    13    38    37   ar
    14    38    34   ar
    15    37    36   ar
    16    28    27   ar
    17    28    25   ar
    18    27    24   ar
    19    17    16    1
    20     4    12    1
    21     4     5   ar
    22     1     7    1
    23     1     5   ar
    24    34    25    1
    25    34    35   ar
    26    44    43    1
    27    16    12   ar
    28    16    15   ar
    29    36    43    1
    30    36    35   ar
    31    25    23   ar
    32    12    13   ar
    33     5     6    1
    34    24    15    1
    35    24    22   ar
    36    15    14   ar
    37    35    42    1
    38    13    14   ar
    39    13    19    1
    40    14    20    1
    41    19    18    3
    42    23    22   ar
    43    23    26    1
    44    22    31    1
    45    20    21    1
    46    42    41    3
    47    31    30    3
