@<TRIPOS>MOLECULE
mol_data/opt/b3lyp/geoms/mol2/13df13aa12dd-13li.out
 44 47 0 0 0
SMALL
GASTEIGER

@<TRIPOS>ATOM
      1 C           1.3034    0.2282    0.5746 C.ar    1  LIG1        0.0233
      2 C           0.9346    1.2906   -0.2426 C.ar    1  LIG1        0.1110
      3 C          -0.4715    1.1657   -0.4746 C.ar    1  LIG1        0.1609
      4 C          -0.9199    0.0396    0.1994 C.ar    1  LIG1        0.1062
      5 N           0.1985   -0.5276    0.8136 N.ar    1  LIG1       -0.3554
      6 H           0.1467   -1.2532    1.5112 H       1  LIG1        0.1655
      7 H           2.2687   -0.0160    0.9897 H       1  LIG1        0.0821
      8 N           2.5172    3.1035   -1.1794 N.1     1  LIG1       -0.1907
      9 C           1.8001    2.2886   -0.7593 C.1     1  LIG1        0.1043
     10 O          -1.1791    2.0100   -1.2583 O.3     1  LIG1       -0.5034
     11 H          -2.0676    1.6441   -1.3869 H       1  LIG1        0.2923
     12 C          -2.2509   -0.5196    0.2463 C.ar    1  LIG1        0.0670
     13 C          -3.4875    0.1203    0.3242 C.ar    1  LIG1       -0.0342
     14 C          -4.4955   -0.8673    0.2847 C.ar    1  LIG1       -0.0327
     15 C          -3.8652   -2.1047    0.1893 C.ar    1  LIG1        0.0839
     16 N          -2.4989   -1.8741    0.1792 N.ar    1  LIG1       -0.3505
     17 H          -1.8146   -2.5726   -0.0655 H       1  LIG1        0.1660
     18 H          -3.6320    1.1819    0.4689 H       1  LIG1        0.0639
     19 H          -5.5622   -0.7114    0.3482 H       1  LIG1        0.0640
     20 C          -4.4003   -3.4288    0.1108 C.ar    1  LIG1        0.1704
     21 C          -5.6782   -3.9372    0.0141 C.ar    1  LIG1        0.1169
     22 C          -5.5528   -5.3800   -0.0405 C.ar    1  LIG1        0.1170
     23 C          -4.1996   -5.6605    0.0091 C.ar    1  LIG1        0.1740
     24 O          -3.5064   -4.4710    0.1058 O.2     1  LIG1       -0.4491
     25 N          -7.8391   -2.5297   -0.0302 N.1     1  LIG1       -0.1907
     26 C          -6.8729   -3.1800   -0.0136 C.1     1  LIG1        0.1043
     27 N          -7.5702   -6.9869   -0.0385 N.1     1  LIG1       -0.1907
     28 C          -6.6406   -6.2861   -0.0568 C.1     1  LIG1        0.1043
     29 C          -3.3989   -6.8439    0.0064 C.ar    1  LIG1        0.1259
     30 C          -3.6711   -8.1581   -0.3892 C.ar    1  LIG1        0.1512
     31 C          -2.4906   -8.9369   -0.2157 C.ar    1  LIG1        0.0092
     32 C          -1.5316   -8.0690    0.2794 C.ar    1  LIG1        0.0088
     33 N          -2.0698   -6.8196    0.3976 N.ar    1  LIG1       -0.3550
     34 H          -1.6033   -6.0068    0.7631 H       1  LIG1        0.1655
     35 H          -0.5008   -8.2600    0.5403 H       1  LIG1        0.0811
     36 O          -4.8484   -8.5299   -0.9556 O.3     1  LIG1       -0.4926
     37 C          -5.5812   -9.5751   -0.3012 C.3     1  LIG1        0.0789
     38 H          -6.5444   -9.6272   -0.8078 H       1  LIG1        0.0660
     39 H          -5.0659  -10.5378   -0.3835 H       1  LIG1        0.0660
     40 H          -5.7472   -9.3327    0.7534 H       1  LIG1        0.0660
     41 C          -2.2940  -10.3848   -0.5561 C.3     1  LIG1       -0.0348
     42 H          -1.2298  -10.6339   -0.5932 H       1  LIG1        0.0279
     43 H          -2.7259  -10.6204   -1.5342 H       1  LIG1        0.0279
     44 H          -2.7610  -11.0527    0.1773 H       1  LIG1        0.0279
@<TRIPOS>BOND
     1    43    41    1
     2    11    10    1
     3    10     3    1
     4     8     9    3
     5    36    30    1
     6    36    37    1
     7    38    37    1
     8     9     2    1
     9    42    41    1
    10    41    31    1
    11    41    44    1
    12     3     2   ar
    13     3     4   ar
    14    30    31   ar
    15    30    29   ar
    16    39    37    1
    17    37    40    1
    18     2     1   ar
    19    31    32   ar
    20    17    16    1
    21    28    22    1
    22    28    27    3
    23    22    23   ar
    24    22    21   ar
    25    25    26    3
    26    26    21    1
    27    29    23    1
    28    29    33   ar
    29    23    24   ar
    30    21    20   ar
    31    24    20   ar
    32    20    15    1
    33    16    15   ar
    34    16    12   ar
    35    15    14   ar
    36     4    12    1
    37     4     5   ar
    38    12    13   ar
    39    32    33   ar
    40    32    35    1
    41    14    13   ar
    42    14    19    1
    43    13    18    1
    44    33    34    1
    45     1     5   ar
    46     1     7    1
    47     5     6    1
