@<TRIPOS>MOLECULE
mol_data/opt/b3lyp/geoms/mol2/13df13df13df13df.out
 42 45 0 0 0
SMALL
GASTEIGER

@<TRIPOS>ATOM
      1 C           0.8922    0.0388   -1.4225 C.ar    1  LIG1        0.0233
      2 C           0.8656    0.9868   -0.4125 C.ar    1  LIG1        0.1110
      3 C          -0.4172    0.9007    0.2238 C.ar    1  LIG1        0.1609
      4 C          -1.1302   -0.1178   -0.4110 C.ar    1  LIG1        0.1076
      5 N          -0.2890   -0.6377   -1.4031 N.ar    1  LIG1       -0.3554
      6 H          -0.6270   -1.1692   -2.1917 H       1  LIG1        0.1655
      7 H           1.6602   -0.1709   -2.1507 H       1  LIG1        0.0821
      8 N           2.7942    2.5894    0.2063 N.1     1  LIG1       -0.1907
      9 C           1.9209    1.8706   -0.0664 C.1     1  LIG1        0.1043
     10 O          -0.7276    1.6451    1.2993 O.3     1  LIG1       -0.5034
     11 H          -1.6739    1.8717    1.3247 H       1  LIG1        0.2923
     12 C          -2.4031   -0.7261   -0.1194 C.ar    1  LIG1        0.0882
     13 C          -3.5929   -0.1732    0.3774 C.ar    1  LIG1        0.1205
     14 C          -4.5759   -1.2081    0.4427 C.ar    1  LIG1        0.1616
     15 C          -3.9752   -2.3849   -0.0067 C.ar    1  LIG1        0.1081
     16 N          -2.6549   -2.0525   -0.3371 N.ar    1  LIG1       -0.3478
     17 H          -1.9960   -2.6882   -0.7579 H       1  LIG1        0.1661
     18 N          -3.7802    2.3160    1.0134 N.1     1  LIG1       -0.1907
     19 C          -3.7514    1.1854    0.7266 C.1     1  LIG1        0.1050
     20 O          -5.8040   -0.9862    0.9405 O.3     1  LIG1       -0.5034
     21 H          -6.4783   -1.5408    0.5093 H       1  LIG1        0.2923
     22 C          -4.4388   -3.7475   -0.0434 C.ar    1  LIG1        0.0883
     23 C          -5.7142   -4.2726   -0.3026 C.ar    1  LIG1        0.1205
     24 C          -5.6335   -5.6981   -0.2444 C.ar    1  LIG1        0.1616
     25 C          -4.3120   -6.0303    0.0528 C.ar    1  LIG1        0.1080
     26 N          -3.6151   -4.8207    0.1606 N.ar    1  LIG1       -0.3478
     27 H          -2.6328   -4.7568    0.3754 H       1  LIG1        0.1661
     28 N          -7.7352   -2.7488   -0.7789 N.1     1  LIG1       -0.1907
     29 C          -6.8505   -3.4845   -0.5845 C.1     1  LIG1        0.1050
     30 O          -6.7196   -6.4756   -0.3977 O.3     1  LIG1       -0.5034
     31 H          -6.5029   -7.3249   -0.8212 H       1  LIG1        0.2923
     32 C          -3.6706   -7.2897    0.3356 C.ar    1  LIG1        0.0878
     33 C          -3.9168   -8.5730   -0.1720 C.ar    1  LIG1        0.1198
     34 C          -3.0079   -9.4752    0.4720 C.ar    1  LIG1        0.1521
     35 C          -2.2294   -8.7391    1.3316 C.ar    1  LIG1        0.0455
     36 N          -2.6299   -7.4094    1.2208 N.ar    1  LIG1       -0.3553
     37 H          -2.4119   -6.7111    1.9149 H       1  LIG1        0.1655
     38 H          -1.4262   -9.0328    1.9889 H       1  LIG1        0.0845
     39 N          -5.7247   -9.0162   -1.9517 N.1     1  LIG1       -0.1907
     40 C          -4.8822   -8.8646   -1.1579 C.1     1  LIG1        0.1050
     41 O          -2.9879  -10.7983    0.1832 O.3     1  LIG1       -0.5040
     42 H          -2.3206  -11.2409    0.7235 H       1  LIG1        0.2923
@<TRIPOS>BOND
     1     6     5    1
     2     7     1    1
     3    39    40    3
     4     1     5   ar
     5     1     2   ar
     6     5     4   ar
     7    40    33    1
     8    31    30    1
     9    28    29    3
    10    17    16    1
    11    29    23    1
    12     2     9    1
    13     2     3   ar
    14     4    12    1
    15     4     3   ar
    16    30    24    1
    17    16    12   ar
    18    16    15   ar
    19    23    24   ar
    20    23    22   ar
    21    24    25   ar
    22    33    32   ar
    23    33    34   ar
    24    12    13   ar
    25     9     8    3
    26    22    15    1
    27    22    26   ar
    28    15    14   ar
    29    25    26   ar
    30    25    32    1
    31    26    27    1
    32    41    34    1
    33    41    42    1
    34     3    10    1
    35    32    36   ar
    36    13    14   ar
    37    13    19    1
    38    14    20    1
    39    34    35   ar
    40    21    20    1
    41    19    18    3
    42    36    35   ar
    43    36    37    1
    44    10    11    1
    45    35    38    1
