@<TRIPOS>MOLECULE
mol_data/opt/b3lyp/geoms/mol2/13df13df.out
 22 23 0 0 0
SMALL
GASTEIGER

@<TRIPOS>ATOM
      1 C           1.1659   -0.3172   -0.3281 C.ar    1  LIG1        0.0233
      2 C           0.8021    0.9572    0.0799 C.ar    1  LIG1        0.1110
      3 C          -0.6245    0.9700    0.2277 C.ar    1  LIG1        0.1609
      4 C          -1.0876   -0.3089   -0.0831 C.ar    1  LIG1        0.1076
      5 N           0.0385   -1.0734   -0.4050 N.ar    1  LIG1       -0.3554
      6 H          -0.0118   -1.9568   -0.8888 H       1  LIG1        0.1655
      7 H           2.1390   -0.7100   -0.5784 H       1  LIG1        0.0821
      8 N           2.4212    2.9243    0.5037 N.1     1  LIG1       -0.1907
      9 C           1.6853    2.0425    0.3161 C.1     1  LIG1        0.1043
     10 O          -1.2829    2.0511    0.6859 O.3     1  LIG1       -0.5034
     11 H          -2.1707    2.1271    0.2954 H       1  LIG1        0.2923
     12 C          -2.3952   -0.9129   -0.0125 C.ar    1  LIG1        0.0878
     13 C          -3.6726   -0.3655   -0.1993 C.ar    1  LIG1        0.1198
     14 C          -4.6273   -1.4123    0.0204 C.ar    1  LIG1        0.1521
     15 C          -3.9302   -2.5581    0.3166 C.ar    1  LIG1        0.0455
     16 N          -2.5749   -2.2405    0.2722 N.ar    1  LIG1       -0.3553
     17 H          -1.8521   -2.8223    0.6663 H       1  LIG1        0.1655
     18 H          -4.2691   -3.5590    0.5327 H       1  LIG1        0.0845
     19 N          -4.0411    2.1025   -0.8377 N.1     1  LIG1       -0.1907
     20 C          -3.9219    0.9739   -0.5633 C.1     1  LIG1        0.1050
     21 O          -5.9615   -1.2029   -0.0984 O.3     1  LIG1       -0.5040
     22 H          -6.4365   -2.0232    0.0866 H       1  LIG1        0.2923
@<TRIPOS>BOND
     1     6     5    1
     2    19    20    3
     3     7     1    1
     4    20    13    1
     5     5     1   ar
     6     5     4   ar
     7     1     2   ar
     8    13    12   ar
     9    13    14   ar
    10    21    14    1
    11    21    22    1
    12     4    12    1
    13     4     3   ar
    14    12    16   ar
    15    14    15   ar
    16     2     3   ar
    17     2     9    1
    18     3    10    1
    19    16    15   ar
    20    16    17    1
    21    11    10    1
    22     9     8    3
    23    15    18    1
