@<TRIPOS>MOLECULE
mol_data/opt/b3lyp/geoms/mol2/13df13df13df.out
 32 34 0 0 0
SMALL
GASTEIGER

@<TRIPOS>ATOM
      1 C           1.2115   -0.2958    0.0876 C.ar    1  LIG1        0.0233
      2 C           0.8326    0.9782   -0.3081 C.ar    1  LIG1        0.1110
      3 C          -0.5998    1.0272   -0.2855 C.ar    1  LIG1        0.1609
      4 C          -1.0543   -0.2341    0.1138 C.ar    1  LIG1        0.1076
      5 N           0.0857   -1.0208    0.3160 N.ar    1  LIG1       -0.3554
      6 H           0.0709   -1.8925    0.8224 H       1  LIG1        0.1655
      7 H           2.1986   -0.7067    0.2324 H       1  LIG1        0.0821
      8 N           2.4376    2.8900   -0.9705 N.1     1  LIG1       -0.1907
      9 C           1.7074    2.0337   -0.6750 C.1     1  LIG1        0.1043
     10 O          -1.2728    2.1154   -0.6923 O.3     1  LIG1       -0.5034
     11 H          -2.1331    2.2076   -0.2465 H       1  LIG1        0.2923
     12 C          -2.3662   -0.8120    0.2148 C.ar    1  LIG1        0.0882
     13 C          -3.6140   -0.2343    0.4620 C.ar    1  LIG1        0.1205
     14 C          -4.6102   -1.2639    0.3804 C.ar    1  LIG1        0.1616
     15 C          -3.9524   -2.4598    0.1138 C.ar    1  LIG1        0.1080
     16 N          -2.5748   -2.1646    0.0470 N.ar    1  LIG1       -0.3478
     17 H          -1.9663   -2.6969   -0.5609 H       1  LIG1        0.1661
     18 N          -3.8983    2.2695    0.9973 N.1     1  LIG1       -0.1907
     19 C          -3.8197    1.1270    0.7730 C.1     1  LIG1        0.1050
     20 O          -5.8983   -1.0000    0.6490 O.3     1  LIG1       -0.5034
     21 H          -6.5039   -1.6110    0.1922 H       1  LIG1        0.2923
     22 C          -4.4037   -3.8239    0.0276 C.ar    1  LIG1        0.0878
     23 C          -5.6426   -4.3679   -0.3474 C.ar    1  LIG1        0.1198
     24 C          -5.5427   -5.7927   -0.2266 C.ar    1  LIG1        0.1521
     25 C          -4.2695   -6.0886    0.1956 C.ar    1  LIG1        0.0455
     26 N          -3.5861   -4.8820    0.3238 N.ar    1  LIG1       -0.3553
     27 H          -2.7135   -4.7810    0.8178 H       1  LIG1        0.1655
     28 H          -3.7891   -7.0339    0.3928 H       1  LIG1        0.0845
     29 N          -7.6201   -2.9046   -1.1079 N.1     1  LIG1       -0.1907
     30 C          -6.7484   -3.6108   -0.7836 C.1     1  LIG1        0.1050
     31 O          -6.5795   -6.6110   -0.5295 O.3     1  LIG1       -0.5040
     32 H          -6.3202   -7.5309   -0.3903 H       1  LIG1        0.2923
@<TRIPOS>BOND
     1    29    30    3
     2     8     9    3
     3    30    23    1
     4    10     3    1
     5    10    11    1
     6     9     2    1
     7    17    16    1
     8    31    32    1
     9    31    24    1
    10    23    24   ar
    11    23    22   ar
    12     2     3   ar
    13     2     1   ar
    14     3     4   ar
    15    24    25   ar
    16    22    15    1
    17    22    26   ar
    18    16    15   ar
    19    16    12   ar
    20     1     7    1
    21     1     5   ar
    22    15    14   ar
    23     4    12    1
    24     4     5   ar
    25    21    20    1
    26    25    26   ar
    27    25    28    1
    28    12    13   ar
    29     5     6    1
    30    26    27    1
    31    14    13   ar
    32    14    20    1
    33    13    19    1
    34    19    18    3
