@<TRIPOS>MOLECULE
mol_data/opt/b3lyp/geoms/mol2/13df13df-13df.out
 32 34 0 0 0
SMALL
GASTEIGER

@<TRIPOS>ATOM
      1 C           1.2333   -0.3215   -0.0099 C.ar    1  LIG1        0.0233
      2 C           0.8554    1.0158   -0.0035 C.ar    1  LIG1        0.1110
      3 C          -0.5735    1.0541    0.0031 C.ar    1  LIG1        0.1609
      4 C          -1.0293   -0.2737   -0.0004 C.ar    1  LIG1        0.1076
      5 N           0.1142   -1.0767   -0.0076 N.ar    1  LIG1       -0.3554
      6 H           0.0988   -2.0867   -0.0109 H       1  LIG1        0.1655
      7 H           2.2199   -0.7575   -0.0155 H       1  LIG1        0.0821
      8 N           2.4546    3.0431   -0.0017 N.1     1  LIG1       -0.1907
      9 C           1.7273    2.1344   -0.0025 C.1     1  LIG1        0.1043
     10 O          -1.2020    2.2483    0.0113 O.3     1  LIG1       -0.5034
     11 H          -2.1686    2.2327    0.0288 H       1  LIG1        0.2923
     12 C          -2.3402   -0.8624    0.0005 C.ar    1  LIG1        0.0882
     13 C          -2.7431   -2.2215    0.0048 C.ar    1  LIG1        0.1205
     14 C          -4.1715   -2.2406    0.0039 C.ar    1  LIG1        0.1616
     15 C          -4.6210   -0.9329   -0.0003 C.ar    1  LIG1        0.1080
     16 N          -3.4826   -0.1311   -0.0031 N.ar    1  LIG1       -0.3478
     17 H          -3.5438    0.8749   -0.0142 H       1  LIG1        0.1661
     18 N          -1.2244   -4.3042    0.0135 N.1     1  LIG1       -0.1907
     19 C          -1.9128   -3.3601    0.0100 C.1     1  LIG1        0.1050
     20 O          -5.0036   -3.3166    0.0075 O.3     1  LIG1       -0.5034
     21 H          -4.4848   -4.1333    0.0110 H       1  LIG1        0.2923
     22 C          -5.9448   -0.3817   -0.0007 C.ar    1  LIG1        0.0878
     23 C          -6.3553    0.9683    0.0017 C.ar    1  LIG1        0.1198
     24 C          -7.7864    0.9743    0.0008 C.ar    1  LIG1        0.1521
     25 C          -8.2080   -0.3357   -0.0020 C.ar    1  LIG1        0.0455
     26 N          -7.0740   -1.1392   -0.0027 N.ar    1  LIG1       -0.3553
     27 H          -7.0610   -2.1486   -0.0040 H       1  LIG1        0.1655
     28 H          -9.1998   -0.7588   -0.0034 H       1  LIG1        0.0845
     29 N          -4.5363    2.7826    0.0121 N.1     1  LIG1       -0.1907
     30 C          -5.4378    2.0383    0.0074 C.1     1  LIG1        0.1050
     31 O          -8.5025    2.1264    0.0028 O.3     1  LIG1       -0.5040
     32 H          -9.4463    1.9215    0.0022 H       1  LIG1        0.2923
@<TRIPOS>BOND
     1     7     1    1
     2    17    16    1
     3     6     5    1
     4     1     5   ar
     5     1     2   ar
     6     5     4   ar
     7    27    26    1
     8     2     9    1
     9     2     3   ar
    10    28    25    1
    11    16    15   ar
    12    16    12   ar
    13    26    25   ar
    14    26    22   ar
    15     9     8    3
    16    25    24   ar
    17    22    15    1
    18    22    23   ar
    19     4    12    1
    20     4     3   ar
    21    15    14   ar
    22    12    13   ar
    23    24    23   ar
    24    24    31    1
    25    23    30    1
    26    32    31    1
    27     3    10    1
    28    14    13   ar
    29    14    20    1
    30    13    19    1
    31    30    29    3
    32    20    21    1
    33    19    18    3
    34    10    11    1
