@<TRIPOS>MOLECULE
mol_data/opt/b3lyp/geoms/mol2/13df4ie-4fh13af-.out
 49 52 0 0 0
SMALL
GASTEIGER

@<TRIPOS>ATOM
      1 C           1.3337   -0.0918    0.4787 C.ar    1  LIG1        0.0233
      2 C           0.9780    1.1259   -0.0919 C.ar    1  LIG1        0.1109
      3 C          -0.4332    1.0741   -0.3237 C.ar    1  LIG1        0.1594
      4 C          -0.9043   -0.1512    0.1179 C.ar    1  LIG1        0.0901
      5 N           0.2111   -0.8482    0.5775 N.ar    1  LIG1       -0.3565
      6 H           0.1572   -1.7544    1.0153 H       1  LIG1        0.1655
      7 H           2.2982   -0.4414    0.8118 H       1  LIG1        0.0821
      8 N           2.5830    3.0678   -0.6582 N.1     1  LIG1       -0.1907
      9 C           1.8565    2.1941   -0.4043 C.1     1  LIG1        0.1043
     10 O          -1.1250    2.0835   -0.9188 O.3     1  LIG1       -0.5034
     11 H          -1.9573    1.7283   -1.2602 H       1  LIG1        0.2923
     12 C          -3.3813   -0.1028    0.6173 C.ar    1  LIG1       -0.0406
     13 C          -4.6211   -0.7361    0.5084 C.ar    1  LIG1       -0.0492
     14 C          -2.2464   -0.7513    0.0690 C.ar    1  LIG1        0.0060
     15 C          -4.8023   -1.9929   -0.0854 C.ar    1  LIG1        0.0013
     16 H          -5.4916   -0.2410    0.9247 H       1  LIG1        0.0627
     17 C          -2.4094   -2.0070   -0.5279 C.ar    1  LIG1       -0.0363
     18 C          -3.6577   -2.6449   -0.6122 C.ar    1  LIG1        0.0331
     19 H          -1.5503   -2.4983   -0.9740 H       1  LIG1        0.0637
     20 C          -3.2725    1.2061    1.3638 C.3     1  LIG1       -0.0391
     21 H          -4.2205    1.4544    1.8465 H       1  LIG1        0.0278
     22 H          -2.9972    2.0437    0.7146 H       1  LIG1        0.0278
     23 H          -2.4966    1.1520    2.1348 H       1  LIG1        0.0278
     24 C          -3.7172   -3.9078   -1.2829 C.1     1  LIG1       -0.0690
     25 C          -3.6995   -4.9681   -1.8669 C.1     1  LIG1       -0.1139
     26 H          -3.7051   -5.8941   -2.3935 H       1  LIG1        0.1232
     27 C          -7.2848   -1.9015   -0.5699 C.ar    1  LIG1        0.1253
     28 C          -8.5418   -2.4986   -0.5459 C.ar    1  LIG1       -0.0087
     29 C          -6.1541   -2.6074   -0.1129 C.ar    1  LIG1        0.0265
     30 C          -8.7460   -3.8065   -0.0777 C.ar    1  LIG1        0.0225
     31 H          -9.4052   -1.9213   -0.8666 H       1  LIG1        0.0661
     32 C          -6.3585   -3.9196    0.3342 C.ar    1  LIG1       -0.0292
     33 C          -7.6105   -4.5325    0.3581 C.ar    1  LIG1        0.0346
     34 H          -5.4972   -4.4870    0.6733 H       1  LIG1        0.0643
     35 O          -7.1115   -0.6203   -1.0294 O.3     1  LIG1       -0.5061
     36 H          -7.9630   -0.2869   -1.3409 H       1  LIG1        0.2922
     37 N          -7.7501   -5.8613    0.8573 N.pl3   1  LIG1       -0.3574
     38 H          -8.2070   -6.4677    0.1796 H       1  LIG1        0.1423
     39 H          -6.8462   -6.2623    1.0842 H       1  LIG1        0.1423
     40 C         -10.1050   -4.3474   -0.0438 C.ar    1  LIG1        0.0519
     41 C         -11.2421   -3.9617   -0.7504 C.ar    1  LIG1        0.0052
     42 C         -12.3180   -4.7522   -0.2831 C.ar    1  LIG1        0.1347
     43 C         -11.8336   -5.6046    0.6951 C.ar    1  LIG1        0.0441
     44 N         -10.4846   -5.3564    0.8143 N.ar    1  LIG1       -0.3575
     45 H          -9.8495   -5.7614    1.4882 H       1  LIG1        0.1654
     46 H         -12.3275   -6.3625    1.2847 H       1  LIG1        0.0844
     47 H         -11.2984   -3.2205   -1.5335 H       1  LIG1        0.0675
     48 O         -13.5905   -4.6482   -0.7750 O.3     1  LIG1       -0.5053
     49 H         -14.1542   -5.2838   -0.3168 H       1  LIG1        0.2922
@<TRIPOS>BOND
     1    26    25    1
     2    25    24    3
     3    47    41    1
     4    36    35    1
     5    24    18    1
     6    11    10    1
     7    35    27    1
     8    19    17    1
     9    10     3    1
    10    31    28    1
    11    48    49    1
    12    48    42    1
    13    41    42   ar
    14    41    40   ar
    15     8     9    3
    16    18    17   ar
    17    18    15   ar
    18    27    28   ar
    19    27    29   ar
    20    28    30   ar
    21    17    14   ar
    22     9     2    1
    23     3     2   ar
    24     3     4   ar
    25    42    43   ar
    26    29    15    1
    27    29    32   ar
    28     2     1   ar
    29    15    13   ar
    30    30    40    1
    31    30    33   ar
    32    40    44   ar
    33    14     4    1
    34    14    12   ar
    35     4     5   ar
    36    38    37    1
    37    32    33   ar
    38    32    34    1
    39    33    37    1
    40     1     5   ar
    41     1     7    1
    42    13    12   ar
    43    13    16    1
    44     5     6    1
    45    12    20    1
    46    43    44   ar
    47    43    46    1
    48    22    20    1
    49    44    45    1
    50    37    39    1
    51    20    21    1
    52    20    23    1
