@<TRIPOS>MOLECULE
mol_data/opt/b3lyp/geoms/mol2/13df13df13df-13df-.out
 42 45 0 0 0
SMALL
GASTEIGER

@<TRIPOS>ATOM
      1 C           1.2336   -0.1887    0.3913 C.ar    1  LIG1        0.0233
      2 C           0.9231    1.0041   -0.2477 C.ar    1  LIG1        0.1110
      3 C          -0.4937    1.0255   -0.4449 C.ar    1  LIG1        0.1609
      4 C          -1.0095   -0.1662    0.0765 C.ar    1  LIG1        0.1076
      5 N           0.0848   -0.8854    0.5703 N.ar    1  LIG1       -0.3554
      6 H           0.0122   -1.7116    1.1450 H       1  LIG1        0.1655
      7 H           2.1870   -0.5576    0.7359 H       1  LIG1        0.0821
      8 N           2.6044    2.8359   -0.9450 N.1     1  LIG1       -0.1907
      9 C           1.8425    2.0130   -0.6350 C.1     1  LIG1        0.1043
     10 O          -1.0923    2.0306   -1.1087 O.3     1  LIG1       -0.5034
     11 H          -2.0267    2.1320   -0.8687 H       1  LIG1        0.2923
     12 C          -2.3242   -0.7458    0.0659 C.ar    1  LIG1        0.0882
     13 C          -3.6054   -0.1588   -0.0111 C.ar    1  LIG1        0.1205
     14 C          -4.5606   -1.2184    0.0137 C.ar    1  LIG1        0.1616
     15 C          -3.8773   -2.4170    0.1232 C.ar    1  LIG1        0.1081
     16 N          -2.5203   -2.0933    0.1564 N.ar    1  LIG1       -0.3478
     17 H          -1.7877   -2.7859    0.0798 H       1  LIG1        0.1661
     18 N          -4.1563    2.3568   -0.0959 N.1     1  LIG1       -0.1907
     19 C          -3.9056    1.2165   -0.0493 C.1     1  LIG1        0.1050
     20 O          -5.9174   -1.1351   -0.0299 O.3     1  LIG1       -0.5034
     21 H          -6.1888   -0.2134   -0.1443 H       1  LIG1        0.2923
     22 C          -4.3750   -3.7565    0.2058 C.ar    1  LIG1        0.0883
     23 C          -3.6875   -4.9784    0.3517 C.ar    1  LIG1        0.1205
     24 C          -4.6657   -6.0222    0.3390 C.ar    1  LIG1        0.1616
     25 C          -5.9125   -5.4362    0.1856 C.ar    1  LIG1        0.1080
     26 N          -5.7015   -4.0560    0.1282 N.ar    1  LIG1       -0.3478
     27 H          -6.4029   -3.3696   -0.1120 H       1  LIG1        0.1661
     28 N          -1.1309   -5.1196    0.6426 N.1     1  LIG1       -0.1907
     29 C          -2.2922   -5.0985    0.5154 C.1     1  LIG1        0.1050
     30 O          -4.4729   -7.3475    0.5130 O.3     1  LIG1       -0.5034
     31 H          -3.5395   -7.5690    0.3936 H       1  LIG1        0.2923
     32 C          -7.2308   -6.0188    0.1379 C.ar    1  LIG1        0.0878
     33 C          -7.6889   -7.2126   -0.4372 C.ar    1  LIG1        0.1198
     34 C          -9.1010   -7.2914   -0.1918 C.ar    1  LIG1        0.1521
     35 C          -9.4708   -6.1666    0.5055 C.ar    1  LIG1        0.0455
     36 N          -8.3271   -5.4014    0.6810 N.ar    1  LIG1       -0.3553
     37 H          -8.2698   -4.6125    1.3057 H       1  LIG1        0.1655
     38 H         -10.4343   -5.8530    0.8714 H       1  LIG1        0.0845
     39 N          -6.4759   -8.9886   -1.8575 N.1     1  LIG1       -0.1907
     40 C          -6.9743   -8.1614   -1.2041 C.1     1  LIG1        0.1050
     41 O          -9.9416   -8.2772   -0.5883 O.3     1  LIG1       -0.5040
     42 H          -9.4343   -8.9466   -1.0697 H       1  LIG1        0.2923
@<TRIPOS>BOND
     1    39    40    3
     2    40    33    1
     3    10    11    1
     4    10     3    1
     5    42    41    1
     6     8     9    3
     7     9     2    1
     8    41    34    1
     9     3     2   ar
    10     3     4   ar
    11    33    34   ar
    12    33    32   ar
    13     2     1   ar
    14    34    35   ar
    15    21    20    1
    16    27    26    1
    17    18    19    3
    18    19    13    1
    19    20    14    1
    20    13    14   ar
    21    13    12   ar
    22    14    15   ar
    23    12     4    1
    24    12    16   ar
    25     4     5   ar
    26    17    16    1
    27    15    16   ar
    28    15    22    1
    29    26    25   ar
    30    26    22   ar
    31    32    25    1
    32    32    36   ar
    33    25    24   ar
    34    22    23   ar
    35    24    23   ar
    36    24    30    1
    37    23    29    1
    38     1     5   ar
    39     1     7    1
    40    31    30    1
    41    35    36   ar
    42    35    38    1
    43    29    28    3
    44     5     6    1
    45    36    37    1
