@<TRIPOS>MOLECULE
mol_data/opt/b3lyp/geoms/mol2/13df13df13df13df-.out
 42 45 0 0 0
SMALL
GASTEIGER

@<TRIPOS>ATOM
      1 C           1.1535   -0.5706    0.0709 C.ar    1  LIG1        0.0233
      2 C           0.8768    0.7682    0.3150 C.ar    1  LIG1        0.1110
      3 C          -0.5433    0.9316    0.2418 C.ar    1  LIG1        0.1609
      4 C          -1.0949   -0.3255   -0.0371 C.ar    1  LIG1        0.1076
      5 N          -0.0198   -1.2197   -0.1227 N.ar    1  LIG1       -0.3554
      6 H          -0.0914   -2.1622   -0.4791 H       1  LIG1        0.1655
      7 H           2.1047   -1.0758    0.0063 H       1  LIG1        0.0821
      8 N           2.6216    2.6054    0.8144 N.1     1  LIG1       -0.1907
      9 C           1.8294    1.7829    0.5909 C.1     1  LIG1        0.1043
     10 O          -1.1266    2.1114    0.5022 O.3     1  LIG1       -0.5034
     11 H          -2.0002    2.1985    0.0831 H       1  LIG1        0.2923
     12 C          -2.4427   -0.8106   -0.1184 C.ar    1  LIG1        0.0882
     13 C          -3.6614   -0.1798   -0.4075 C.ar    1  LIG1        0.1205
     14 C          -4.7041   -1.1583   -0.3100 C.ar    1  LIG1        0.1616
     15 C          -4.1099   -2.3748    0.0133 C.ar    1  LIG1        0.1081
     16 N          -2.7246   -2.1354    0.1040 N.ar    1  LIG1       -0.3478
     17 H          -2.1327   -2.6952    0.7034 H       1  LIG1        0.1661
     18 N          -3.8345    2.3051   -1.0650 N.1     1  LIG1       -0.1907
     19 C          -3.8024    1.1735   -0.7816 C.1     1  LIG1        0.1050
     20 O          -5.9757   -0.8432   -0.6021 O.3     1  LIG1       -0.5034
     21 H          -6.6064   -1.5090   -0.2831 H       1  LIG1        0.2923
     22 C          -4.5739   -3.7285    0.0850 C.ar    1  LIG1        0.0883
     23 C          -5.8406   -4.3138    0.2996 C.ar    1  LIG1        0.1205
     24 C          -5.6598   -5.7326    0.2728 C.ar    1  LIG1        0.1616
     25 C          -4.3168   -5.9947    0.0626 C.ar    1  LIG1        0.1080
     26 N          -3.6889   -4.7567   -0.0419 N.ar    1  LIG1       -0.3478
     27 H          -2.7359   -4.6437   -0.3578 H       1  LIG1        0.1661
     28 N          -8.0381   -3.0270    0.6904 N.1     1  LIG1       -0.1907
     29 C          -7.0461   -3.6218    0.5229 C.1     1  LIG1        0.1050
     30 O          -6.5894   -6.7105    0.4393 O.3     1  LIG1       -0.5034
     31 H          -7.4609   -6.3194    0.5918 H       1  LIG1        0.2923
     32 C          -3.5915   -7.2274   -0.0233 C.ar    1  LIG1        0.0878
     33 C          -2.2054   -7.4485   -0.1837 C.ar    1  LIG1        0.1198
     34 C          -2.0053   -8.8706   -0.2057 C.ar    1  LIG1        0.1521
     35 C          -3.2365   -9.4643   -0.0617 C.ar    1  LIG1        0.0455
     36 N          -4.1779   -8.4513    0.0457 N.ar    1  LIG1       -0.3553
     37 H          -5.1718   -8.5787    0.1696 H       1  LIG1        0.1655
     38 H          -3.5077  -10.5062   -0.0283 H       1  LIG1        0.0845
     39 N          -0.5084   -5.5174   -0.3661 N.1     1  LIG1       -0.1907
     40 C          -1.2405   -6.4269   -0.2865 C.1     1  LIG1        0.1050
     41 O          -0.8349   -9.5426   -0.3399 O.3     1  LIG1       -0.5040
     42 H          -0.1084   -8.9126   -0.4337 H       1  LIG1        0.2923
@<TRIPOS>BOND
     1    18    19    3
     2    19    13    1
     3    20    14    1
     4    20    21    1
     5     6     5    1
     6    42    41    1
     7    13    14   ar
     8    13    12   ar
     9    39    40    3
    10    27    26    1
    11    41    34    1
    12    14    15   ar
    13    40    33    1
    14    34    33   ar
    15    34    35   ar
    16    33    32   ar
    17     5     4   ar
    18     5     1   ar
    19    12     4    1
    20    12    16   ar
    21    35    38    1
    22    35    36   ar
    23    26    25   ar
    24    26    22   ar
    25     4     3   ar
    26    32    36   ar
    27    32    25    1
    28     7     1    1
    29    15    22    1
    30    15    16   ar
    31    36    37    1
    32    25    24   ar
    33     1     2   ar
    34    11    10    1
    35    22    23   ar
    36    16    17    1
    37     3     2   ar
    38     3    10    1
    39    24    23   ar
    40    24    30    1
    41    23    29    1
    42     2     9    1
    43    30    31    1
    44    29    28    3
    45     9     8    3
