@<TRIPOS>MOLECULE
mol_data/opt/b3lyp/geoms/mol2/13df13df-13df13df-.out
 42 45 0 0 0
SMALL
GASTEIGER

@<TRIPOS>ATOM
      1 C           1.3159   -0.3242   -0.0066 C.ar    1  LIG1        0.0233
      2 C           0.8843    1.0025   -0.0072 C.ar    1  LIG1        0.1110
      3 C          -0.5417    0.9671   -0.0054 C.ar    1  LIG1        0.1609
      4 C          -0.9419   -0.3628   -0.0037 C.ar    1  LIG1        0.1076
      5 N           0.2235   -1.1231   -0.0044 N.ar    1  LIG1       -0.3554
      6 H           0.2425   -2.1340   -0.0039 H       1  LIG1        0.1655
      7 H           2.3184   -0.7220   -0.0074 H       1  LIG1        0.0821
      8 N           2.2462    3.1935   -0.0106 N.1     1  LIG1       -0.1907
      9 C           1.6661    2.1831   -0.0091 C.1     1  LIG1        0.1043
     10 O          -1.4218    1.9978   -0.0053 O.3     1  LIG1       -0.5034
     11 H          -0.9567    2.8466   -0.0062 H       1  LIG1        0.2923
     12 C          -2.2696   -0.9029   -0.0013 C.ar    1  LIG1        0.0882
     13 C          -2.7188   -2.2419    0.0000 C.ar    1  LIG1        0.1205
     14 C          -4.1421   -2.2004    0.0021 C.ar    1  LIG1        0.1616
     15 C          -4.5386   -0.8694    0.0019 C.ar    1  LIG1        0.1081
     16 N          -3.3736   -0.1076   -0.0002 N.ar    1  LIG1       -0.3478
     17 H          -3.3275    0.9049   -0.0010 H       1  LIG1        0.1661
     18 N          -1.1884   -4.3162   -0.0009 N.1     1  LIG1       -0.1907
     19 C          -1.8983   -3.3888   -0.0005 C.1     1  LIG1        0.1050
     20 O          -5.0295   -3.2246    0.0040 O.3     1  LIG1       -0.5034
     21 H          -4.5795   -4.0803    0.0037 H       1  LIG1        0.2923
     22 C          -5.8646   -0.3297    0.0035 C.ar    1  LIG1        0.0883
     23 C          -6.3207    1.0065    0.0038 C.ar    1  LIG1        0.1205
     24 C          -7.7449    0.9565    0.0057 C.ar    1  LIG1        0.1616
     25 C          -8.1373   -0.3728    0.0067 C.ar    1  LIG1        0.1080
     26 N          -6.9696   -1.1278    0.0053 N.ar    1  LIG1       -0.3478
     27 H          -6.9243   -2.1402    0.0056 H       1  LIG1        0.1661
     28 N          -4.8964    3.1553    0.0013 N.1     1  LIG1       -0.1907
     29 C          -5.5357    2.1778    0.0024 C.1     1  LIG1        0.1050
     30 O          -8.6237    1.9976    0.0066 O.3     1  LIG1       -0.5034
     31 H          -8.1386    2.8346    0.0062 H       1  LIG1        0.2923
     32 C          -9.4591   -0.9319    0.0086 C.ar    1  LIG1        0.0878
     33 C          -9.9015   -2.2693    0.0092 C.ar    1  LIG1        0.1198
     34 C         -11.3366   -2.2399    0.0114 C.ar    1  LIG1        0.1521
     35 C         -11.7270   -0.9222    0.0120 C.ar    1  LIG1        0.0455
     36 N         -10.5760   -0.1513    0.0104 N.ar    1  LIG1       -0.3553
     37 H         -10.5378    0.8576    0.0101 H       1  LIG1        0.1655
     38 H         -12.7114   -0.4848    0.0137 H       1  LIG1        0.0845
     39 N          -8.4315   -4.3875    0.0071 N.1     1  LIG1       -0.1907
     40 C          -9.0960   -3.4263    0.0080 C.1     1  LIG1        0.1050
     41 O         -12.1799   -3.3032    0.0126 O.3     1  LIG1       -0.5040
     42 H         -11.6603   -4.1188    0.0116 H       1  LIG1        0.2923
@<TRIPOS>BOND
     1     8     9    3
     2     9     2    1
     3     7     1    1
     4     2     1   ar
     5     2     3   ar
     6     1     5   ar
     7    11    10    1
     8     3    10    1
     9     3     4   ar
    10     5     6    1
    11     5     4   ar
    12     4    12    1
    13    12    16   ar
    14    12    13   ar
    15    17    16    1
    16    18    19    3
    17    19    13    1
    18    16    15   ar
    19    13    14   ar
    20    28    29    3
    21    15    14   ar
    22    15    22    1
    23    14    20    1
    24    29    23    1
    25    22    23   ar
    26    22    26   ar
    27    21    20    1
    28    23    24   ar
    29    26    27    1
    30    26    25   ar
    31    24    30    1
    32    24    25   ar
    33    31    30    1
    34    25    32    1
    35    39    40    3
    36    40    33    1
    37    32    33   ar
    38    32    36   ar
    39    33    34   ar
    40    37    36    1
    41    36    35   ar
    42    34    35   ar
    43    34    41    1
    44    42    41    1
    45    35    38    1
