@<TRIPOS>MOLECULE
mol_data/opt/b3lyp/geoms/mol2/13df13df13df-13df.out
 42 45 0 0 0
SMALL
GASTEIGER

@<TRIPOS>ATOM
      1 C           1.2345   -0.4140   -0.0076 C.ar    1  LIG1        0.0233
      2 C           0.9569    0.9449   -0.0069 C.ar    1  LIG1        0.1110
      3 C          -0.4667    1.0906   -0.0037 C.ar    1  LIG1        0.1609
      4 C          -1.0269   -0.1974   -0.0025 C.ar    1  LIG1        0.1076
      5 N           0.0613   -1.0860   -0.0050 N.ar    1  LIG1       -0.3554
      6 H           0.0071   -2.0925   -0.0051 H       1  LIG1        0.1655
      7 H           2.1854   -0.9233   -0.0098 H       1  LIG1        0.0821
      8 N           2.7049    2.8451   -0.0108 N.1     1  LIG1       -0.1907
      9 C           1.9099    1.9952   -0.0090 C.1     1  LIG1        0.1043
     10 O          -1.0112    2.3135   -0.0021 O.3     1  LIG1       -0.5034
     11 H          -1.9833    2.3124   -0.0009 H       1  LIG1        0.2923
     12 C          -2.3762   -0.7002    0.0008 C.ar    1  LIG1        0.0882
     13 C          -3.6414   -0.0712    0.0030 C.ar    1  LIG1        0.1205
     14 C          -4.6466   -1.0846    0.0072 C.ar    1  LIG1        0.1616
     15 C          -3.9980   -2.3235    0.0060 C.ar    1  LIG1        0.1081
     16 N          -2.6286   -2.0375    0.0029 N.ar    1  LIG1       -0.3478
     17 H          -1.9319   -2.7655    0.0039 H       1  LIG1        0.1661
     18 N          -4.0833    2.4674    0.0018 N.1     1  LIG1       -0.1907
     19 C          -3.9037    1.3140    0.0024 C.1     1  LIG1        0.1050
     20 O          -5.9446   -0.7220    0.0105 O.3     1  LIG1       -0.5034
     21 H          -6.5920   -1.4405    0.0296 H       1  LIG1        0.2923
     22 C          -4.4467   -3.6834    0.0057 C.ar    1  LIG1        0.0883
     23 C          -3.7002   -4.8928    0.0105 C.ar    1  LIG1        0.1205
     24 C          -4.6394   -5.9700    0.0084 C.ar    1  LIG1        0.1616
     25 C          -5.9129   -5.4306    0.0025 C.ar    1  LIG1        0.1080
     26 N          -5.7528   -4.0468    0.0004 N.ar    1  LIG1       -0.3478
     27 H          -6.5438   -3.4213   -0.0114 H       1  LIG1        0.1661
     28 N          -1.1262   -4.9929    0.0198 N.1     1  LIG1       -0.1907
     29 C          -2.2958   -4.9886    0.0162 C.1     1  LIG1        0.1050
     30 O          -4.4000   -7.3092    0.0121 O.3     1  LIG1       -0.5034
     31 H          -3.4477   -7.4769    0.0172 H       1  LIG1        0.2923
     32 C          -7.2088   -6.0446    0.0007 C.ar    1  LIG1        0.0878
     33 C          -8.4857   -5.4436    0.0019 C.ar    1  LIG1        0.1198
     34 C          -9.4498   -6.5012   -0.0002 C.ar    1  LIG1        0.1521
     35 C          -8.7604   -7.6924   -0.0024 C.ar    1  LIG1        0.0455
     36 N          -7.4043   -7.3902   -0.0019 N.ar    1  LIG1       -0.3553
     37 H          -6.6475   -8.0581   -0.0027 H       1  LIG1        0.1655
     38 H          -9.1114   -8.7118   -0.0043 H       1  LIG1        0.0845
     39 N          -8.6125   -2.8775    0.0107 N.1     1  LIG1       -0.1907
     40 C          -8.6655   -4.0455    0.0069 C.1     1  LIG1        0.1050
     41 O         -10.7840   -6.2598    0.0003 O.3     1  LIG1       -0.5040
     42 H         -11.2656   -7.0970   -0.0009 H       1  LIG1        0.2923
@<TRIPOS>BOND
     1    27    26    1
     2     8     9    3
     3     7     1    1
     4     9     2    1
     5     1     2   ar
     6     1     5   ar
     7     2     3   ar
     8     6     5    1
     9     5     4   ar
    10    38    35    1
    11     3     4   ar
    12     3    10    1
    13    37    36    1
    14     4    12    1
    15    35    36   ar
    16    35    34   ar
    17    10    11    1
    18    36    32   ar
    19    42    41    1
    20    34    41    1
    21    34    33   ar
    22    26    25   ar
    23    26    22   ar
    24    32    33   ar
    25    32    25    1
    26    12    16   ar
    27    12    13   ar
    28    18    19    3
    29    33    40    1
    30    19    13    1
    31    25    24   ar
    32    16    17    1
    33    16    15   ar
    34    13    14   ar
    35    22    15    1
    36    22    23   ar
    37    15    14   ar
    38    40    39    3
    39    14    20    1
    40    24    23   ar
    41    24    30    1
    42    23    29    1
    43    20    21    1
    44    30    31    1
    45    29    28    3
