@<TRIPOS>MOLECULE
mol_data/opt/b3lyp/geoms/mol2/13df13df-13df-13df-.out
 42 45 0 0 0
SMALL
GASTEIGER

@<TRIPOS>ATOM
      1 C           1.3161   -0.3390   -0.3469 C.ar    1  LIG1        0.0233
      2 C           0.8357    0.8983   -0.7747 C.ar    1  LIG1        0.1110
      3 C          -0.5843    0.8491   -0.6504 C.ar    1  LIG1        0.1609
      4 C          -0.9344   -0.3993   -0.1562 C.ar    1  LIG1        0.1076
      5 N           0.2560   -1.0977    0.0178 N.ar    1  LIG1       -0.3554
      6 H           0.3112   -2.0453    0.3671 H       1  LIG1        0.1655
      7 H           2.3300   -0.7018   -0.2874 H       1  LIG1        0.0821
      8 N           2.0801    2.9816   -1.6483 N.1     1  LIG1       -0.1907
      9 C           1.5606    2.0182   -1.2486 C.1     1  LIG1        0.1043
     10 O          -1.4917    1.8198   -0.9462 O.3     1  LIG1       -0.5034
     11 H          -1.0368    2.5819   -1.3339 H       1  LIG1        0.2923
     12 C          -2.2372   -0.9271    0.1296 C.ar    1  LIG1        0.0882
     13 C          -2.6413   -2.1923    0.5951 C.ar    1  LIG1        0.1205
     14 C          -4.0704   -2.1886    0.6535 C.ar    1  LIG1        0.1616
     15 C          -4.5121   -0.9448    0.2286 C.ar    1  LIG1        0.1081
     16 N          -3.3693   -0.1934   -0.0610 N.ar    1  LIG1       -0.3478
     17 H          -3.3584    0.6953   -0.5431 H       1  LIG1        0.1661
     18 N          -1.0294   -4.0979    1.2411 N.1     1  LIG1       -0.1907
     19 C          -1.7777   -3.2481    0.9551 C.1     1  LIG1        0.1050
     20 O          -4.8861   -3.1661    1.1004 O.3     1  LIG1       -0.5034
     21 H          -4.3953   -3.9940    1.1947 H       1  LIG1        0.2923
     22 C          -5.8423   -0.3991    0.1347 C.ar    1  LIG1        0.0883
     23 C          -7.0532   -0.9889   -0.2623 C.ar    1  LIG1        0.1205
     24 C          -8.0626    0.0224   -0.2084 C.ar    1  LIG1        0.1616
     25 C          -7.4705    1.2049    0.2062 C.ar    1  LIG1        0.1080
     26 N          -6.1206    0.9115    0.4130 N.ar    1  LIG1       -0.3478
     27 H          -5.4377    1.5880    0.7158 H       1  LIG1        0.1661
     28 N          -7.5896   -3.3674   -1.0981 N.1     1  LIG1       -0.1907
     29 C          -7.2951   -2.3098   -0.7064 C.1     1  LIG1        0.1050
     30 O          -9.3768   -0.1150   -0.4803 O.3     1  LIG1       -0.5034
     31 H          -9.5428   -1.0010   -0.8341 H       1  LIG1        0.2923
     32 C          -8.0292    2.5122    0.4562 C.ar    1  LIG1        0.0878
     33 C          -8.9843    3.2537   -0.2506 C.ar    1  LIG1        0.1198
     34 C          -9.1662    4.4956    0.4468 C.ar    1  LIG1        0.1521
     35 C          -8.3307    4.4922    1.5372 C.ar    1  LIG1        0.0455
     36 N          -7.6364    3.2903    1.5156 N.ar    1  LIG1       -0.3553
     37 H          -7.1157    2.9330    2.3012 H       1  LIG1        0.1655
     38 H          -8.1699    5.2355    2.3003 H       1  LIG1        0.0845
     39 N         -10.1906    2.7876   -2.4801 N.1     1  LIG1       -0.1907
     40 C          -9.6241    2.9430   -1.4729 C.1     1  LIG1        0.1050
     41 O          -9.9888    5.5130    0.0941 O.3     1  LIG1       -0.5040
     42 H         -10.4658    5.2643   -0.7110 H       1  LIG1        0.2923
@<TRIPOS>BOND
     1    39    40    3
     2     8     9    3
     3    40    33    1
     4    11    10    1
     5     9     2    1
     6    28    29    3
     7    10     3    1
     8    31    30    1
     9     2     3   ar
    10     2     1   ar
    11    42    41    1
    12    29    23    1
    13     3     4   ar
    14    17    16    1
    15    30    24    1
    16     1     7    1
    17     1     5   ar
    18    23    24   ar
    19    23    22   ar
    20    33    34   ar
    21    33    32   ar
    22    24    25   ar
    23     4     5   ar
    24     4    12    1
    25    16    12   ar
    26    16    15   ar
    27     5     6    1
    28    41    34    1
    29    12    13   ar
    30    22    15    1
    31    22    26   ar
    32    25    26   ar
    33    25    32    1
    34    15    14   ar
    35    26    27    1
    36    34    35   ar
    37    32    36   ar
    38    13    14   ar
    39    13    19    1
    40    14    20    1
    41    19    18    3
    42    20    21    1
    43    36    35   ar
    44    36    37    1
    45    35    38    1
