@<TRIPOS>MOLECULE
mol_data/opt/b3lyp/geoms/mol2/13df13df-13df-13df.out
 42 45 0 0 0
SMALL
GASTEIGER

@<TRIPOS>ATOM
      1 C           1.2507   -0.2041   -0.0703 C.ar    1  LIG1        0.0233
      2 C           0.7385    1.0725   -0.3050 C.ar    1  LIG1        0.1110
      3 C          -0.6823    0.9461   -0.3077 C.ar    1  LIG1        0.1609
      4 C          -0.9981   -0.3868   -0.0769 C.ar    1  LIG1        0.1076
      5 N           0.2100   -1.0607    0.0592 N.ar    1  LIG1       -0.3554
      6 H           0.2900   -2.0520    0.2411 H       1  LIG1        0.1655
      7 H           2.2759   -0.5302    0.0059 H       1  LIG1        0.0821
      8 N           1.9824    3.3032   -0.6716 N.1     1  LIG1       -0.1907
      9 C           1.4525    2.2793   -0.5039 C.1     1  LIG1        0.1043
     10 O          -1.6316    1.8939   -0.5123 O.3     1  LIG1       -0.5034
     11 H          -1.2549    2.7849   -0.4828 H       1  LIG1        0.2923
     12 C          -2.2950   -0.9856    0.0363 C.ar    1  LIG1        0.0882
     13 C          -2.6945   -2.3114    0.2975 C.ar    1  LIG1        0.1205
     14 C          -4.1234   -2.3313    0.2968 C.ar    1  LIG1        0.1616
     15 C          -4.5707   -1.0427    0.0319 C.ar    1  LIG1        0.1081
     16 N          -3.4293   -0.2511   -0.1115 N.ar    1  LIG1       -0.3478
     17 H          -3.4036    0.7211   -0.3924 H       1  LIG1        0.1661
     18 N          -1.0814   -4.2770    0.7216 N.1     1  LIG1       -0.1907
     19 C          -1.8286   -3.3993    0.5332 C.1     1  LIG1        0.1050
     20 O          -4.9391   -3.3753    0.5489 O.3     1  LIG1       -0.5034
     21 H          -4.4227   -4.1871    0.6467 H       1  LIG1        0.2923
     22 C          -5.8861   -0.4703   -0.0253 C.ar    1  LIG1        0.0883
     23 C          -7.1612   -1.0242   -0.2624 C.ar    1  LIG1        0.1205
     24 C          -8.0948    0.0548   -0.2280 C.ar    1  LIG1        0.1616
     25 C          -7.4054    1.2309    0.0122 C.ar    1  LIG1        0.1080
     26 N          -6.0659    0.8758    0.1295 N.ar    1  LIG1       -0.3478
     27 H          -5.3522    1.5260    0.4303 H       1  LIG1        0.1661
     28 N          -8.0315   -3.3727   -0.8560 N.1     1  LIG1       -0.1907
     29 C          -7.5601   -2.3436   -0.5750 C.1     1  LIG1        0.1050
     30 O          -9.4402   -0.0054   -0.4162 O.3     1  LIG1       -0.5034
     31 H          -9.6945   -0.9208   -0.6084 H       1  LIG1        0.2923
     32 C          -7.8749    2.5822    0.1079 C.ar    1  LIG1        0.0878
     33 C          -7.1632    3.7878    0.2680 C.ar    1  LIG1        0.1198
     34 C          -8.1289    4.8444    0.2919 C.ar    1  LIG1        0.1521
     35 C          -9.3746    4.2774    0.1485 C.ar    1  LIG1        0.0455
     36 N          -9.1958    2.9051    0.0408 N.ar    1  LIG1       -0.3553
     37 H          -9.9232    2.2176   -0.0919 H       1  LIG1        0.1655
     38 H         -10.3556    4.7241    0.1164 H       1  LIG1        0.0845
     39 N          -4.5920    3.8253    0.4248 N.1     1  LIG1       -0.1907
     40 C          -5.7578    3.8727    0.3602 C.1     1  LIG1        0.1050
     41 O          -7.7713    6.1463    0.4350 O.3     1  LIG1       -0.5040
     42 H          -8.5617    6.7007    0.4167 H       1  LIG1        0.2923
@<TRIPOS>BOND
     1    28    29    3
     2     8     9    3
     3    31    30    1
     4    29    23    1
     5    10    11    1
     6    10     3    1
     7     9     2    1
     8    30    24    1
     9    17    16    1
    10     3     2   ar
    11     3     4   ar
    12     2     1   ar
    13    23    24   ar
    14    23    22   ar
    15    24    25   ar
    16    16    15   ar
    17    16    12   ar
    18    37    36    1
    19     4    12    1
    20     4     5   ar
    21     1     7    1
    22     1     5   ar
    23    22    15    1
    24    22    26   ar
    25    25    32    1
    26    25    26   ar
    27    15    14   ar
    28    12    13   ar
    29    36    32   ar
    30    36    35   ar
    31     5     6    1
    32    32    33   ar
    33    38    35    1
    34    26    27    1
    35    35    34   ar
    36    33    34   ar
    37    33    40    1
    38    34    41    1
    39    14    13   ar
    40    14    20    1
    41    13    19    1
    42    40    39    3
    43    42    41    1
    44    19    18    3
    45    20    21    1
