@<TRIPOS>MOLECULE
mol_data/opt/b3lyp/geoms/mol2/13df13df-.out
 22 23 0 0 0
SMALL
GASTEIGER

@<TRIPOS>ATOM
      1 C           1.1585   -0.3181    0.0033 C.ar    1  LIG1        0.0233
      2 C           0.7186    1.0048    0.0083 C.ar    1  LIG1        0.1110
      3 C          -0.7085    0.9610    0.0073 C.ar    1  LIG1        0.1609
      4 C          -1.1022   -0.3680    0.0017 C.ar    1  LIG1        0.1076
      5 N           0.0673   -1.1205   -0.0005 N.ar    1  LIG1       -0.3554
      6 H           0.0877   -2.1316   -0.0049 H       1  LIG1        0.1655
      7 H           2.1624   -0.7120    0.0023 H       1  LIG1        0.0821
      8 N           2.0409    3.2191    0.0180 N.1     1  LIG1       -0.1907
      9 C           1.4846    2.1949    0.0135 C.1     1  LIG1        0.1043
     10 O          -1.5839    2.0045    0.0110 O.3     1  LIG1       -0.5034
     11 H          -1.0927    2.8386    0.0148 H       1  LIG1        0.2923
     12 C          -2.4258   -0.9289   -0.0010 C.ar    1  LIG1        0.0878
     13 C          -2.8625   -2.2672   -0.0070 C.ar    1  LIG1        0.1198
     14 C          -4.2977   -2.2444   -0.0076 C.ar    1  LIG1        0.1521
     15 C          -4.6919   -0.9276   -0.0020 C.ar    1  LIG1        0.0455
     16 N          -3.5434   -0.1524    0.0021 N.ar    1  LIG1       -0.3553
     17 H          -3.5083    0.8569    0.0059 H       1  LIG1        0.1655
     18 H          -5.6778   -0.4938    0.0004 H       1  LIG1        0.0845
     19 N          -1.3145   -4.3284   -0.0155 N.1     1  LIG1       -0.1907
     20 C          -2.0310   -3.4052   -0.0116 C.1     1  LIG1        0.1050
     21 O          -5.1396   -3.3088   -0.0122 O.3     1  LIG1       -0.5040
     22 H          -4.6212   -4.1248   -0.0178 H       1  LIG1        0.2923
@<TRIPOS>BOND
     1    22    21    1
     2    19    20    3
     3    21    14    1
     4    20    13    1
     5    14    13   ar
     6    14    15   ar
     7    13    12   ar
     8     6     5    1
     9    15    18    1
    10    15    16   ar
    11    12     4    1
    12    12    16   ar
    13     5     4   ar
    14     5     1   ar
    15     4     3   ar
    16    16    17    1
    17     7     1    1
    18     1     2   ar
    19     3     2   ar
    20     3    10    1
    21     2     9    1
    22    10    11    1
    23     9     8    3
