@<TRIPOS>MOLECULE
mol_data/opt/b3lyp/geoms/mol2/13dg13dg13dg-.out
 32 34 0 0 0
SMALL
GASTEIGER

@<TRIPOS>ATOM
      1 C           0.2477   -0.1484    1.9853 C.ar    1  LIG1        0.0208
      2 C           0.5421    0.7917    1.0085 C.ar    1  LIG1        0.0828
      3 C          -0.5092    0.7500    0.0298 C.ar    1  LIG1        0.0489
      4 C          -1.4180   -0.2135    0.4565 C.ar    1  LIG1        0.0788
      5 N          -0.9222   -0.7442    1.6469 N.ar    1  LIG1       -0.3574
      6 H          -1.4136   -1.4094    2.2258 H       1  LIG1        0.1654
      7 H           0.7906   -0.4108    2.8800 H       1  LIG1        0.0820
      8 N           2.6386    2.2952    0.8921 N.1     1  LIG1       -0.1908
      9 C           1.6959    1.6153    0.9618 C.1     1  LIG1        0.1018
     10 S          -0.6044    1.7142   -1.4473 S.3     1  LIG1       -0.1393
     11 H           0.7302    1.8662   -1.5742 H       1  LIG1        0.1072
     12 C          -2.6210   -0.7590   -0.1315 C.ar    1  LIG1        0.0831
     13 C          -3.6779   -0.1885   -0.8487 C.ar    1  LIG1        0.0922
     14 C          -4.6121   -1.2337   -1.1509 C.ar    1  LIG1        0.0496
     15 C          -4.1138   -2.4126   -0.6012 C.ar    1  LIG1        0.0793
     16 N          -2.9132   -2.0933    0.0021 N.ar    1  LIG1       -0.3499
     17 H          -2.2738   -2.7800    0.3820 H       1  LIG1        0.1661
     18 N          -4.0851    2.3129   -1.3395 N.1     1  LIG1       -0.1908
     19 C          -3.8772    1.1874   -1.1248 C.1     1  LIG1        0.1025
     20 S          -6.0861   -1.0574   -2.1246 S.3     1  LIG1       -0.1393
     21 H          -6.8511   -0.4169   -1.2126 H       1  LIG1        0.1072
     22 C          -4.6294   -3.7627   -0.5571 C.ar    1  LIG1        0.0827
     23 C          -4.1656   -4.8871    0.1472 C.ar    1  LIG1        0.0915
     24 C          -5.0593   -5.9759   -0.1314 C.ar    1  LIG1        0.0401
     25 C          -6.0184   -5.4865   -0.9897 C.ar    1  LIG1        0.0167
     26 N          -5.7445   -4.1662   -1.2403 N.ar    1  LIG1       -0.3574
     27 H          -6.2959   -3.5312   -1.8062 H       1  LIG1        0.1654
     28 H          -6.8637   -5.9852   -1.4377 H       1  LIG1        0.0818
     29 N          -2.0882   -4.7733    1.6700 N.1     1  LIG1       -0.1908
     30 C          -3.0325   -4.8841    0.9928 C.1     1  LIG1        0.1024
     31 S          -4.9168   -7.6621    0.3954 S.3     1  LIG1       -0.1399
     32 H          -5.1669   -7.4640    1.7083 H       1  LIG1        0.1072
@<TRIPOS>BOND
     1    20    21    1
     2    20    14    1
     3    27    26    1
     4    11    10    1
     5    10     3    1
     6    28    25    1
     7    18    19    3
     8    26    25   ar
     9    26    22   ar
    10    14    13   ar
    11    14    15   ar
    12    19    13    1
    13    25    24   ar
    14    13    12   ar
    15    15    22    1
    16    15    16   ar
    17    22    23   ar
    18    12    16   ar
    19    12     4    1
    20    24    23   ar
    21    24    31    1
    22    16    17    1
    23     3     4   ar
    24     3     2   ar
    25    23    30    1
    26    31    32    1
    27     4     5   ar
    28     8     9    3
    29     9     2    1
    30    30    29    3
    31     2     1   ar
    32     5     1   ar
    33     5     6    1
    34     1     7    1
