@<TRIPOS>MOLECULE
mol_data/opt/b3lyp/geoms/mol2/13dg13dg-13dg13dg.out
 42 45 0 0 0
SMALL
GASTEIGER

@<TRIPOS>ATOM
      1 C           1.2379   -0.0843    0.1815 C.ar    1  LIG1        0.0208
      2 C           0.8001    1.1105   -0.3665 C.ar    1  LIG1        0.0828
      3 C          -0.6359    1.0736   -0.4103 C.ar    1  LIG1        0.0489
      4 C          -1.0205   -0.1574    0.1125 C.ar    1  LIG1        0.0788
      5 N           0.1395   -0.8420    0.4542 N.ar    1  LIG1       -0.3574
      6 H           0.1522   -1.6877    1.0038 H       1  LIG1        0.1654
      7 H           2.2392   -0.4227    0.3985 H       1  LIG1        0.0820
      8 N           2.3625    3.0061   -1.1702 N.1     1  LIG1       -0.1908
      9 C           1.6482    2.1610   -0.8110 C.1     1  LIG1        0.1018
     10 S          -1.6454    2.3130   -1.1774 S.3     1  LIG1       -0.1393
     11 H          -2.3615    2.6611   -0.0860 H       1  LIG1        0.1072
     12 C          -2.3192   -0.7788    0.2797 C.ar    1  LIG1        0.0831
     13 C          -3.5168   -0.2962    0.8054 C.ar    1  LIG1        0.0922
     14 C          -4.5054   -1.3336    0.7102 C.ar    1  LIG1        0.0496
     15 C          -3.8778   -2.4327    0.1341 C.ar    1  LIG1        0.0793
     16 N          -2.5495   -2.0841   -0.0939 N.ar    1  LIG1       -0.3499
     17 H          -1.9620   -2.5663   -0.7595 H       1  LIG1        0.1661
     18 N          -3.7667    2.0401    1.8767 N.1     1  LIG1       -0.1908
     19 C          -3.6780    0.9810    1.4010 C.1     1  LIG1        0.1025
     20 S          -6.1210   -1.2197    1.4303 S.3     1  LIG1       -0.1393
     21 H          -6.8361   -1.4172    0.3013 H       1  LIG1        0.1072
     22 C          -4.3463   -3.7653   -0.1829 C.ar    1  LIG1        0.0831
     23 C          -5.5281   -4.2208   -0.7688 C.ar    1  LIG1        0.0922
     24 C          -5.4771   -5.6547   -0.8339 C.ar    1  LIG1        0.0496
     25 C          -4.2539   -6.0376   -0.2996 C.ar    1  LIG1        0.0793
     26 N          -3.5757   -4.8800    0.0661 N.ar    1  LIG1       -0.3499
     27 H          -2.8142   -4.8786    0.7299 H       1  LIG1        0.1661
     28 N          -7.3626   -2.6648   -1.7066 N.1     1  LIG1       -0.1908
     29 C          -6.5479   -3.3859   -1.2912 C.1     1  LIG1        0.1025
     30 S          -6.6887   -6.6591   -1.6512 S.3     1  LIG1       -0.1393
     31 H          -7.0814   -7.3737   -0.5740 H       1  LIG1        0.1072
     32 C          -3.6388   -7.3379   -0.1191 C.ar    1  LIG1        0.0827
     33 C          -4.1425   -8.5299    0.4110 C.ar    1  LIG1        0.0915
     34 C          -3.0940   -9.5099    0.3643 C.ar    1  LIG1        0.0401
     35 C          -1.9916   -8.8887   -0.1768 C.ar    1  LIG1        0.0167
     36 N          -2.3283   -7.5777   -0.4478 N.ar    1  LIG1       -0.3574
     37 H          -1.7666   -6.9483   -1.0004 H       1  LIG1        0.1654
     38 H          -1.0046   -9.2695   -0.3880 H       1  LIG1        0.0818
     39 N          -6.5120   -8.8197    1.3931 N.1     1  LIG1       -0.1908
     40 C          -5.4391   -8.6969    0.9551 C.1     1  LIG1        0.1024
     41 S          -3.2737  -11.1692    0.9555 S.3     1  LIG1       -0.1399
     42 H          -2.0827  -11.6062    0.5016 H       1  LIG1        0.1072
@<TRIPOS>BOND
     1    28    29    3
     2    30    24    1
     3    30    31    1
     4    29    23    1
     5    10     3    1
     6    10    11    1
     7     8     9    3
     8    37    36    1
     9    24    23   ar
    10    24    25   ar
    11     9     2    1
    12    23    22   ar
    13    17    16    1
    14    36    35   ar
    15    36    32   ar
    16     3     2   ar
    17     3     4   ar
    18    38    35    1
    19     2     1   ar
    20    25    32    1
    21    25    26   ar
    22    22    26   ar
    23    22    15    1
    24    35    34   ar
    25    32    33   ar
    26    16    15   ar
    27    16    12   ar
    28    26    27    1
    29     4    12    1
    30     4     5   ar
    31    15    14   ar
    32     1     7    1
    33     1     5   ar
    34    12    13   ar
    35    21    20    1
    36    34    33   ar
    37    34    41    1
    38    33    40    1
    39     5     6    1
    40    42    41    1
    41    14    13   ar
    42    14    20    1
    43    13    19    1
    44    40    39    3
    45    19    18    3
