@<TRIPOS>MOLECULE
mol_data/opt/b3lyp/geoms/mol2/13dg13dg13dg13dg-.out
 42 45 0 0 0
SMALL
GASTEIGER

@<TRIPOS>ATOM
      1 C           1.2378   -0.0857    0.1747 C.ar    1  LIG1        0.0208
      2 C           0.7974    1.1153   -0.3575 C.ar    1  LIG1        0.0828
      3 C          -0.6388    1.0785   -0.3956 C.ar    1  LIG1        0.0489
      4 C          -1.0208   -0.1586    0.1143 C.ar    1  LIG1        0.0788
      5 N           0.1407   -0.8468    0.4432 N.ar    1  LIG1       -0.3574
      6 H           0.1560   -1.6992    0.9822 H       1  LIG1        0.1654
      7 H           2.2401   -0.4262    0.3836 H       1  LIG1        0.0820
      8 N           2.3561    3.0205   -1.1454 N.1     1  LIG1       -0.1908
      9 C           1.6435    2.1712   -0.7932 C.1     1  LIG1        0.1018
     10 S          -1.6519    2.3264   -1.1438 S.3     1  LIG1       -0.1393
     11 H          -2.3621    2.6629   -0.0449 H       1  LIG1        0.1072
     12 C          -2.3187   -0.7821    0.2800 C.ar    1  LIG1        0.0831
     13 C          -3.5138   -0.3061    0.8173 C.ar    1  LIG1        0.0922
     14 C          -4.5028   -1.3424    0.7141 C.ar    1  LIG1        0.0496
     15 C          -3.8778   -2.4343    0.1218 C.ar    1  LIG1        0.0793
     16 N          -2.5507   -2.0828   -0.1083 N.ar    1  LIG1       -0.3499
     17 H          -1.9661   -2.5571   -0.7821 H       1  LIG1        0.1661
     18 N          -3.7590    2.0174    1.9171 N.1     1  LIG1       -0.1908
     19 C          -3.6724    0.9639    1.4286 C.1     1  LIG1        0.1025
     20 S          -6.1148   -1.2373    1.4436 S.3     1  LIG1       -0.1393
     21 H          -6.8356   -1.4219    0.3160 H       1  LIG1        0.1072
     22 C          -4.3478   -3.7630   -0.2091 C.ar    1  LIG1        0.0831
     23 C          -5.5324   -4.2117   -0.7947 C.ar    1  LIG1        0.0922
     24 C          -5.4815   -5.6446   -0.8774 C.ar    1  LIG1        0.0496
     25 C          -4.2557   -6.0338   -0.3539 C.ar    1  LIG1        0.0793
     26 N          -3.5758   -4.8805    0.0225 N.ar    1  LIG1       -0.3499
     27 H          -2.8111   -4.8871    0.6826 H       1  LIG1        0.1661
     28 N          -7.3719   -2.6447   -1.7042 N.1     1  LIG1       -0.1908
     29 C          -6.5550   -3.3707   -1.3017 C.1     1  LIG1        0.1025
     30 S          -6.6975   -6.6389   -1.7007 S.3     1  LIG1       -0.1393
     31 H          -7.0817   -7.3695   -0.6312 H       1  LIG1        0.1072
     32 C          -3.6391   -7.3359   -0.1926 C.ar    1  LIG1        0.0827
     33 C          -4.1392   -8.5349    0.3251 C.ar    1  LIG1        0.0915
     34 C          -3.0904   -9.5135    0.2607 C.ar    1  LIG1        0.0401
     35 C          -1.9911   -8.8847   -0.2781 C.ar    1  LIG1        0.0167
     36 N          -2.3301   -7.5706   -0.5309 N.ar    1  LIG1       -0.3574
     37 H          -1.7718   -6.9340   -1.0787 H       1  LIG1        0.1654
     38 H          -1.0048   -9.2621   -0.4989 H       1  LIG1        0.0818
     39 N          -6.5038   -8.8389    1.3146 N.1     1  LIG1       -0.1908
     40 C          -5.4331   -8.7098    0.8732 C.1     1  LIG1        0.1024
     41 S          -3.2659  -11.1801    0.8321 S.3     1  LIG1       -0.1399
     42 H          -2.0779  -11.6110    0.3649 H       1  LIG1        0.1072
@<TRIPOS>BOND
     1    28    29    3
     2    30    24    1
     3    30    31    1
     4    29    23    1
     5     8     9    3
     6    10     3    1
     7    10    11    1
     8    37    36    1
     9    24    23   ar
    10    24    25   ar
    11    23    22   ar
    12     9     2    1
    13    17    16    1
    14    36    35   ar
    15    36    32   ar
    16    38    35    1
    17     3     2   ar
    18     3     4   ar
    19     2     1   ar
    20    25    32    1
    21    25    26   ar
    22    35    34   ar
    23    22    26   ar
    24    22    15    1
    25    32    33   ar
    26    16    15   ar
    27    16    12   ar
    28    26    27    1
    29     4    12    1
    30     4     5   ar
    31    15    14   ar
    32     1     7    1
    33     1     5   ar
    34    34    33   ar
    35    34    41    1
    36    12    13   ar
    37    21    20    1
    38    33    40    1
    39    42    41    1
    40     5     6    1
    41    14    13   ar
    42    14    20    1
    43    13    19    1
    44    40    39    3
    45    19    18    3
