@<TRIPOS>MOLECULE
mol_data/opt/b3lyp/geoms/mol2/13dg13dg-13dg.out
 32 34 0 0 0
SMALL
GASTEIGER

@<TRIPOS>ATOM
      1 C           0.2777    0.0220   -2.0367 C.ar    1  LIG1        0.0208
      2 C           0.6372    0.8341   -0.9721 C.ar    1  LIG1        0.0828
      3 C          -0.3682    0.6952    0.0441 C.ar    1  LIG1        0.0489
      4 C          -1.3121   -0.2037   -0.4474 C.ar    1  LIG1        0.0788
      5 N          -0.8885   -0.5959   -1.7102 N.ar    1  LIG1       -0.3574
      6 H          -1.4203   -1.1819   -2.3373 H       1  LIG1        0.1654
      7 H           0.7661   -0.1376   -2.9853 H       1  LIG1        0.0820
      8 N           2.7669    2.2964   -0.8987 N.1     1  LIG1       -0.1908
      9 C           1.8056    1.6415   -0.9200 C.1     1  LIG1        0.1018
     10 S          -0.2381    1.3872    1.6711 S.3     1  LIG1       -0.1393
     11 H          -1.3316    2.1781    1.6300 H       1  LIG1        0.1072
     12 C          -2.5090   -0.7787    0.1293 C.ar    1  LIG1        0.0831
     13 C          -3.5423   -0.2342    0.8973 C.ar    1  LIG1        0.0922
     14 C          -4.4898   -1.2775    1.1577 C.ar    1  LIG1        0.0496
     15 C          -4.0203   -2.4313    0.5328 C.ar    1  LIG1        0.0793
     16 N          -2.8268   -2.0969   -0.0768 N.ar    1  LIG1       -0.3499
     17 H          -2.2104   -2.7679   -0.5185 H       1  LIG1        0.1661
     18 N          -3.8193    2.2571    1.5121 N.1     1  LIG1       -0.1908
     19 C          -3.6912    1.1300    1.2469 C.1     1  LIG1        0.1025
     20 S          -5.9442   -1.1284    2.1659 S.3     1  LIG1       -0.1393
     21 H          -6.7363   -0.4859    1.2782 H       1  LIG1        0.1072
     22 C          -4.5593   -3.7690    0.4305 C.ar    1  LIG1        0.0827
     23 C          -4.1292   -4.8616   -0.3477 C.ar    1  LIG1        0.0915
     24 C          -5.0200   -5.9552   -0.0939 C.ar    1  LIG1        0.0401
     25 C          -5.9519   -5.5020    0.8140 C.ar    1  LIG1        0.0167
     26 N          -5.6579   -4.1923    1.1173 N.ar    1  LIG1       -0.3574
     27 H          -6.1844   -3.5845    1.7341 H       1  LIG1        0.1654
     28 H          -6.7915   -6.0059    1.2665 H       1  LIG1        0.0818
     29 N          -2.0957   -4.6996   -1.9244 N.1     1  LIG1       -0.1908
     30 C          -3.0230   -4.8256   -1.2264 C.1     1  LIG1        0.1024
     31 S          -4.8688   -7.5469   -0.8540 S.3     1  LIG1       -0.1399
     32 H          -5.9370   -8.0941   -0.2427 H       1  LIG1        0.1072
@<TRIPOS>BOND
     1     7     1    1
     2     6     5    1
     3     1     5   ar
     4     1     2   ar
     5    29    30    3
     6     5     4   ar
     7    30    23    1
     8     2     9    1
     9     2     3   ar
    10     9     8    3
    11    31    32    1
    12    31    24    1
    13    17    16    1
    14     4     3   ar
    15     4    12    1
    16    23    24   ar
    17    23    22   ar
    18    24    25   ar
    19    16    12   ar
    20    16    15   ar
    21     3    10    1
    22    12    13   ar
    23    22    15    1
    24    22    26   ar
    25    15    14   ar
    26    25    26   ar
    27    25    28    1
    28    13    14   ar
    29    13    19    1
    30    26    27    1
    31    14    20    1
    32    19    18    3
    33    21    20    1
    34    11    10    1
