@<TRIPOS>MOLECULE
mol_data/opt/b3lyp/geoms/mol2/13dg13dg13dg-13dg.out
 42 45 0 0 0
SMALL
GASTEIGER

@<TRIPOS>ATOM
      1 C           0.5204    0.2631    2.1224 C.ar    1  LIG1        0.0208
      2 C           0.8513    0.8917    0.9327 C.ar    1  LIG1        0.0828
      3 C          -0.2066    0.6354   -0.0056 C.ar    1  LIG1        0.0489
      4 C          -1.1438   -0.1520    0.6520 C.ar    1  LIG1        0.0788
      5 N          -0.6732   -0.3680    1.9403 N.ar    1  LIG1       -0.3574
      6 H          -1.2237   -0.7698    2.6848 H       1  LIG1        0.1654
      7 H           1.0451    0.2394    3.0649 H       1  LIG1        0.0820
      8 N           3.0218    2.2381    0.5374 N.1     1  LIG1       -0.1908
      9 C           2.0405    1.6362    0.7053 C.1     1  LIG1        0.1018
     10 S          -0.1851    1.1086   -1.7154 S.3     1  LIG1       -0.1393
     11 H          -1.2403    1.9518   -1.6783 H       1  LIG1        0.1072
     12 C          -2.3880   -0.7484    0.1996 C.ar    1  LIG1        0.0831
     13 C          -3.5031   -0.1920   -0.4310 C.ar    1  LIG1        0.0922
     14 C          -4.4734   -1.2287   -0.6259 C.ar    1  LIG1        0.0496
     15 C          -3.9248   -2.3963   -0.1090 C.ar    1  LIG1        0.0793
     16 N          -2.6716   -2.0774    0.3902 N.ar    1  LIG1       -0.3499
     17 H          -2.0524   -2.7297    0.8485 H       1  LIG1        0.1661
     18 N          -3.6918    2.3082   -1.0492 N.1     1  LIG1       -0.1908
     19 C          -3.6316    1.1784   -0.7742 C.1     1  LIG1        0.1025
     20 S          -6.0028   -1.0331   -1.5028 S.3     1  LIG1       -0.1393
     21 H          -6.8314   -1.3011   -0.4697 H       1  LIG1        0.1072
     22 C          -4.4227   -3.7600   -0.0678 C.ar    1  LIG1        0.0831
     23 C          -5.6204   -4.2881    0.4178 C.ar    1  LIG1        0.0922
     24 C          -5.5864   -5.7109    0.2490 C.ar    1  LIG1        0.0496
     25 C          -4.3636   -6.0172   -0.3383 C.ar    1  LIG1        0.0793
     26 N          -3.6774   -4.8254   -0.5069 N.ar    1  LIG1       -0.3499
     27 H          -2.7588   -4.7502   -0.9186 H       1  LIG1        0.1661
     28 N          -7.4792   -2.8359    1.4686 N.1     1  LIG1       -0.1908
     29 C          -6.6547   -3.5145    1.0044 C.1     1  LIG1        0.1025
     30 S          -6.9412   -6.8009    0.5974 S.3     1  LIG1       -0.1393
     31 H          -6.3401   -7.5258    1.5661 H       1  LIG1        0.1072
     32 C          -3.7876   -7.2764   -0.7752 C.ar    1  LIG1        0.0827
     33 C          -3.6310   -8.4920   -0.1033 C.ar    1  LIG1        0.0915
     34 C          -2.9784   -9.4072   -0.9961 C.ar    1  LIG1        0.0401
     35 C          -2.7523   -8.7244   -2.1698 C.ar    1  LIG1        0.0167
     36 N          -3.2299   -7.4387   -2.0175 N.ar    1  LIG1       -0.3574
     37 H          -3.3389   -6.7795   -2.7738 H       1  LIG1        0.1654
     38 H          -2.2954   -9.0466   -3.0925 H       1  LIG1        0.0818
     39 N          -4.3240   -8.8969    2.3503 N.1     1  LIG1       -0.1908
     40 C          -4.0040   -8.7255    1.2430 C.1     1  LIG1        0.1024
     41 S          -2.5586  -11.0716   -0.5632 S.3     1  LIG1       -0.1399
     42 H          -2.0621  -11.4065   -1.7701 H       1  LIG1        0.1072
@<TRIPOS>BOND
     1    38    35    1
     2    37    36    1
     3    35    36   ar
     4    35    34   ar
     5    36    32   ar
     6    42    41    1
     7    10    11    1
     8    10     3    1
     9    20    14    1
    10    20    21    1
    11    18    19    3
    12    34    41    1
    13    34    33   ar
    14    27    26    1
    15    32    25    1
    16    32    33   ar
    17    19    13    1
    18    14    13   ar
    19    14    15   ar
    20    26    25   ar
    21    26    22   ar
    22    13    12   ar
    23    25    24   ar
    24    15    22    1
    25    15    16   ar
    26    33    40    1
    27    22    23   ar
    28     3     4   ar
    29     3     2   ar
    30    12    16   ar
    31    12     4    1
    32    24    23   ar
    33    24    30    1
    34    16    17    1
    35    23    29    1
    36     8     9    3
    37    30    31    1
    38     4     5   ar
    39     9     2    1
    40     2     1   ar
    41    29    28    3
    42    40    39    3
    43     5     1   ar
    44     5     6    1
    45     1     7    1
