@<TRIPOS>MOLECULE
mol_data/opt/b3lyp/geoms/mol2/13dg13dg13dg-13dg-.out
 42 45 0 0 0
SMALL
GASTEIGER

@<TRIPOS>ATOM
      1 C           0.6608    0.5069    1.6151 C.ar    1  LIG1        0.0208
      2 C           0.8465    1.0485    0.3534 C.ar    1  LIG1        0.0828
      3 C          -0.2915    0.6902   -0.4480 C.ar    1  LIG1        0.0489
      4 C          -1.1280   -0.0692    0.3608 C.ar    1  LIG1        0.0788
      5 N          -0.5214   -0.1704    1.6062 N.ar    1  LIG1       -0.3574
      6 H          -0.9830   -0.5204    2.4327 H       1  LIG1        0.1654
      7 H           1.2786    0.5737    2.4971 H       1  LIG1        0.0820
      8 N           2.9192    2.4160   -0.3635 N.1     1  LIG1       -0.1908
      9 C           1.9803    1.8042   -0.0514 C.1     1  LIG1        0.1018
     10 S          -0.4605    1.0293   -2.1811 S.3     1  LIG1       -0.1393
     11 H          -1.5479    1.8272   -2.0984 H       1  LIG1        0.1072
     12 C          -2.3918   -0.7306    0.0891 C.ar    1  LIG1        0.0831
     13 C          -3.5871   -0.2507   -0.4507 C.ar    1  LIG1        0.0922
     14 C          -4.5390   -1.3218   -0.4625 C.ar    1  LIG1        0.0496
     15 C          -3.8984   -2.4350    0.0726 C.ar    1  LIG1        0.0793
     16 N          -2.6091   -2.0478    0.4042 N.ar    1  LIG1       -0.3499
     17 H          -1.9188   -2.6534    0.8222 H       1  LIG1        0.1661
     18 N          -3.9165    2.1931   -1.2176 N.1     1  LIG1       -0.1908
     19 C          -3.7948    1.0876   -0.8729 C.1     1  LIG1        0.1025
     20 S          -6.1535   -1.2217   -1.1886 S.3     1  LIG1       -0.1393
     21 H          -6.8666   -1.4688   -0.0681 H       1  LIG1        0.1072
     22 C          -4.3354   -3.8055    0.2602 C.ar    1  LIG1        0.0831
     23 C          -5.4881   -4.3338    0.8378 C.ar    1  LIG1        0.0922
     24 C          -5.4246   -5.7656    0.7475 C.ar    1  LIG1        0.0496
     25 C          -4.2235   -6.0743    0.1207 C.ar    1  LIG1        0.0793
     26 N          -3.5691   -4.8764   -0.1447 N.ar    1  LIG1       -0.3499
     27 H          -2.8417   -4.7930   -0.8418 H       1  LIG1        0.1661
     28 N          -7.2987   -2.8826    1.9712 N.1     1  LIG1       -0.1908
     29 C          -6.4957   -3.5600    1.4690 C.1     1  LIG1        0.1025
     30 S          -6.5918   -6.8609    1.5113 S.3     1  LIG1       -0.1393
     31 H          -7.0229   -7.4763    0.3884 H       1  LIG1        0.1072
     32 C          -3.6098   -7.3383   -0.2353 C.ar    1  LIG1        0.0827
     33 C          -4.1357   -8.4780   -0.8530 C.ar    1  LIG1        0.0915
     34 C          -3.0743   -9.4358   -0.9858 C.ar    1  LIG1        0.0401
     35 C          -1.9435   -8.8532   -0.4606 C.ar    1  LIG1        0.0167
     36 N          -2.2761   -7.5852   -0.0289 N.ar    1  LIG1       -0.3574
     37 H          -1.6768   -6.9991    0.5314 H       1  LIG1        0.1654
     38 H          -0.9390   -9.2339   -0.3615 H       1  LIG1        0.0818
     39 N          -6.5615   -8.7097   -1.7038 N.1     1  LIG1       -0.1908
     40 C          -5.4634   -8.6121   -1.3259 C.1     1  LIG1        0.1024
     41 S          -3.2777  -11.0299   -1.7280 S.3     1  LIG1       -0.1399
     42 H          -2.0003  -11.4227   -1.5585 H       1  LIG1        0.1072
@<TRIPOS>BOND
     1    10    11    1
     2    10     3    1
     3    41    42    1
     4    41    34    1
     5    39    40    3
     6    40    33    1
     7    18    19    3
     8    20    14    1
     9    20    21    1
    10    34    33   ar
    11    34    35   ar
    12    19    13    1
    13    33    32   ar
    14    27    26    1
    15    14    13   ar
    16    14    15   ar
    17    35    38    1
    18    35    36   ar
    19    13    12   ar
    20     3     2   ar
    21     3     4   ar
    22     8     9    3
    23    32    36   ar
    24    32    25    1
    25    26    25   ar
    26    26    22   ar
    27     9     2    1
    28    36    37    1
    29    15    22    1
    30    15    16   ar
    31    12     4    1
    32    12    16   ar
    33    25    24   ar
    34    22    23   ar
    35     2     1   ar
    36     4     5   ar
    37    31    30    1
    38    16    17    1
    39    24    23   ar
    40    24    30    1
    41    23    29    1
    42    29    28    3
    43     5     1   ar
    44     5     6    1
    45     1     7    1
