@<TRIPOS>MOLECULE
mol_data/opt/b3lyp/geoms/mol2/13dg13dg-13dg13dg-.out
 42 45 0 0 0
SMALL
GASTEIGER

@<TRIPOS>ATOM
      1 C           0.4138   -0.2811   -2.4425 C.ar    1  LIG1        0.0208
      2 C           0.8436    0.4625   -1.3552 C.ar    1  LIG1        0.0828
      3 C          -0.1696    0.3801   -0.3398 C.ar    1  LIG1        0.0489
      4 C          -1.1843   -0.4222   -0.8516 C.ar    1  LIG1        0.0788
      5 N          -0.7988   -0.8132   -2.1269 N.ar    1  LIG1       -0.3574
      6 H          -1.4036   -1.2830   -2.7838 H       1  LIG1        0.1654
      7 H           0.8833   -0.4478   -3.3995 H       1  LIG1        0.0820
      8 N           3.0945    1.7282   -1.2464 N.1     1  LIG1       -0.1908
      9 C           2.0787    1.1622   -1.2832 C.1     1  LIG1        0.1018
     10 S          -0.0044    1.0344    1.3001 S.3     1  LIG1       -0.1393
     11 H          -1.0297    1.9125    1.2471 H       1  LIG1        0.1072
     12 C          -2.4296   -0.8927   -0.2758 C.ar    1  LIG1        0.0831
     13 C          -3.4512   -0.2179    0.3982 C.ar    1  LIG1        0.0922
     14 C          -4.4739   -1.1644    0.7321 C.ar    1  LIG1        0.0496
     15 C          -4.0572   -2.3976    0.2378 C.ar    1  LIG1        0.0793
     16 N          -2.8262   -2.2015   -0.3738 N.ar    1  LIG1       -0.3499
     17 H          -2.2548   -2.9359   -0.7687 H       1  LIG1        0.1661
     18 N          -3.4561    2.3289    0.8242 N.1     1  LIG1       -0.1908
     19 C          -3.4741    1.1788    0.6422 C.1     1  LIG1        0.1025
     20 S          -5.8619   -0.7898    1.7689 S.3     1  LIG1       -0.1393
     21 H          -6.8431   -1.0638    0.8830 H       1  LIG1        0.1072
     22 C          -4.6262   -3.7260    0.3172 C.ar    1  LIG1        0.0831
     23 C          -5.9337   -4.2064    0.1939 C.ar    1  LIG1        0.0922
     24 C          -5.8896   -5.6333    0.3244 C.ar    1  LIG1        0.0496
     25 C          -4.5558   -5.9922    0.5086 C.ar    1  LIG1        0.0793
     26 N          -3.8232   -4.8224    0.5020 N.ar    1  LIG1       -0.3499
     27 H          -2.8365   -4.7758    0.7230 H       1  LIG1        0.1661
     28 N          -8.0045   -2.8004   -0.4352 N.1     1  LIG1       -0.1908
     29 C          -7.0759   -3.4375   -0.1371 C.1     1  LIG1        0.1025
     30 S          -7.2934   -6.7204    0.3329 S.3     1  LIG1       -0.1393
     31 H          -7.5103   -6.7765   -1.0006 H       1  LIG1        0.1072
     32 C          -3.9013   -7.2728    0.6538 C.ar    1  LIG1        0.0827
     33 C          -2.5308   -7.5941    0.5984 C.ar    1  LIG1        0.0915
     34 C          -2.4071   -9.0095    0.7826 C.ar    1  LIG1        0.0401
     35 C          -3.6858   -9.4995    0.9385 C.ar    1  LIG1        0.0167
     36 N          -4.5661   -8.4446    0.8582 N.ar    1  LIG1       -0.3574
     37 H          -5.5769   -8.5014    0.8964 H       1  LIG1        0.1654
     38 H          -4.0342  -10.5068    1.1038 H       1  LIG1        0.0818
     39 N          -0.7508   -5.7828    0.1558 N.1     1  LIG1       -0.1908
     40 C          -1.5095   -6.6465    0.3592 C.1     1  LIG1        0.1024
     41 S          -0.8604   -9.8703    0.8030 S.3     1  LIG1       -0.1399
     42 H          -1.3903  -11.1084    0.8255 H       1  LIG1        0.1072
@<TRIPOS>BOND
     1     7     1    1
     2     6     5    1
     3     1     5   ar
     4     1     2   ar
     5     5     4   ar
     6     2     9    1
     7     2     3   ar
     8     9     8    3
     9    31    30    1
    10     4     3   ar
    11     4    12    1
    12    17    16    1
    13    28    29    3
    14    16    12   ar
    15    16    15   ar
    16     3    10    1
    17    12    13   ar
    18    29    23    1
    19    39    40    3
    20    23    22   ar
    21    23    24   ar
    22    15    22    1
    23    15    14   ar
    24    22    26   ar
    25    24    30    1
    26    24    25   ar
    27    40    33    1
    28    13    19    1
    29    13    14   ar
    30    26    25   ar
    31    26    27    1
    32    25    32    1
    33    33    32   ar
    34    33    34   ar
    35    19    18    3
    36    32    36   ar
    37    14    20    1
    38    34    41    1
    39    34    35   ar
    40    41    42    1
    41    36    37    1
    42    36    35   ar
    43    21    20    1
    44    35    38    1
    45    11    10    1
