@<TRIPOS>MOLECULE
mol_data/opt/b3lyp/geoms/mol2/13dg13dg13dg13dg.out
 42 45 0 0 0
SMALL
GASTEIGER

@<TRIPOS>ATOM
      1 C           1.2383   -0.0862    0.1790 C.ar    1  LIG1        0.0208
      2 C           0.7982    1.1149   -0.3531 C.ar    1  LIG1        0.0828
      3 C          -0.6380    1.0781   -0.3917 C.ar    1  LIG1        0.0489
      4 C          -1.0203   -0.1590    0.1181 C.ar    1  LIG1        0.0788
      5 N           0.1411   -0.8474    0.4471 N.ar    1  LIG1       -0.3574
      6 H           0.1561   -1.6995    0.9866 H       1  LIG1        0.1654
      7 H           2.2405   -0.4269    0.3880 H       1  LIG1        0.0820
      8 N           2.3570    3.0201   -1.1406 N.1     1  LIG1       -0.1908
      9 C           1.6443    2.1708   -0.7886 C.1     1  LIG1        0.1018
     10 S          -1.6513    2.3262   -1.1395 S.3     1  LIG1       -0.1393
     11 H          -2.3605    2.6632   -0.0402 H       1  LIG1        0.1072
     12 C          -2.3183   -0.7825    0.2834 C.ar    1  LIG1        0.0831
     13 C          -3.5134   -0.3066    0.8209 C.ar    1  LIG1        0.0922
     14 C          -4.5024   -1.3428    0.7172 C.ar    1  LIG1        0.0496
     15 C          -3.8776   -2.4344    0.1242 C.ar    1  LIG1        0.0793
     16 N          -2.5504   -2.0829   -0.1057 N.ar    1  LIG1       -0.3499
     17 H          -1.9659   -2.5568   -0.7798 H       1  LIG1        0.1661
     18 N          -3.7582    2.0164    1.9219 N.1     1  LIG1       -0.1908
     19 C          -3.6717    0.9632    1.4328 C.1     1  LIG1        0.1025
     20 S          -6.1143   -1.2383    1.4471 S.3     1  LIG1       -0.1393
     21 H          -6.8353   -1.4207    0.3192 H       1  LIG1        0.1072
     22 C          -4.3478   -3.7628   -0.2075 C.ar    1  LIG1        0.0831
     23 C          -5.5327   -4.2107   -0.7931 C.ar    1  LIG1        0.0922
     24 C          -5.4822   -5.6436   -0.8769 C.ar    1  LIG1        0.0496
     25 C          -4.2564   -6.0335   -0.3540 C.ar    1  LIG1        0.0793
     26 N          -3.5761   -4.8807    0.0232 N.ar    1  LIG1       -0.3499
     27 H          -2.8112   -4.8880    0.6830 H       1  LIG1        0.1661
     28 N          -7.3716   -2.6424   -1.7015 N.1     1  LIG1       -0.1908
     29 C          -6.5550   -3.3689   -1.2995 C.1     1  LIG1        0.1025
     30 S          -6.6988   -6.6367   -1.7008 S.3     1  LIG1       -0.1393
     31 H          -7.0816   -7.3694   -0.6323 H       1  LIG1        0.1072
     32 C          -3.6399   -7.3358   -0.1938 C.ar    1  LIG1        0.0827
     33 C          -4.1401   -8.5354    0.3224 C.ar    1  LIG1        0.0915
     34 C          -3.0911   -9.5138    0.2574 C.ar    1  LIG1        0.0401
     35 C          -1.9917   -8.8843   -0.2803 C.ar    1  LIG1        0.0167
     36 N          -2.3307   -7.5700   -0.5319 N.ar    1  LIG1       -0.3574
     37 H          -1.7724   -6.9328   -1.0789 H       1  LIG1        0.1654
     38 H          -1.0053   -9.2613   -0.5012 H       1  LIG1        0.0818
     39 N          -6.5046   -8.8409    1.3115 N.1     1  LIG1       -0.1908
     40 C          -5.4340   -8.7110    0.8703 C.1     1  LIG1        0.1024
     41 S          -3.2666  -11.1809    0.8268 S.3     1  LIG1       -0.1399
     42 H          -2.0780  -11.6110    0.3606 H       1  LIG1        0.1072
@<TRIPOS>BOND
     1    28    29    3
     2    30    24    1
     3    30    31    1
     4    29    23    1
     5     8     9    3
     6    10     3    1
     7    10    11    1
     8    37    36    1
     9    24    23   ar
    10    24    25   ar
    11    23    22   ar
    12     9     2    1
    13    17    16    1
    14    36    35   ar
    15    36    32   ar
    16    38    35    1
    17     3     2   ar
    18     3     4   ar
    19    25    32    1
    20    25    26   ar
    21     2     1   ar
    22    35    34   ar
    23    22    26   ar
    24    22    15    1
    25    32    33   ar
    26    16    15   ar
    27    16    12   ar
    28    26    27    1
    29     4    12    1
    30     4     5   ar
    31    15    14   ar
    32     1     7    1
    33     1     5   ar
    34    34    33   ar
    35    34    41    1
    36    12    13   ar
    37    21    20    1
    38    33    40    1
    39    42    41    1
    40     5     6    1
    41    14    13   ar
    42    14    20    1
    43    13    19    1
    44    40    39    3
    45    19    18    3
