@<TRIPOS>MOLECULE
mol_data/opt/b3lyp/geoms/mol2/13dg13dg-13dg-13dg-.out
 42 45 0 0 0
SMALL
GASTEIGER

@<TRIPOS>ATOM
      1 C           1.2378   -0.0848   -0.1665 C.ar    1  LIG1        0.0208
      2 C           0.7996    1.1077    0.3862 C.ar    1  LIG1        0.0828
      3 C          -0.6364    1.0707    0.4284 C.ar    1  LIG1        0.0489
      4 C          -1.0206   -0.1579   -0.0999 C.ar    1  LIG1        0.0788
      5 N           0.1396   -0.8412   -0.4435 N.ar    1  LIG1       -0.3574
      6 H           0.1527   -1.6847   -0.9965 H       1  LIG1        0.1654
      7 H           2.2393   -0.4224   -0.3839 H       1  LIG1        0.0820
      8 N           2.3616    2.9995    1.1996 N.1     1  LIG1       -0.1908
      9 C           1.6474    2.1562    0.8361 C.1     1  LIG1        0.1018
     10 S          -1.6467    2.3070    1.1996 S.3     1  LIG1       -0.1393
     11 H          -2.3606    2.6609    0.1086 H       1  LIG1        0.1072
     12 C          -2.3193   -0.7784   -0.2713 C.ar    1  LIG1        0.0831
     13 C          -3.5162   -0.2935   -0.7962 C.ar    1  LIG1        0.0922
     14 C          -4.5050   -1.3312   -0.7063 C.ar    1  LIG1        0.0496
     15 C          -3.8780   -2.4328   -0.1345 C.ar    1  LIG1        0.0793
     16 N          -2.5500   -2.0853    0.0963 N.ar    1  LIG1       -0.3499
     17 H          -1.9631   -2.5705    0.7603 H       1  LIG1        0.1661
     18 N          -3.7651    2.0474   -1.8576 N.1     1  LIG1       -0.1908
     19 C          -3.6768    0.9862   -1.3864 C.1     1  LIG1        0.1025
     20 S          -6.1199   -1.2146   -1.4279 S.3     1  LIG1       -0.1393
     21 H          -6.8362   -1.4137   -0.2999 H       1  LIG1        0.1072
     22 C          -4.3474   -3.7664    0.1769 C.ar    1  LIG1        0.0831
     23 C          -5.5299   -4.2235    0.7600 C.ar    1  LIG1        0.0922
     24 C          -5.4798   -5.6577    0.8198 C.ar    1  LIG1        0.0496
     25 C          -4.2565   -6.0393    0.2850 C.ar    1  LIG1        0.0793
     26 N          -3.5771   -4.8806   -0.0756 N.ar    1  LIG1       -0.3499
     27 H          -2.8158   -4.8773   -0.7396 H       1  LIG1        0.1661
     28 N          -7.3638   -2.6697    1.7030 N.1     1  LIG1       -0.1908
     29 C          -6.5495   -3.3899    1.2851 C.1     1  LIG1        0.1025
     30 S          -6.6929   -6.6638    1.6327 S.3     1  LIG1       -0.1393
     31 H          -7.0823   -7.3774    0.5537 H       1  LIG1        0.1072
     32 C          -3.6412   -7.3389    0.1002 C.ar    1  LIG1        0.0827
     33 C          -4.1444   -8.5297   -0.4330 C.ar    1  LIG1        0.0915
     34 C          -3.0951   -9.5090   -0.3905 C.ar    1  LIG1        0.0401
     35 C          -1.9927   -8.8887    0.1515 C.ar    1  LIG1        0.0167
     36 N          -2.3298   -7.5782    0.4254 N.ar    1  LIG1       -0.3574
     37 H          -1.7677   -6.9499    0.9789 H       1  LIG1        0.1654
     38 H          -1.0054   -9.2695    0.3615 H       1  LIG1        0.0818
     39 N          -6.5139   -8.8195   -1.4152 N.1     1  LIG1       -0.1908
     40 C          -5.4411   -8.6963   -0.9772 C.1     1  LIG1        0.1024
     41 S          -3.2761  -11.1676   -0.9822 S.3     1  LIG1       -0.1399
     42 H          -2.0514  -11.5820   -0.6034 H       1  LIG1        0.1072
@<TRIPOS>BOND
     1    18    19    3
     2    20    14    1
     3    20    21    1
     4    39    40    3
     5    19    13    1
     6     6     5    1
     7    41    42    1
     8    41    34    1
     9    40    33    1
    10    13    14   ar
    11    13    12   ar
    12    27    26    1
    13    14    15   ar
    14     5     1   ar
    15     5     4   ar
    16    33    34   ar
    17    33    32   ar
    18    34    35   ar
    19     7     1    1
    20    12     4    1
    21    12    16   ar
    22     1     2   ar
    23    15    16   ar
    24    15    22    1
    25     4     3   ar
    26    26    22   ar
    27    26    25   ar
    28    16    17    1
    29    32    25    1
    30    32    36   ar
    31    11    10    1
    32    35    38    1
    33    35    36   ar
    34    22    23   ar
    35    25    24   ar
    36     2     3   ar
    37     2     9    1
    38    36    37    1
    39     3    10    1
    40    31    30    1
    41    23    24   ar
    42    23    29    1
    43    24    30    1
    44     9     8    3
    45    29    28    3
