@<TRIPOS>MOLECULE
mol_data/opt/b3lyp/geoms/mol2/13dg13dg-.out
 22 23 0 0 0
SMALL
GASTEIGER

@<TRIPOS>ATOM
      1 C           1.1481   -0.2823   -0.5495 C.ar    1  LIG1        0.0208
      2 C           0.8419    0.9203    0.0669 C.ar    1  LIG1        0.0828
      3 C          -0.5574    0.9000    0.3954 C.ar    1  LIG1        0.0489
      4 C          -1.0527   -0.3262   -0.0332 C.ar    1  LIG1        0.0788
      5 N           0.0067   -1.0239   -0.5977 N.ar    1  LIG1       -0.3574
      6 H          -0.0980   -1.8818   -1.1183 H       1  LIG1        0.1654
      7 H           2.0833   -0.6375   -0.9537 H       1  LIG1        0.0820
      8 N           2.5519    2.8016    0.5321 N.1     1  LIG1       -0.1908
      9 C           1.7725    1.9624    0.3273 C.1     1  LIG1        0.1018
     10 S          -1.3902    2.1531    1.3361 S.3     1  LIG1       -0.1393
     11 H          -2.2688    2.5402    0.3857 H       1  LIG1        0.1072
     12 C          -2.3711   -0.9264    0.0509 C.ar    1  LIG1        0.0827
     13 C          -3.6354   -0.4271   -0.2762 C.ar    1  LIG1        0.0915
     14 C          -4.5983   -1.4584   -0.0080 C.ar    1  LIG1        0.0401
     15 C          -3.8981   -2.5468    0.4587 C.ar    1  LIG1        0.0167
     16 N          -2.5576   -2.2170    0.4759 N.ar    1  LIG1       -0.3574
     17 H          -1.8391   -2.7691    0.9191 H       1  LIG1        0.1654
     18 H          -4.2410   -3.5194    0.7757 H       1  LIG1        0.0818
     19 N          -4.0853    1.9050   -1.2876 N.1     1  LIG1       -0.1908
     20 C          -3.8890    0.8498   -0.8337 C.1     1  LIG1        0.1024
     21 S          -6.3367   -1.2784   -0.2939 S.3     1  LIG1       -0.1399
     22 H          -6.6869   -2.4661    0.2371 H       1  LIG1        0.1072
@<TRIPOS>BOND
     1    19    20    3
     2     6     5    1
     3     7     1    1
     4    20    13    1
     5     5     1   ar
     6     5     4   ar
     7     1     2   ar
     8    21    14    1
     9    21    22    1
    10    13    14   ar
    11    13    12   ar
    12     4    12    1
    13     4     3   ar
    14    14    15   ar
    15    12    16   ar
    16     2     9    1
    17     2     3   ar
    18     9     8    3
    19    11    10    1
    20     3    10    1
    21    15    16   ar
    22    15    18    1
    23    16    17    1
