@<TRIPOS>MOLECULE
mol_data/opt/b3lyp/geoms/mol2/13dg13dg-13dg-13dg.out
 42 45 0 0 0
SMALL
GASTEIGER

@<TRIPOS>ATOM
      1 C           0.9737   -1.3106    1.0614 C.ar    1  LIG1        0.0208
      2 C           0.8055    0.0090    1.4565 C.ar    1  LIG1        0.0828
      3 C          -0.5335    0.4002    1.1183 C.ar    1  LIG1        0.0489
      4 C          -1.1342   -0.7075    0.5216 C.ar    1  LIG1        0.0788
      5 N          -0.1903   -1.7316    0.5055 N.ar    1  LIG1       -0.3574
      6 H          -0.3167   -2.6364    0.0673 H       1  LIG1        0.1654
      7 H           1.8409   -1.9493    1.1277 H       1  LIG1        0.0820
      8 N           2.6247    1.4323    2.6157 N.1     1  LIG1       -0.1908
      9 C           1.7980    0.8019    2.0932 C.1     1  LIG1        0.1018
     10 S          -1.2533    1.9389    1.6197 S.3     1  LIG1       -0.1393
     11 H          -1.7022    2.3431    0.4126 H       1  LIG1        0.1072
     12 C          -2.4701   -0.9736    0.0366 C.ar    1  LIG1        0.0831
     13 C          -3.4220   -0.2235   -0.6647 C.ar    1  LIG1        0.0922
     14 C          -4.5683   -1.0588   -0.9080 C.ar    1  LIG1        0.0496
     15 C          -4.2807   -2.3053   -0.3649 C.ar    1  LIG1        0.0793
     16 N          -3.0059   -2.2233    0.1968 N.ar    1  LIG1       -0.3499
     17 H          -2.6614   -2.8750    0.8885 H       1  LIG1        0.1661
     18 N          -3.0441    2.1600   -1.5818 N.1     1  LIG1       -0.1908
     19 C          -3.2299    1.0874   -1.1666 C.1     1  LIG1        0.1025
     20 S          -5.9241   -0.5444   -1.9190 S.3     1  LIG1       -0.1393
     21 H          -6.9017   -1.1714   -1.2335 H       1  LIG1        0.1072
     22 C          -4.8663   -3.6237   -0.4360 C.ar    1  LIG1        0.0831
     23 C          -6.1546   -4.1740   -0.4128 C.ar    1  LIG1        0.0922
     24 C          -6.0172   -5.6048   -0.4480 C.ar    1  LIG1        0.0496
     25 C          -4.6544   -5.8909   -0.4837 C.ar    1  LIG1        0.0793
     26 N          -3.9982   -4.6809   -0.4845 N.ar    1  LIG1       -0.3499
     27 H          -3.0055   -4.5733   -0.6412 H       1  LIG1        0.1661
     28 N          -8.3506   -2.8437   -0.1535 N.1     1  LIG1       -0.1908
     29 C          -7.3648   -3.4532   -0.2761 C.1     1  LIG1        0.1025
     30 S          -7.3366   -6.7885   -0.5206 S.3     1  LIG1       -0.1393
     31 H          -7.7625   -6.6886    0.7585 H       1  LIG1        0.1072
     32 C          -3.8827   -7.1118   -0.4720 C.ar    1  LIG1        0.0827
     33 C          -2.4917   -7.2885   -0.3347 C.ar    1  LIG1        0.0915
     34 C          -2.2300   -8.7013   -0.3518 C.ar    1  LIG1        0.0401
     35 C          -3.4481   -9.3242   -0.5053 C.ar    1  LIG1        0.0167
     36 N          -4.4240   -8.3619   -0.5805 N.ar    1  LIG1       -0.3574
     37 H          -5.4218   -8.5192   -0.6627 H       1  LIG1        0.1654
     38 H          -3.6821  -10.3753   -0.5700 H       1  LIG1        0.0818
     39 N          -0.9002   -5.2762   -0.0673 N.1     1  LIG1       -0.1908
     40 C          -1.5650   -6.2298   -0.1848 C.1     1  LIG1        0.1024
     41 S          -0.6529   -9.5121   -0.3179 S.3     1  LIG1       -0.1399
     42 H          -0.3642   -9.2903    0.9836 H       1  LIG1        0.1072
@<TRIPOS>BOND
     1    20    21    1
     2    20    14    1
     3    18    19    3
     4    19    13    1
     5    14    13   ar
     6    14    15   ar
     7    13    12   ar
     8    37    36    1
     9    27    26    1
    10    36    35   ar
    11    36    32   ar
    12    38    35    1
    13    30    24    1
    14    30    31    1
    15    35    34   ar
    16    26    25   ar
    17    26    22   ar
    18    25    32    1
    19    25    24   ar
    20    32    33   ar
    21    24    23   ar
    22    22    23   ar
    23    22    15    1
    24    23    29    1
    25    15    16   ar
    26    34    33   ar
    27    34    41    1
    28    33    40    1
    29    41    42    1
    30    29    28    3
    31    40    39    3
    32    12    16   ar
    33    12     4    1
    34     6     5    1
    35    16    17    1
    36    11    10    1
    37     5     4   ar
    38     5     1   ar
    39     4     3   ar
    40     1     7    1
    41     1     2   ar
    42     3     2   ar
    43     3    10    1
    44     2     9    1
    45     9     8    3
