@<TRIPOS>MOLECULE
mol_data/opt/b3lyp/geoms/mol2/13dg13dg-13dg-.out
 32 34 0 0 0
SMALL
GASTEIGER

@<TRIPOS>ATOM
      1 C           1.2248   -0.1948   -0.2789 C.ar    1  LIG1        0.0208
      2 C           0.8418    0.9143    0.4578 C.ar    1  LIG1        0.0828
      3 C          -0.5899    0.8867    0.5811 C.ar    1  LIG1        0.0489
      4 C          -1.0274   -0.2522   -0.0885 C.ar    1  LIG1        0.0788
      5 N           0.0980   -0.8923   -0.5925 N.ar    1  LIG1       -0.3574
      6 H           0.0643   -1.6584   -1.2477 H       1  LIG1        0.1654
      7 H           2.2055   -0.5113   -0.5985 H       1  LIG1        0.0820
      8 N           2.4831    2.6601    1.4265 N.1     1  LIG1       -0.1908
      9 C           1.7336    1.8818    0.9952 C.1     1  LIG1        0.1018
     10 S          -1.5290    2.0122    1.5786 S.3     1  LIG1       -0.1393
     11 H          -2.2972    2.5284    0.5945 H       1  LIG1        0.1072
     12 C          -2.3446   -0.8298   -0.2667 C.ar    1  LIG1        0.0831
     13 C          -3.5639   -0.2639   -0.6375 C.ar    1  LIG1        0.0922
     14 C          -4.5602   -1.2988   -0.6421 C.ar    1  LIG1        0.0496
     15 C          -3.9168   -2.4767   -0.2849 C.ar    1  LIG1        0.0793
     16 N          -2.5740   -2.1755   -0.0841 N.ar    1  LIG1       -0.3499
     17 H          -1.9538   -2.7645    0.4542 H       1  LIG1        0.1661
     18 N          -3.8451    2.2087   -1.3271 N.1     1  LIG1       -0.1908
     19 C          -3.7416    1.0898   -1.0213 C.1     1  LIG1        0.1025
     20 S          -6.2226   -1.0759   -1.2185 S.3     1  LIG1       -0.1393
     21 H          -6.8559   -1.3967   -0.0691 H       1  LIG1        0.1072
     22 C          -4.3916   -3.8383   -0.1395 C.ar    1  LIG1        0.0827
     23 C          -5.5195   -4.3605    0.5023 C.ar    1  LIG1        0.0915
     24 C          -5.4893   -5.7884    0.3524 C.ar    1  LIG1        0.0401
     25 C          -4.3505   -6.0911   -0.3580 C.ar    1  LIG1        0.0167
     26 N          -3.6909   -4.9098   -0.6325 N.ar    1  LIG1       -0.3574
     27 H          -2.9155   -4.8253   -1.2716 H       1  LIG1        0.1654
     28 H          -3.9590   -7.0415   -0.6859 H       1  LIG1        0.0818
     29 N          -7.2488   -2.9699    1.8206 N.1     1  LIG1       -0.1908
     30 C          -6.4701   -3.6045    1.2298 C.1     1  LIG1        0.1024
     31 S          -6.7187   -6.8715    1.0229 S.3     1  LIG1       -0.1399
     32 H          -6.1884   -8.0056    0.5251 H       1  LIG1        0.1072
@<TRIPOS>BOND
     1    18    19    3
     2    27    26    1
     3     6     5    1
     4    20    14    1
     5    20    21    1
     6    19    13    1
     7    28    25    1
     8    14    13   ar
     9    14    15   ar
    10    13    12   ar
    11    26    25   ar
    12    26    22   ar
    13     7     1    1
    14     5     1   ar
    15     5     4   ar
    16    25    24   ar
    17    15    22    1
    18    15    16   ar
    19     1     2   ar
    20    12     4    1
    21    12    16   ar
    22    22    23   ar
    23     4     3   ar
    24    16    17    1
    25    24    23   ar
    26    24    31    1
    27     2     3   ar
    28     2     9    1
    29    23    30    1
    30    32    31    1
    31     3    10    1
    32    11    10    1
    33     9     8    3
    34    30    29    3
