@<TRIPOS>MOLECULE
mol_data/opt/b3lyp/geoms/mol2/13dg13dg.out
 22 23 0 0 0
SMALL
GASTEIGER

@<TRIPOS>ATOM
      1 C           1.1517   -0.2884    0.5310 C.ar    1  LIG1        0.0208
      2 C           0.8385    0.9286   -0.0525 C.ar    1  LIG1        0.0828
      3 C          -0.5635    0.9140   -0.3703 C.ar    1  LIG1        0.0489
      4 C          -1.0530   -0.3237    0.0313 C.ar    1  LIG1        0.0788
      5 N           0.0120   -1.0333    0.5696 N.ar    1  LIG1       -0.3574
      6 H          -0.0872   -1.9040    1.0696 H       1  LIG1        0.1654
      7 H           2.0905   -0.6517    0.9192 H       1  LIG1        0.0820
      8 N           2.5417    2.8244   -0.4830 N.1     1  LIG1       -0.1908
      9 C           1.7653    1.9787   -0.2937 C.1     1  LIG1        0.1018
     10 S          -1.4049    2.1879   -1.2728 S.3     1  LIG1       -0.1393
     11 H          -2.2788    2.5481   -0.3076 H       1  LIG1        0.1072
     12 C          -2.3705   -0.9250   -0.0589 C.ar    1  LIG1        0.0827
     13 C          -3.6337   -0.4372    0.2885 C.ar    1  LIG1        0.0915
     14 C          -4.5958   -1.4643    0.0013 C.ar    1  LIG1        0.0401
     15 C          -3.8960   -2.5389   -0.4969 C.ar    1  LIG1        0.0167
     16 N          -2.5563   -2.2055   -0.5137 N.ar    1  LIG1       -0.3574
     17 H          -1.8393   -2.7443   -0.9753 H       1  LIG1        0.1654
     18 H          -4.2384   -3.5042   -0.8358 H       1  LIG1        0.0818
     19 N          -4.0834    1.8673    1.3612 N.1     1  LIG1       -0.1908
     20 C          -3.8871    0.8244    0.8797 C.1     1  LIG1        0.1024
     21 S          -6.3333   -1.2948    0.3010 S.3     1  LIG1       -0.1399
     22 H          -6.6795   -2.4870   -0.2225 H       1  LIG1        0.1072
@<TRIPOS>BOND
     1    10     3    1
     2    10    11    1
     3    17    16    1
     4    18    15    1
     5    16    15   ar
     6    16    12   ar
     7    15    14   ar
     8     8     9    3
     9     3     2   ar
    10     3     4   ar
    11     9     2    1
    12    22    21    1
    13    12     4    1
    14    12    13   ar
    15     2     1   ar
    16    14    13   ar
    17    14    21    1
    18     4     5   ar
    19    13    20    1
    20     1     5   ar
    21     1     7    1
    22     5     6    1
    23    20    19    3
