@<TRIPOS>MOLECULE
mol_data/opt/b3lyp/geoms/mol2/13dg13dg13dg.out
 32 34 0 0 0
SMALL
GASTEIGER

@<TRIPOS>ATOM
      1 C           1.2207   -0.1881    0.2849 C.ar    1  LIG1        0.0208
      2 C           0.8351    0.9265   -0.4422 C.ar    1  LIG1        0.0828
      3 C          -0.5966    0.8969   -0.5652 C.ar    1  LIG1        0.0489
      4 C          -1.0314   -0.2484    0.0949 C.ar    1  LIG1        0.0788
      5 N           0.0954   -0.8906    0.5929 N.ar    1  LIG1       -0.3574
      6 H           0.0636   -1.6619    1.2421 H       1  LIG1        0.1654
      7 H           2.2022   -0.5052    0.6013 H       1  LIG1        0.0820
      8 N           2.4723    2.6839   -1.3966 N.1     1  LIG1       -0.1908
      9 C           1.7246    1.9004   -0.9717 C.1     1  LIG1        0.1018
     10 S          -1.5385    2.0292   -1.5522 S.3     1  LIG1       -0.1393
     11 H          -2.3079    2.5345   -0.5634 H       1  LIG1        0.1072
     12 C          -2.3474   -0.8307    0.2680 C.ar    1  LIG1        0.0831
     13 C          -3.5679   -0.2710    0.6439 C.ar    1  LIG1        0.0922
     14 C          -4.5619   -1.3082    0.6389 C.ar    1  LIG1        0.0496
     15 C          -3.9158   -2.4813    0.2710 C.ar    1  LIG1        0.0793
     16 N          -2.5736   -2.1753    0.0731 N.ar    1  LIG1       -0.3499
     17 H          -1.9521   -2.7578   -0.4706 H       1  LIG1        0.1661
     18 N          -3.8545    2.1947    1.3557 N.1     1  LIG1       -0.1908
     19 C          -3.7487    1.0787    1.0399 C.1     1  LIG1        0.1025
     20 S          -6.2250   -1.0946    1.2171 S.3     1  LIG1       -0.1393
     21 H          -6.8573   -1.4051    0.0644 H       1  LIG1        0.1072
     22 C          -4.3874   -3.8427    0.1130 C.ar    1  LIG1        0.0827
     23 C          -5.5141   -4.3615   -0.5337 C.ar    1  LIG1        0.0915
     24 C          -5.4804   -5.7907   -0.3973 C.ar    1  LIG1        0.0401
     25 C          -4.3409   -6.0973    0.3103 C.ar    1  LIG1        0.0167
     26 N          -3.6840   -4.9171    0.5957 N.ar    1  LIG1       -0.3574
     27 H          -2.9084   -4.8368    1.2350 H       1  LIG1        0.1654
     28 H          -3.9473   -7.0496    0.6296 H       1  LIG1        0.0818
     29 N          -7.2467   -2.9629   -1.8391 N.1     1  LIG1       -0.1908
     30 C          -6.4665   -3.6010   -1.2541 C.1     1  LIG1        0.1024
     31 S          -6.7077   -6.8702   -1.0772 S.3     1  LIG1       -0.1399
     32 H          -6.1670   -8.0089   -0.6017 H       1  LIG1        0.1072
@<TRIPOS>BOND
     1    29    30    3
     2    10     3    1
     3    10    11    1
     4     8     9    3
     5    30    23    1
     6    31    32    1
     7    31    24    1
     8     9     2    1
     9     3     2   ar
    10     3     4   ar
    11    23    24   ar
    12    23    22   ar
    13    17    16    1
    14     2     1   ar
    15    24    25   ar
    16    21    20    1
    17    16    12   ar
    18    16    15   ar
    19     4    12    1
    20     4     5   ar
    21    22    15    1
    22    22    26   ar
    23    12    13   ar
    24    15    14   ar
    25     1     5   ar
    26     1     7    1
    27    25    26   ar
    28    25    28    1
    29     5     6    1
    30    26    27    1
    31    14    13   ar
    32    14    20    1
    33    13    19    1
    34    19    18    3
