@<TRIPOS>MOLECULE
mol_data/opt/b3lyp/geoms/mol2/13dh13dh-.out
 24 25 0 0 0
SMALL
GASTEIGER

@<TRIPOS>ATOM
      1 C           1.2014   -0.3242   -0.0334 C.ar    1  LIG1        0.0215
      2 C           0.7810    0.9984   -0.0847 C.ar    1  LIG1        0.0903
      3 C          -0.6545    0.9882   -0.0940 C.ar    1  LIG1        0.0693
      4 C          -1.0539   -0.3403   -0.0487 C.ar    1  LIG1        0.0864
      5 N           0.0926   -1.1126   -0.0107 N.ar    1  LIG1       -0.3568
      6 H           0.0961   -2.1237    0.0267 H       1  LIG1        0.1655
      7 H           2.1974   -0.7378   -0.0118 H       1  LIG1        0.0820
      8 N           2.2291    3.1352   -0.1569 N.1     1  LIG1       -0.1908
      9 C           1.5985    2.1563   -0.1233 C.1     1  LIG1        0.1025
     10 N          -1.5630    2.0912   -0.1386 N.pl3   1  LIG1       -0.3553
     11 H          -1.4507    2.6806    0.6849 H       1  LIG1        0.1424
     12 H          -1.3642    2.6858   -0.9414 H       1  LIG1        0.1424
     13 C          -2.3867   -0.8909   -0.0434 C.ar    1  LIG1        0.0841
     14 C          -2.8497   -2.2197   -0.0018 C.ar    1  LIG1        0.0990
     15 C          -4.2854   -2.1798   -0.0318 C.ar    1  LIG1        0.0604
     16 C          -4.6405   -0.8453   -0.0929 C.ar    1  LIG1        0.0243
     17 N          -3.4819   -0.0917   -0.0948 N.ar    1  LIG1       -0.3568
     18 H          -3.3796    0.9186   -0.1430 H       1  LIG1        0.1655
     19 H          -5.6141   -0.3821   -0.1194 H       1  LIG1        0.0826
     20 N          -1.2937   -4.2737    0.0803 N.1     1  LIG1       -0.1907
     21 C          -2.0241   -3.3622    0.0481 C.1     1  LIG1        0.1032
     22 N          -5.1216   -3.2911    0.0676 N.pl3   1  LIG1       -0.3558
     23 H          -6.0389   -3.1550   -0.3361 H       1  LIG1        0.1424
     24 H          -4.7037   -4.1476   -0.2740 H       1  LIG1        0.1424
@<TRIPOS>BOND
     1    12    10    1
     2    23    22    1
     3    24    22    1
     4     8     9    3
     5    18    17    1
     6    10     3    1
     7    10    11    1
     8     9     2    1
     9    19    16    1
    10    17    16   ar
    11    17    13   ar
    12     3     2   ar
    13     3     4   ar
    14    16    15   ar
    15     2     1   ar
    16     4    13    1
    17     4     5   ar
    18    13    14   ar
    19     1     7    1
    20     1     5   ar
    21    15    14   ar
    22    15    22    1
    23     5     6    1
    24    14    21    1
    25    21    20    3
