@<TRIPOS>MOLECULE
mol_data/opt/b3lyp/geoms/mol2/13dh13dh13dh13dh-.out
 46 49 0 0 0
SMALL
GASTEIGER

@<TRIPOS>ATOM
      1 C           1.1355   -0.7622   -0.0564 C.ar    1  LIG1        0.0215
      2 C           0.9377    0.5885   -0.3174 C.ar    1  LIG1        0.0903
      3 C          -0.4790    0.8408   -0.3003 C.ar    1  LIG1        0.0693
      4 C          -1.0983   -0.3863   -0.0226 C.ar    1  LIG1        0.0864
      5 N          -0.0743   -1.3400    0.1042 N.ar    1  LIG1       -0.3568
      6 H          -0.2121   -2.2835    0.4402 H       1  LIG1        0.1655
      7 H           2.0554   -1.3175    0.0415 H       1  LIG1        0.0820
      8 N           2.7079    2.4103   -0.7734 N.1     1  LIG1       -0.1908
      9 C           1.9306    1.5668   -0.5673 C.1     1  LIG1        0.1025
     10 N          -1.0506    2.0478   -0.6221 N.pl3   1  LIG1       -0.3553
     11 H          -0.4053    2.8255   -0.6566 H       1  LIG1        0.1424
     12 H          -1.9356    2.2852   -0.1929 H       1  LIG1        0.1424
     13 C          -2.4679   -0.8067    0.0325 C.ar    1  LIG1        0.0846
     14 C          -3.6715   -0.1418    0.3181 C.ar    1  LIG1        0.0997
     15 C          -4.7577   -1.0863    0.2050 C.ar    1  LIG1        0.0699
     16 C          -4.1891   -2.3127   -0.1362 C.ar    1  LIG1        0.0869
     17 N          -2.7924   -2.1162   -0.2080 N.ar    1  LIG1       -0.3493
     18 H          -2.2168   -2.6818   -0.8177 H       1  LIG1        0.1661
     19 N          -3.9369    2.3042    1.0876 N.1     1  LIG1       -0.1907
     20 C          -3.8146    1.1934    0.7479 C.1     1  LIG1        0.1032
     21 N          -6.0589   -0.8009    0.5302 N.pl3   1  LIG1       -0.3553
     22 H          -6.2880    0.1803    0.6017 H       1  LIG1        0.1424
     23 H          -6.7902   -1.3605    0.1111 H       1  LIG1        0.1424
     24 C          -4.6697   -3.6602   -0.2083 C.ar    1  LIG1        0.0846
     25 C          -5.9137   -4.2693   -0.4646 C.ar    1  LIG1        0.0997
     26 C          -5.7200   -5.6957   -0.4131 C.ar    1  LIG1        0.0699
     27 C          -4.3809   -5.9184   -0.1462 C.ar    1  LIG1        0.0869
     28 N          -3.7736   -4.6816   -0.0312 N.ar    1  LIG1       -0.3493
     29 H          -2.8363   -4.5463    0.3201 H       1  LIG1        0.1661
     30 N          -8.1091   -3.0387   -1.0254 N.1     1  LIG1       -0.1907
     31 C          -7.1178   -3.6034   -0.7749 C.1     1  LIG1        0.1032
     32 N          -6.6672   -6.7460   -0.6110 N.pl3   1  LIG1       -0.3553
     33 H          -7.4170   -6.6856    0.0763 H       1  LIG1        0.1424
     34 H          -7.1123   -6.6641   -1.5239 H       1  LIG1        0.1424
     35 C          -3.6316   -7.1373   -0.0164 C.ar    1  LIG1        0.0842
     36 C          -2.2488   -7.3416    0.1871 C.ar    1  LIG1        0.0990
     37 C          -2.0237   -8.7615    0.2247 C.ar    1  LIG1        0.0604
     38 C          -3.2552   -9.3600    0.0413 C.ar    1  LIG1        0.0243
     39 N          -4.2057   -8.3618   -0.0943 N.ar    1  LIG1       -0.3568
     40 H          -5.2003   -8.4582   -0.2715 H       1  LIG1        0.1655
     41 H          -3.5267  -10.4033    0.0139 H       1  LIG1        0.0826
     42 N          -0.6042   -5.3663    0.3855 N.1     1  LIG1       -0.1907
     43 C          -1.3065   -6.2990    0.3056 C.1     1  LIG1        0.1032
     44 N          -0.7987   -9.3738    0.4831 N.pl3   1  LIG1       -0.3558
     45 H          -0.7377  -10.3292    0.1569 H       1  LIG1        0.1424
     46 H           0.0025   -8.8383    0.1733 H       1  LIG1        0.1424
@<TRIPOS>BOND
     1    34    32    1
     2    30    31    3
     3    18    17    1
     4    31    25    1
     5     8     9    3
     6    11    10    1
     7    10     3    1
     8    10    12    1
     9    32    26    1
    10    32    33    1
    11     9     2    1
    12    25    26   ar
    13    25    24   ar
    14    26    27   ar
    15     2     3   ar
    16     2     1   ar
    17     3     4   ar
    18    40    39    1
    19    24    16    1
    20    24    28   ar
    21    17    16   ar
    22    17    13   ar
    23    27    28   ar
    24    27    35    1
    25    16    15   ar
    26    39    35   ar
    27    39    38   ar
    28     1     7    1
    29     1     5   ar
    30    28    29    1
    31     4    13    1
    32     4     5   ar
    33    35    36   ar
    34    41    38    1
    35    13    14   ar
    36    38    37   ar
    37     5     6    1
    38    23    21    1
    39    45    44    1
    40    46    44    1
    41    36    37   ar
    42    36    43    1
    43    15    14   ar
    44    15    21    1
    45    37    44    1
    46    43    42    3
    47    14    20    1
    48    21    22    1
    49    20    19    3
