@<TRIPOS>MOLECULE
mol_data/opt/b3lyp/geoms/mol2/13dh13dh-13dh-13dh.out
 46 49 0 0 0
SMALL
GASTEIGER

@<TRIPOS>ATOM
      1 C           1.1653   -0.0535    0.0060 C.ar    1  LIG1        0.0215
      2 C           0.6093    1.1709    0.3660 C.ar    1  LIG1        0.0903
      3 C          -0.8149    1.0285    0.3065 C.ar    1  LIG1        0.0693
      4 C          -1.0727   -0.2862   -0.0776 C.ar    1  LIG1        0.0864
      5 N           0.1499   -0.9105   -0.2669 N.ar    1  LIG1       -0.3568
      6 H           0.2586   -1.8732   -0.5570 H       1  LIG1        0.1655
      7 H           2.2001   -0.3468   -0.0758 H       1  LIG1        0.0820
      8 N           1.8331    3.3427    1.0388 N.1     1  LIG1       -0.1908
      9 C           1.3046    2.3516    0.7303 C.1     1  LIG1        0.1025
     10 N          -1.8113    1.9814    0.6239 N.pl3   1  LIG1       -0.3553
     11 H          -1.4491    2.7136    1.2277 H       1  LIG1        0.1424
     12 H          -2.2244    2.4378   -0.1902 H       1  LIG1        0.1424
     13 C          -2.3439   -0.9405   -0.2048 C.ar    1  LIG1        0.0846
     14 C          -2.7055   -2.2587   -0.5382 C.ar    1  LIG1        0.0997
     15 C          -4.1354   -2.3670   -0.4406 C.ar    1  LIG1        0.0699
     16 C          -4.6049   -1.1068   -0.0467 C.ar    1  LIG1        0.0869
     17 N          -3.4896   -0.2689    0.0692 N.ar    1  LIG1       -0.3493
     18 H          -3.4424    0.6239    0.5595 H       1  LIG1        0.1661
     19 N          -1.0083   -4.0837   -1.1982 N.1     1  LIG1       -0.1907
     20 C          -1.7996   -3.2751   -0.9071 C.1     1  LIG1        0.1032
     21 N          -4.8592   -3.4782   -0.8051 N.pl3   1  LIG1       -0.3553
     22 H          -5.7486   -3.6305   -0.3467 H       1  LIG1        0.1424
     23 H          -4.3197   -4.3262   -0.9107 H       1  LIG1        0.1424
     24 C          -5.9092   -0.5148    0.0414 C.ar    1  LIG1        0.0846
     25 C          -7.2029   -1.0057    0.3002 C.ar    1  LIG1        0.0997
     26 C          -8.1103    0.1100    0.2597 C.ar    1  LIG1        0.0699
     27 C          -7.3583    1.2412   -0.0056 C.ar    1  LIG1        0.0869
     28 N          -6.0406    0.8395   -0.1266 N.ar    1  LIG1       -0.3493
     29 H          -5.2981    1.4412   -0.4543 H       1  LIG1        0.1661
     30 N          -7.8180   -3.4467    0.8587 N.1     1  LIG1       -0.1907
     31 C          -7.5442   -2.3391    0.6095 C.1     1  LIG1        0.1032
     32 N          -9.5234    0.1327    0.4661 N.pl3   1  LIG1       -0.3553
     33 H          -9.9902   -0.4980   -0.1836 H       1  LIG1        0.1424
     34 H          -9.7570   -0.1986    1.4010 H       1  LIG1        0.1424
     35 C          -7.7532    2.6167   -0.1427 C.ar    1  LIG1        0.0842
     36 C          -6.9853    3.7750   -0.3902 C.ar    1  LIG1        0.0990
     37 C          -7.8906    4.8911   -0.4402 C.ar    1  LIG1        0.0604
     38 C          -9.1565    4.3803   -0.2265 C.ar    1  LIG1        0.0243
     39 N          -9.0459    3.0123   -0.0473 N.ar    1  LIG1       -0.3568
     40 H          -9.7819    2.3369    0.1346 H       1  LIG1        0.1655
     41 H         -10.1109    4.8797   -0.1752 H       1  LIG1        0.0826
     42 N          -4.4251    3.7045   -0.6814 N.1     1  LIG1       -0.1907
     43 C          -5.5846    3.7838   -0.5502 C.1     1  LIG1        0.1032
     44 N          -7.5133    6.2239   -0.5919 N.pl3   1  LIG1       -0.3558
     45 H          -6.6657    6.3529   -1.1300 H       1  LIG1        0.1424
     46 H          -8.2502    6.8256   -0.9353 H       1  LIG1        0.1424
@<TRIPOS>BOND
     1    19    20    3
     2    45    44    1
     3    46    44    1
     4    23    21    1
     5    20    14    1
     6    21    15    1
     7    21    22    1
     8    42    43    3
     9    44    37    1
    10     6     5    1
    11    43    36    1
    12    14    15   ar
    13    14    13   ar
    14    29    28    1
    15    15    16   ar
    16    37    36   ar
    17    37    38   ar
    18    36    35   ar
    19     5     4   ar
    20     5     1   ar
    21    38    41    1
    22    38    39   ar
    23    13     4    1
    24    13    17   ar
    25    12    10    1
    26    33    32    1
    27    35    39   ar
    28    35    27    1
    29    28    27   ar
    30    28    24   ar
    31     4     3   ar
    32     7     1    1
    33    39    40    1
    34    16    24    1
    35    16    17   ar
    36    27    26   ar
    37     1     2   ar
    38    24    25   ar
    39    17    18    1
    40    26    25   ar
    41    26    32    1
    42    25    31    1
    43     3     2   ar
    44     3    10    1
    45     2     9    1
    46    32    34    1
    47    31    30    3
    48    10    11    1
    49     9     8    3
