@<TRIPOS>MOLECULE
mol_data/opt/b3lyp/geoms/mol2/13dh13dh.out
 24 25 0 0 0
SMALL
GASTEIGER

@<TRIPOS>ATOM
      1 C           1.1904   -0.3696   -0.4069 C.ar    1  LIG1        0.0215
      2 C           0.8536    0.9296   -0.0528 C.ar    1  LIG1        0.0903
      3 C          -0.5757    0.9890    0.1201 C.ar    1  LIG1        0.0693
      4 C          -1.0610   -0.2951   -0.1374 C.ar    1  LIG1        0.0864
      5 N           0.0481   -1.0987   -0.4375 N.ar    1  LIG1       -0.3568
      6 H          -0.0293   -2.0103   -0.8611 H       1  LIG1        0.1655
      7 H           2.1528   -0.7921   -0.6500 H       1  LIG1        0.0820
      8 N           2.4276    2.9487    0.2771 N.1     1  LIG1       -0.1908
      9 C           1.7394    2.0205    0.1255 C.1     1  LIG1        0.1025
     10 N          -1.2627    2.0982    0.5716 N.pl3   1  LIG1       -0.3553
     11 H          -0.7161    2.9496    0.5630 H       1  LIG1        0.1424
     12 H          -2.1909    2.2410    0.1925 H       1  LIG1        0.1424
     13 C          -2.3765   -0.8762   -0.0344 C.ar    1  LIG1        0.0841
     14 C          -3.6524   -0.3502   -0.2914 C.ar    1  LIG1        0.0990
     15 C          -4.6270   -1.3732   -0.0063 C.ar    1  LIG1        0.0604
     16 C          -3.9252   -2.4868    0.3943 C.ar    1  LIG1        0.0243
     17 N          -2.5678   -2.1751    0.3528 N.ar    1  LIG1       -0.3568
     18 H          -1.8557   -2.7207    0.8123 H       1  LIG1        0.1655
     19 H          -4.2669   -3.4642    0.6957 H       1  LIG1        0.0826
     20 N          -4.1624    1.9986   -1.2239 N.1     1  LIG1       -0.1907
     21 C          -3.9336    0.9310   -0.8088 C.1     1  LIG1        0.1032
     22 N          -6.0060   -1.1989   -0.0872 N.pl3   1  LIG1       -0.3558
     23 H          -6.2903   -0.4652   -0.7240 H       1  LIG1        0.1424
     24 H          -6.5268   -2.0489   -0.2558 H       1  LIG1        0.1424
@<TRIPOS>BOND
     1    20    21    3
     2     6     5    1
     3    21    14    1
     4    23    22    1
     5     7     1    1
     6     5     1   ar
     7     5     4   ar
     8     1     2   ar
     9    14    13   ar
    10    14    15   ar
    11    24    22    1
    12     4    13    1
    13     4     3   ar
    14    22    15    1
    15     2     3   ar
    16     2     9    1
    17    13    17   ar
    18    15    16   ar
    19     3    10    1
    20     9     8    3
    21    12    10    1
    22    17    16   ar
    23    17    18    1
    24    16    19    1
    25    11    10    1
