@<TRIPOS>MOLECULE
mol_data/opt/b3lyp/geoms/mol2/13dh13dh-4dh13dh.out
 48 51 0 0 0
SMALL
GASTEIGER

@<TRIPOS>ATOM
      1 C           1.3757   -0.4502    0.3522 C.ar    1  LIG1        0.0215
      2 C           0.9462    0.8564    0.5735 C.ar    1  LIG1        0.0903
      3 C          -0.4722    0.8822    0.3746 C.ar    1  LIG1        0.0693
      4 C          -0.8575   -0.4197    0.0528 C.ar    1  LIG1        0.0864
      5 N           0.2939   -1.1980    0.0326 N.ar    1  LIG1       -0.3568
      6 H           0.3125   -2.1815   -0.2006 H       1  LIG1        0.1655
      7 H           2.3698   -0.8670    0.3938 H       1  LIG1        0.0820
      8 N           2.3570    2.9219    1.2118 N.1     1  LIG1       -0.1908
      9 C           1.7445    1.9737    0.9233 C.1     1  LIG1        0.1025
     10 N          -1.3368    1.9737    0.5289 N.pl3   1  LIG1       -0.3553
     11 H          -0.8671    2.7902    0.9051 H       1  LIG1        0.1424
     12 H          -1.8457    2.2427   -0.3123 H       1  LIG1        0.1424
     13 C          -2.1755   -0.9410   -0.1645 C.ar    1  LIG1        0.0846
     14 C          -2.6238   -2.2187   -0.5595 C.ar    1  LIG1        0.0996
     15 C          -4.0525   -2.1820   -0.6088 C.ar    1  LIG1        0.0685
     16 C          -4.4493   -0.8910   -0.2467 C.ar    1  LIG1        0.0705
     17 N          -3.2789   -0.1725    0.0026 N.ar    1  LIG1       -0.3504
     18 H          -3.2281    0.7557    0.4050 H       1  LIG1        0.1660
     19 N          -1.0790   -4.2046   -1.1220 N.1     1  LIG1       -0.1907
     20 C          -1.7956   -3.3160   -0.8730 C.1     1  LIG1        0.1032
     21 N          -4.8637   -3.2577   -0.9596 N.pl3   1  LIG1       -0.3553
     22 H          -5.6955   -2.9923   -1.4737 H       1  LIG1        0.1424
     23 H          -4.3623   -3.9943   -1.4421 H       1  LIG1        0.1424
     24 C          -6.0384    1.0790   -0.4019 C.ar    1  LIG1        0.0616
     25 C          -7.3434    1.5772   -0.2921 C.ar    1  LIG1       -0.0328
     26 C          -5.7750   -0.3043   -0.1723 C.ar    1  LIG1        0.0193
     27 C          -8.4350    0.7623    0.0175 C.ar    1  LIG1        0.0215
     28 H          -7.5031    2.6374   -0.4497 H       1  LIG1        0.0638
     29 C          -6.8799   -1.1184    0.1282 C.ar    1  LIG1       -0.0300
     30 C          -8.1849   -0.6268    0.2119 C.ar    1  LIG1        0.0345
     31 H          -6.7089   -2.1694    0.3401 H       1  LIG1        0.0643
     32 N          -4.1267    2.7154   -1.0334 N.1     1  LIG1       -0.1908
     33 C          -4.9967    1.9905   -0.7580 C.1     1  LIG1        0.0998
     34 N          -9.2288   -1.4939    0.5516 N.pl3   1  LIG1       -0.3574
     35 H         -10.1013   -1.3049    0.0712 H       1  LIG1        0.1423
     36 H          -8.9821   -2.4740    0.4946 H       1  LIG1        0.1423
     37 C          -9.7685    1.3485    0.1622 C.ar    1  LIG1        0.0677
     38 C         -10.3567    2.4584   -0.4688 C.ar    1  LIG1        0.0976
     39 C         -11.6595    2.6619    0.1027 C.ar    1  LIG1        0.0603
     40 C         -11.8323    1.6753    1.0530 C.ar    1  LIG1        0.0243
     41 N         -10.6939    0.8888    1.0584 N.ar    1  LIG1       -0.3579
     42 H         -10.4983    0.1497    1.7178 H       1  LIG1        0.1654
     43 H         -12.6612    1.4700    1.7117 H       1  LIG1        0.0826
     44 N          -9.4475    3.8952   -2.4093 N.1     1  LIG1       -0.1907
     45 C          -9.8290    3.2302   -1.5301 C.1     1  LIG1        0.1031
     46 N         -12.5226    3.7006   -0.2291 N.pl3   1  LIG1       -0.3558
     47 H         -12.3314    4.1217   -1.1295 H       1  LIG1        0.1424
     48 H         -13.5050    3.4884   -0.1214 H       1  LIG1        0.1424
@<TRIPOS>BOND
     1    44    45    3
     2    45    38    1
     3    22    21    1
     4    23    21    1
     5    47    46    1
     6    19    20    3
     7    32    33    3
     8    21    15    1
     9    20    14    1
    10    33    24    1
    11    15    14   ar
    12    15    16   ar
    13    14    13   ar
    14    38    39   ar
    15    38    37   ar
    16    28    25    1
    17    24    25   ar
    18    24    26   ar
    19    12    10    1
    20    25    27   ar
    21    16    26    1
    22    16    17   ar
    23    46    48    1
    24    46    39    1
    25     6     5    1
    26    26    29   ar
    27    13    17   ar
    28    13     4    1
    29    17    18    1
    30    27    37    1
    31    27    30   ar
    32     5     4   ar
    33     5     1   ar
    34     4     3   ar
    35    35    34    1
    36    39    40   ar
    37    29    30   ar
    38    29    31    1
    39    37    41   ar
    40    30    34    1
    41     1     7    1
    42     1     2   ar
    43     3    10    1
    44     3     2   ar
    45    36    34    1
    46    10    11    1
    47     2     9    1
    48     9     8    3
    49    40    41   ar
    50    40    43    1
    51    41    42    1
