@<TRIPOS>MOLECULE
mol_data/opt/b3lyp/geoms/mol2/13dh13dh13dh-13dh-.out
 46 49 0 0 0
SMALL
GASTEIGER

@<TRIPOS>ATOM
      1 C           1.2601   -0.2518   -0.2739 C.ar    1  LIG1        0.0215
      2 C           0.9029    1.0399    0.0901 C.ar    1  LIG1        0.0903
      3 C          -0.5343    1.1117    0.1218 C.ar    1  LIG1        0.0693
      4 C          -1.0048   -0.1590   -0.2338 C.ar    1  LIG1        0.0864
      5 N           0.1245   -0.9632   -0.4523 N.ar    1  LIG1       -0.3568
      6 H           0.0952   -1.8857   -0.8598 H       1  LIG1        0.1655
      7 H           2.2382   -0.6797   -0.4296 H       1  LIG1        0.0820
      8 N           2.4406    3.0382    0.6404 N.1     1  LIG1       -0.1908
      9 C           1.7720    2.1171    0.3903 C.1     1  LIG1        0.1025
     10 N          -1.2421    2.2125    0.5484 N.pl3   1  LIG1       -0.3553
     11 H          -0.6870    3.0524    0.6450 H       1  LIG1        0.1424
     12 H          -2.1421    2.3874    0.1204 H       1  LIG1        0.1424
     13 C          -2.3209   -0.7352   -0.2731 C.ar    1  LIG1        0.0846
     14 C          -3.5946   -0.1890   -0.5168 C.ar    1  LIG1        0.0997
     15 C          -4.5542   -1.2524   -0.4268 C.ar    1  LIG1        0.0699
     16 C          -3.8553   -2.4153   -0.1534 C.ar    1  LIG1        0.0869
     17 N          -2.5127   -2.0788   -0.0688 N.ar    1  LIG1       -0.3493
     18 H          -1.7991   -2.7158    0.2589 H       1  LIG1        0.1661
     19 N          -4.1404    2.2487   -1.1559 N.1     1  LIG1       -0.1907
     20 C          -3.8903    1.1447   -0.8703 C.1     1  LIG1        0.1032
     21 N          -5.9704   -1.2024   -0.6120 N.pl3   1  LIG1       -0.3553
     22 H          -6.3914   -0.5443    0.0422 H       1  LIG1        0.1424
     23 H          -6.1979   -0.8576   -1.5438 H       1  LIG1        0.1424
     24 C          -4.3373   -3.7595    0.0019 C.ar    1  LIG1        0.0846
     25 C          -3.6471   -4.9780    0.1407 C.ar    1  LIG1        0.0997
     26 C          -4.6154   -6.0361    0.1906 C.ar    1  LIG1        0.0699
     27 C          -5.8734   -5.4297    0.0770 C.ar    1  LIG1        0.0869
     28 N          -5.6610   -4.0525   -0.0218 N.ar    1  LIG1       -0.3493
     29 H          -6.3360   -3.3347   -0.2731 H       1  LIG1        0.1661
     30 N          -1.0743   -5.0969    0.2390 N.1     1  LIG1       -0.1907
     31 C          -2.2424   -5.0899    0.2016 C.1     1  LIG1        0.1032
     32 N          -4.3161   -7.3622    0.4273 N.pl3   1  LIG1       -0.3553
     33 H          -4.9166   -8.0498   -0.0112 H       1  LIG1        0.1424
     34 H          -3.3378   -7.5943    0.3199 H       1  LIG1        0.1424
     35 C          -7.2129   -5.9550    0.1578 C.ar    1  LIG1        0.0842
     36 C          -7.7654   -7.1863   -0.2363 C.ar    1  LIG1        0.0990
     37 C          -9.1686   -7.1745    0.0898 C.ar    1  LIG1        0.0604
     38 C          -9.4335   -5.9456    0.6503 C.ar    1  LIG1        0.0243
     39 N          -8.2466   -5.2196    0.6684 N.ar    1  LIG1       -0.3568
     40 H          -8.1148   -4.3699    1.1939 H       1  LIG1        0.1655
     41 H         -10.3517   -5.5288    1.0324 H       1  LIG1        0.0826
     42 N          -6.5211   -9.0862   -1.4557 N.1     1  LIG1       -0.1907
     43 C          -7.0901   -8.2244   -0.9094 C.1     1  LIG1        0.1032
     44 N         -10.0360   -8.2475   -0.0968 N.pl3   1  LIG1       -0.3558
     45 H         -11.0066   -7.9865   -0.2079 H       1  LIG1        0.1424
     46 H          -9.7462   -8.8876   -0.8254 H       1  LIG1        0.1424
@<TRIPOS>BOND
     1    23    21    1
     2    42    43    3
     3    19    20    3
     4    43    36    1
     5    20    14    1
     6     6     5    1
     7    46    44    1
     8    21    15    1
     9    21    22    1
    10    14    15   ar
    11    14    13   ar
    12     5     1   ar
    13     5     4   ar
    14     7     1    1
    15    15    16   ar
    16     1     2   ar
    17    29    28    1
    18    13     4    1
    19    13    17   ar
    20    36    37   ar
    21    36    35   ar
    22     4     3   ar
    23    45    44    1
    24    16    17   ar
    25    16    24    1
    26    44    37    1
    27    17    18    1
    28    28    24   ar
    29    28    27   ar
    30    33    32    1
    31    24    25   ar
    32    27    35    1
    33    27    26   ar
    34    37    38   ar
    35     2     3   ar
    36     2     9    1
    37    12    10    1
    38     3    10    1
    39    25    26   ar
    40    25    31    1
    41    35    39   ar
    42    26    32    1
    43    31    30    3
    44    34    32    1
    45     9     8    3
    46    10    11    1
    47    38    39   ar
    48    38    41    1
    49    39    40    1
