@<TRIPOS>MOLECULE
mol_data/opt/b3lyp/geoms/mol2/13dh6ie-13al-4fd.out
 51 54 0 0 0
SMALL
GASTEIGER

@<TRIPOS>ATOM
      1 C           1.2279   -0.0785    1.0024 C.ar    1  LIG1        0.0215
      2 C           0.9783    0.9694    0.1224 C.ar    1  LIG1        0.0902
      3 C          -0.3842    0.8517   -0.3141 C.ar    1  LIG1        0.0678
      4 C          -0.9241   -0.2726    0.3073 C.ar    1  LIG1        0.0705
      5 N           0.0958   -0.8136    1.0943 N.ar    1  LIG1       -0.3579
      6 H          -0.0246   -1.6026    1.7076 H       1  LIG1        0.1654
      7 H           2.1276   -0.3305    1.5415 H       1  LIG1        0.0820
      8 N           2.6024    2.8013   -0.6949 N.1     1  LIG1       -0.1908
      9 C           1.8896    1.9656   -0.3049 C.1     1  LIG1        0.1025
     10 N          -1.0266    1.7445   -1.1687 N.pl3   1  LIG1       -0.3553
     11 H          -0.3862    2.3051   -1.7181 H       1  LIG1        0.1424
     12 H          -1.7376    1.3224   -1.7534 H       1  LIG1        0.1424
     13 C          -2.6007   -2.1965    0.2368 C.ar    1  LIG1        0.0482
     14 C          -2.2832   -0.8113    0.2445 C.ar    1  LIG1        0.0223
     15 C          -3.3655    0.0753    0.1665 C.ar    1  LIG1       -0.0333
     16 C          -4.6891   -0.3746    0.0867 C.ar    1  LIG1        0.0527
     17 C          -4.9051   -1.7792    0.1030 C.ar    1  LIG1        0.1028
     18 N          -3.8586   -2.6303    0.1764 N.ar    1  LIG1       -0.2485
     19 H          -3.1814    1.1444    0.1787 H       1  LIG1        0.0637
     20 C          -1.5482   -3.2796    0.2792 C.3     1  LIG1       -0.0217
     21 H          -1.2239   -3.4931    1.3073 H       1  LIG1        0.0293
     22 H          -0.6628   -3.0118   -0.3036 H       1  LIG1        0.0293
     23 H          -1.9733   -4.2039   -0.1149 H       1  LIG1        0.0293
     24 C          -5.7304    0.5972    0.0045 C.1     1  LIG1       -0.0675
     25 C          -6.5580    1.4784   -0.0656 C.1     1  LIG1       -0.1138
     26 H          -7.2939    2.2467   -0.1252 H       1  LIG1        0.1232
     27 C          -6.2024   -2.4303    0.0324 C.ar    1  LIG1        0.0702
     28 C          -7.5259   -1.9798   -0.0248 C.ar    1  LIG1        0.0076
     29 C          -8.3517   -3.1246   -0.0383 C.ar    1  LIG1        0.1460
     30 C          -7.5348   -4.2643    0.0154 C.ar    1  LIG1        0.0927
     31 N          -6.2413   -3.8004    0.0372 N.ar    1  LIG1       -0.3499
     32 H          -5.3982   -4.3448    0.1508 H       1  LIG1        0.1661
     33 H          -7.8357   -0.9502   -0.0636 H       1  LIG1        0.0676
     34 O          -9.7030   -3.1977   -0.1527 O.3     1  LIG1       -0.4930
     35 C         -10.3876   -1.9572   -0.2196 C.3     1  LIG1        0.0789
     36 H         -11.4487   -2.1967   -0.3044 H       1  LIG1        0.0660
     37 H         -10.2223   -1.3574    0.6849 H       1  LIG1        0.0660
     38 H         -10.0770   -1.3728   -1.0958 H       1  LIG1        0.0660
     39 C          -8.8658   -6.2936    0.7015 C.ar    1  LIG1        0.1261
     40 C          -9.1163   -7.6675    0.6027 C.ar    1  LIG1       -0.0183
     41 C          -7.8295   -5.6948   -0.0570 C.ar    1  LIG1        0.0445
     42 C          -8.3353   -8.4790   -0.2095 C.ar    1  LIG1       -0.0409
     43 H          -9.9197   -8.1051    1.1908 H       1  LIG1        0.0655
     44 C          -7.0505   -6.5314   -0.8661 C.ar    1  LIG1       -0.0316
     45 C          -7.2828   -7.9130   -0.9458 C.ar    1  LIG1        0.0526
     46 H          -6.2616   -6.0938   -1.4687 H       1  LIG1        0.0638
     47 H          -8.5315   -9.5434   -0.2733 H       1  LIG1        0.0631
     48 O          -9.5707   -5.4991    1.5431 O.3     1  LIG1       -0.5061
     49 H         -10.2566   -6.0219    1.9794 H       1  LIG1        0.2922
     50 N          -5.7893   -9.3998   -2.4613 N.1     1  LIG1       -0.1909
     51 C          -6.4610   -8.7327   -1.7840 C.1     1  LIG1        0.0992
@<TRIPOS>BOND
     1    50    51    3
     2    51    45    1
     3    12    10    1
     4    11    10    1
     5    46    44    1
     6    10     3    1
     7    38    35    1
     8    45    44   ar
     9    45    42   ar
    10    44    41   ar
    11     8     9    3
    12     3     2   ar
    13     3     4   ar
    14     9     2    1
    15    36    35    1
    16    22    20    1
    17    47    42    1
    18    35    34    1
    19    35    37    1
    20    42    40   ar
    21    34    29    1
    22    26    25    1
    23    23    20    1
    24    25    24    3
    25    33    28    1
    26    41    30    1
    27    41    39   ar
    28    29    28   ar
    29    29    30   ar
    30    28    27   ar
    31    24    16    1
    32    30    31   ar
    33    27    31   ar
    34    27    17    1
    35    31    32    1
    36    16    17   ar
    37    16    15   ar
    38    17    18   ar
    39     2     1   ar
    40    15    19    1
    41    15    14   ar
    42    18    13   ar
    43    13    14   ar
    44    13    20    1
    45    14     4    1
    46    20    21    1
    47     4     5   ar
    48    40    39   ar
    49    40    43    1
    50    39    48    1
    51     1     5   ar
    52     1     7    1
    53     5     6    1
    54    48    49    1
