@<TRIPOS>MOLECULE
mol_data/opt/b3lyp/geoms/mol2/13dh13dh-13dh.out
 35 37 0 0 0
SMALL
GASTEIGER

@<TRIPOS>ATOM
      1 C           1.2698   -0.3465   -0.0909 C.ar    1  LIG1        0.0215
      2 C           0.8369    0.9738   -0.0875 C.ar    1  LIG1        0.0903
      3 C          -0.5979    0.9506   -0.0731 C.ar    1  LIG1        0.0693
      4 C          -0.9819   -0.3842   -0.0692 C.ar    1  LIG1        0.0864
      5 N           0.1710   -1.1482   -0.0790 N.ar    1  LIG1       -0.3568
      6 H           0.1880   -2.1593   -0.0778 H       1  LIG1        0.1655
      7 H           2.2705   -0.7496   -0.1006 H       1  LIG1        0.0820
      8 N           2.2910    3.1082   -0.1054 N.1     1  LIG1       -0.1908
      9 C           1.6521    2.1346   -0.0972 C.1     1  LIG1        0.1025
     10 N          -1.5313    2.0258   -0.0650 N.pl3   1  LIG1       -0.3553
     11 H          -1.4405    2.6046    0.7670 H       1  LIG1        0.1424
     12 H          -1.4125    2.6409   -0.8665 H       1  LIG1        0.1424
     13 C          -2.3131   -0.9363   -0.0609 C.ar    1  LIG1        0.0846
     14 C          -2.7765   -2.2615   -0.0571 C.ar    1  LIG1        0.0997
     15 C          -4.2085   -2.2127   -0.0528 C.ar    1  LIG1        0.0699
     16 C          -4.5719   -0.8703   -0.0542 C.ar    1  LIG1        0.0869
     17 N          -3.4107   -0.1259   -0.0573 N.ar    1  LIG1       -0.3493
     18 H          -3.3005    0.8907   -0.0638 H       1  LIG1        0.1661
     19 N          -1.2353   -4.3299   -0.0608 N.1     1  LIG1       -0.1907
     20 C          -1.9549   -3.4103   -0.0587 C.1     1  LIG1        0.1032
     21 N          -5.1422   -3.2947   -0.0462 N.pl3   1  LIG1       -0.3553
     22 H          -4.9795   -3.9176   -0.8353 H       1  LIG1        0.1424
     23 H          -5.0348   -3.8604    0.7942 H       1  LIG1        0.1424
     24 C          -5.8918   -0.2913   -0.0533 C.ar    1  LIG1        0.0842
     25 C          -6.3355    1.0454   -0.0509 C.ar    1  LIG1        0.0990
     26 C          -7.7719    1.0244   -0.0591 C.ar    1  LIG1        0.0604
     27 C          -8.1482   -0.3058   -0.0701 C.ar    1  LIG1        0.0243
     28 N          -7.0017   -1.0750   -0.0645 N.ar    1  LIG1       -0.3568
     29 H          -6.9165   -2.0878   -0.0744 H       1  LIG1        0.1655
     30 H          -9.1288   -0.7549   -0.0671 H       1  LIG1        0.0826
     31 N          -4.8519    3.1552   -0.0669 N.1     1  LIG1       -0.1907
     32 C          -5.5242    2.2004   -0.0548 C.1     1  LIG1        0.1032
     33 N          -8.5901    2.1507    0.0126 N.pl3   1  LIG1       -0.3558
     34 H          -8.1472    2.9965   -0.3244 H       1  LIG1        0.1424
     35 H          -9.5015    2.0293   -0.4087 H       1  LIG1        0.1424
@<TRIPOS>BOND
     1    12    10    1
     2    22    21    1
     3    35    33    1
     4    34    33    1
     5     8     9    3
     6     7     1    1
     7     9     2    1
     8     1     2   ar
     9     1     5   ar
    10     2     3   ar
    11     5     6    1
    12     5     4   ar
    13    29    28    1
    14     3     4   ar
    15     3    10    1
    16    27    30    1
    17    27    28   ar
    18    27    26   ar
    19     4    13    1
    20    31    32    3
    21    10    11    1
    22    28    24   ar
    23    18    17    1
    24    13    17   ar
    25    13    14   ar
    26    19    20    3
    27    26    25   ar
    28    26    33    1
    29    20    14    1
    30    17    16   ar
    31    14    15   ar
    32    32    25    1
    33    16    24    1
    34    16    15   ar
    35    24    25   ar
    36    15    21    1
    37    21    23    1
