@<TRIPOS>MOLECULE
mol_data/opt/b3lyp/geoms/mol2/13dh13dh-13dh13dh-.out
 46 49 0 0 0
SMALL
GASTEIGER

@<TRIPOS>ATOM
      1 C           1.3430   -0.3335   -0.0533 C.ar    1  LIG1        0.0215
      2 C           0.9176    0.9883   -0.1107 C.ar    1  LIG1        0.0903
      3 C          -0.5168    0.9729   -0.1104 C.ar    1  LIG1        0.0693
      4 C          -0.9086   -0.3586   -0.0548 C.ar    1  LIG1        0.0864
      5 N           0.2401   -1.1280   -0.0180 N.ar    1  LIG1       -0.3568
      6 H           0.2509   -2.1386    0.0254 H       1  LIG1        0.1655
      7 H           2.3414   -0.7419   -0.0348 H       1  LIG1        0.0820
      8 N           2.3785    3.1160   -0.2045 N.1     1  LIG1       -0.1908
      9 C           1.7377    2.1445   -0.1614 C.1     1  LIG1        0.1025
     10 N          -1.4424    2.0545   -0.1599 N.pl3   1  LIG1       -0.3553
     11 H          -1.3931    2.6357    0.6743 H       1  LIG1        0.1424
     12 H          -1.2676    2.6660   -0.9540 H       1  LIG1        0.1424
     13 C          -2.2429   -0.9028   -0.0462 C.ar    1  LIG1        0.0846
     14 C          -2.7139   -2.2259   -0.0011 C.ar    1  LIG1        0.0997
     15 C          -4.1443   -2.1708   -0.0243 C.ar    1  LIG1        0.0699
     16 C          -4.4979   -0.8254   -0.0778 C.ar    1  LIG1        0.0869
     17 N          -3.3335   -0.0856   -0.0954 N.ar    1  LIG1       -0.3493
     18 H          -3.2134    0.9283   -0.1501 H       1  LIG1        0.1661
     19 N          -1.1635   -4.2849    0.0999 N.1     1  LIG1       -0.1907
     20 C          -1.8919   -3.3739    0.0545 C.1     1  LIG1        0.1032
     21 N          -5.0960   -3.2273    0.0117 N.pl3   1  LIG1       -0.3553
     22 H          -5.1193   -3.7626   -0.8535 H       1  LIG1        0.1424
     23 H          -4.9170   -3.8835    0.7672 H       1  LIG1        0.1424
     24 C          -5.8186   -0.2512   -0.0880 C.ar    1  LIG1        0.0846
     25 C          -6.2708    1.0788   -0.1020 C.ar    1  LIG1        0.0997
     26 C          -7.7029    1.0412   -0.0833 C.ar    1  LIG1        0.0699
     27 C          -8.0795   -0.2972   -0.0613 C.ar    1  LIG1        0.0869
     28 N          -6.9262   -1.0511   -0.0676 N.ar    1  LIG1       -0.3493
     29 H          -6.8271   -2.0670   -0.0127 H       1  LIG1        0.1661
     30 N          -4.8045    3.2017   -0.1371 N.1     1  LIG1       -0.1907
     31 C          -5.4677    2.2417   -0.1221 C.1     1  LIG1        0.1032
     32 N          -8.6268    2.1319   -0.0867 N.pl3   1  LIG1       -0.3553
     33 H          -8.4430    2.7607    0.6933 H       1  LIG1        0.1424
     34 H          -8.5247    2.6896   -0.9332 H       1  LIG1        0.1424
     35 C          -9.4039   -0.8647   -0.0415 C.ar    1  LIG1        0.0842
     36 C          -9.8591   -2.1975   -0.0727 C.ar    1  LIG1        0.0990
     37 C         -11.2950   -2.1648   -0.0384 C.ar    1  LIG1        0.0604
     38 C         -11.6596   -0.8321    0.0067 C.ar    1  LIG1        0.0243
     39 N         -10.5065   -0.0725    0.0057 N.ar    1  LIG1       -0.3568
     40 H         -10.4123    0.9396    0.0181 H       1  LIG1        0.1655
     41 H         -12.6358   -0.3758    0.0526 H       1  LIG1        0.0826
     42 N          -8.3897   -4.3114   -0.2315 N.1     1  LIG1       -0.1907
     43 C          -9.0570   -3.3559   -0.1534 C.1     1  LIG1        0.1032
     44 N         -12.1210   -3.2865    0.0170 N.pl3   1  LIG1       -0.3558
     45 H         -13.0434   -3.1417   -0.3717 H       1  LIG1        0.1424
     46 H         -11.6965   -4.1222   -0.3656 H       1  LIG1        0.1424
@<TRIPOS>BOND
     1    12    10    1
     2    34    32    1
     3    22    21    1
     4    45    44    1
     5    46    44    1
     6    42    43    3
     7     8     9    3
     8     9     2    1
     9    10     3    1
    10    10    11    1
    11    43    36    1
    12    18    17    1
    13    30    31    3
    14    31    25    1
    15     2     3   ar
    16     2     1   ar
    17     3     4   ar
    18    25    24   ar
    19    25    26   ar
    20    17    16   ar
    21    17    13   ar
    22    24    16    1
    23    24    28   ar
    24    32    26    1
    25    32    33    1
    26    26    27   ar
    27    16    15   ar
    28    36    35   ar
    29    36    37   ar
    30    28    27   ar
    31    28    29    1
    32    27    35    1
    33     4    13    1
    34     4     5   ar
    35     1     7    1
    36     1     5   ar
    37    13    14   ar
    38    35    39   ar
    39    37    38   ar
    40    37    44    1
    41    15    14   ar
    42    15    21    1
    43     5     6    1
    44    14    20    1
    45    39    38   ar
    46    39    40    1
    47    38    41    1
    48    21    23    1
    49    20    19    3
