@<TRIPOS>MOLECULE
mol_data/opt/b3lyp/geoms/mol2/13dh13dh13dh-13dh.out
 46 49 0 0 0
SMALL
GASTEIGER

@<TRIPOS>ATOM
      1 C           1.2636   -0.2620   -0.4698 C.ar    1  LIG1        0.0215
      2 C           0.9539    0.9594    0.1136 C.ar    1  LIG1        0.0903
      3 C          -0.4761    1.0312    0.2642 C.ar    1  LIG1        0.0693
      4 C          -0.9907   -0.1685   -0.2444 C.ar    1  LIG1        0.0864
      5 N           0.1068   -0.9340   -0.6668 N.ar    1  LIG1       -0.3568
      6 H           0.0300   -1.7771   -1.2149 H       1  LIG1        0.1655
      7 H           2.2207   -0.6635   -0.7645 H       1  LIG1        0.0820
      8 N           2.5632    2.8398    0.8450 N.1     1  LIG1       -0.1908
      9 C           1.8606    1.9731    0.5087 C.1     1  LIG1        0.1025
     10 N          -1.1331    2.0559    0.9061 N.pl3   1  LIG1       -0.3553
     11 H          -0.5624    2.8721    1.0818 H       1  LIG1        0.1424
     12 H          -2.0632    2.2920    0.5850 H       1  LIG1        0.1424
     13 C          -2.3141   -0.7280   -0.2728 C.ar    1  LIG1        0.0846
     14 C          -3.5925   -0.1395   -0.3468 C.ar    1  LIG1        0.0997
     15 C          -4.5654   -1.1912   -0.3481 C.ar    1  LIG1        0.0699
     16 C          -3.8702   -2.3915   -0.2821 C.ar    1  LIG1        0.0869
     17 N          -2.5128   -2.0823   -0.2649 N.ar    1  LIG1       -0.3493
     18 H          -1.7933   -2.7615   -0.0580 H       1  LIG1        0.1661
     19 N          -4.1219    2.3713   -0.5984 N.1     1  LIG1       -0.1907
     20 C          -3.8817    1.2338   -0.4902 C.1     1  LIG1        0.1032
     21 N          -5.9673   -1.0796   -0.3769 N.pl3   1  LIG1       -0.3553
     22 H          -6.2930   -0.1510   -0.1308 H       1  LIG1        0.1424
     23 H          -6.3879   -1.3436   -1.2643 H       1  LIG1        0.1424
     24 C          -4.3719   -3.7303   -0.1874 C.ar    1  LIG1        0.0846
     25 C          -3.7062   -4.9689   -0.1353 C.ar    1  LIG1        0.0997
     26 C          -4.7048   -5.9894    0.0035 C.ar    1  LIG1        0.0699
     27 C          -5.9382   -5.3543    0.0207 C.ar    1  LIG1        0.0869
     28 N          -5.7107   -3.9952   -0.1024 N.ar    1  LIG1       -0.3493
     29 H          -6.4027   -3.2567   -0.0097 H       1  LIG1        0.1661
     30 N          -1.1418   -5.1914   -0.2851 N.1     1  LIG1       -0.1907
     31 C          -2.3065   -5.1290   -0.2151 C.1     1  LIG1        0.1032
     32 N          -4.5372   -7.4049    0.0975 N.pl3   1  LIG1       -0.3553
     33 H          -4.1648   -7.7867   -0.7708 H       1  LIG1        0.1424
     34 H          -3.8668   -7.6400    0.8268 H       1  LIG1        0.1424
     35 C          -7.2569   -5.9258    0.1100 C.ar    1  LIG1        0.0842
     36 C          -8.5349   -5.3500   -0.0296 C.ar    1  LIG1        0.0990
     37 C          -9.5027   -6.3986    0.1371 C.ar    1  LIG1        0.0604
     38 C          -8.7897   -7.5615    0.3618 C.ar    1  LIG1        0.0243
     39 N          -7.4436   -7.2502    0.3446 N.ar    1  LIG1       -0.3568
     40 H          -6.6489   -7.8763    0.4329 H       1  LIG1        0.1655
     41 H          -9.1335   -8.5671    0.5460 H       1  LIG1        0.0826
     42 N          -8.9843   -2.8779   -0.6109 N.1     1  LIG1       -0.1907
     43 C          -8.7981   -3.9985   -0.3383 C.1     1  LIG1        0.1032
     44 N         -10.8849   -6.2216    0.1413 N.pl3   1  LIG1       -0.3558
     45 H         -11.1940   -5.4074   -0.3748 H       1  LIG1        0.1424
     46 H         -11.4095   -7.0419   -0.1323 H       1  LIG1        0.1424
@<TRIPOS>BOND
     1    23    21    1
     2     6     5    1
     3    33    32    1
     4     7     1    1
     5     5     1   ar
     6     5     4   ar
     7    42    43    3
     8    19    20    3
     9    20    14    1
    10     1     2   ar
    11    21    15    1
    12    21    22    1
    13    45    44    1
    14    15    14   ar
    15    15    16   ar
    16    14    13   ar
    17    43    36    1
    18    30    31    3
    19    16    17   ar
    20    16    24    1
    21    13    17   ar
    22    13     4    1
    23    17    18    1
    24     4     3   ar
    25    31    25    1
    26    24    25   ar
    27    24    28   ar
    28    25    26   ar
    29    46    44    1
    30    28    29    1
    31    28    27   ar
    32    36    35   ar
    33    36    37   ar
    34    26    27   ar
    35    26    32    1
    36    27    35    1
    37    32    34    1
    38    35    39   ar
    39     2     3   ar
    40     2     9    1
    41    37    44    1
    42    37    38   ar
    43     3    10    1
    44    39    38   ar
    45    39    40    1
    46    38    41    1
    47     9     8    3
    48    12    10    1
    49    10    11    1
