@<TRIPOS>MOLECULE
mol_data/opt/b3lyp/geoms/mol2/13dh13dh13dh.out
 35 37 0 0 0
SMALL
GASTEIGER

@<TRIPOS>ATOM
      1 C           1.1214   -0.2558   -0.9582 C.ar    1  LIG1        0.0215
      2 C           0.9179    0.9031   -0.2235 C.ar    1  LIG1        0.0903
      3 C          -0.4708    0.9517    0.1585 C.ar    1  LIG1        0.0693
      4 C          -1.0667   -0.1997   -0.3626 C.ar    1  LIG1        0.0864
      5 N          -0.0578   -0.9233   -1.0181 N.ar    1  LIG1       -0.3568
      6 H          -0.2493   -1.6541   -1.6865 H       1  LIG1        0.1655
      7 H           2.0140   -0.6163   -1.4454 H       1  LIG1        0.0820
      8 N           2.6485    2.7076    0.4187 N.1     1  LIG1       -0.1908
      9 C           1.8883    1.8773    0.1181 C.1     1  LIG1        0.1025
     10 N          -1.0181    1.9100    0.9850 N.pl3   1  LIG1       -0.3553
     11 H          -0.4248    2.7166    1.1302 H       1  LIG1        0.1424
     12 H          -1.9794    2.1720    0.8041 H       1  LIG1        0.1424
     13 C          -2.3902   -0.7514   -0.2219 C.ar    1  LIG1        0.0846
     14 C          -3.6550   -0.1401   -0.1791 C.ar    1  LIG1        0.0997
     15 C          -4.6582   -1.1630   -0.0657 C.ar    1  LIG1        0.0699
     16 C          -3.9853   -2.3858   -0.0511 C.ar    1  LIG1        0.0869
     17 N          -2.6162   -2.0948   -0.1462 N.ar    1  LIG1       -0.3493
     18 H          -1.8918   -2.7946   -0.1575 H       1  LIG1        0.1661
     19 N          -4.1106    2.3922   -0.3415 N.1     1  LIG1       -0.1907
     20 C          -3.9081    1.2439   -0.2779 C.1     1  LIG1        0.1032
     21 N          -6.0076   -0.9214    0.0910 N.pl3   1  LIG1       -0.3553
     22 H          -6.2826    0.0327   -0.1019 H       1  LIG1        0.1424
     23 H          -6.6396   -1.5898   -0.3324 H       1  LIG1        0.1424
     24 C          -4.4368   -3.7402    0.1409 C.ar    1  LIG1        0.0842
     25 C          -5.6020   -4.4017   -0.2778 C.ar    1  LIG1        0.0990
     26 C          -5.5496   -5.7584    0.2063 C.ar    1  LIG1        0.0604
     27 C          -4.3588   -5.8904    0.8825 C.ar    1  LIG1        0.0243
     28 N          -3.6887   -4.6697    0.8156 N.ar    1  LIG1       -0.3568
     29 H          -2.9381   -4.4187    1.4402 H       1  LIG1        0.1655
     30 H          -3.9296   -6.7372    1.3941 H       1  LIG1        0.0826
     31 N          -7.4573   -3.3973   -1.7596 N.1     1  LIG1       -0.1907
     32 C          -6.6144   -3.8587   -1.0955 C.1     1  LIG1        0.1032
     33 N          -6.5606   -6.6995    0.0367 N.pl3   1  LIG1       -0.3558
     34 H          -7.1521   -6.5290   -0.7667 H       1  LIG1        0.1424
     35 H          -6.2493   -7.6610    0.0633 H       1  LIG1        0.1424
@<TRIPOS>BOND
     1    31    32    3
     2     6     5    1
     3     7     1    1
     4    32    25    1
     5     5     1   ar
     6     5     4   ar
     7     1     2   ar
     8    34    33    1
     9     4    13    1
    10     4     3   ar
    11    19    20    3
    12    23    21    1
    13    20    14    1
    14    25    24   ar
    15    25    26   ar
    16     2     9    1
    17     2     3   ar
    18    13    14   ar
    19    13    17   ar
    20    14    15   ar
    21    18    17    1
    22    17    16   ar
    23    22    21    1
    24    15    16   ar
    25    15    21    1
    26    16    24    1
    27    33    35    1
    28    33    26    1
    29     9     8    3
    30    24    28   ar
    31     3    10    1
    32    26    27   ar
    33    12    10    1
    34    28    27   ar
    35    28    29    1
    36    27    30    1
    37    10    11    1
