@<TRIPOS>MOLECULE
mol_data/opt/b3lyp/geoms/mol2/13dh13dh-13dh-13dh-.out
 46 49 0 0 0
SMALL
GASTEIGER

@<TRIPOS>ATOM
      1 C           1.2705   -0.1796   -0.2278 C.ar    1  LIG1        0.0215
      2 C           0.7640    1.0325   -0.6800 C.ar    1  LIG1        0.0903
      3 C          -0.6662    0.9354   -0.6408 C.ar    1  LIG1        0.0693
      4 C          -0.9772   -0.3316   -0.1644 C.ar    1  LIG1        0.0864
      5 N           0.2179   -0.9851    0.0753 N.ar    1  LIG1       -0.3568
      6 H           0.2899   -1.9336    0.4203 H       1  LIG1        0.1655
      7 H           2.2920   -0.5049   -0.1078 H       1  LIG1        0.0820
      8 N           2.0621    3.1255   -1.4559 N.1     1  LIG1       -0.1908
      9 C           1.5017    2.1678   -1.1023 C.1     1  LIG1        0.1025
     10 N          -1.6455    1.9073   -1.0188 N.pl3   1  LIG1       -0.3553
     11 H          -1.4934    2.7795   -0.5145 H       1  LIG1        0.1424
     12 H          -1.5535    2.1367   -2.0078 H       1  LIG1        0.1424
     13 C          -2.2715   -0.9218    0.0589 C.ar    1  LIG1        0.0846
     14 C          -2.6539   -2.2155    0.4533 C.ar    1  LIG1        0.0997
     15 C          -4.0875   -2.2769    0.4522 C.ar    1  LIG1        0.0699
     16 C          -4.5402   -1.0104    0.0546 C.ar    1  LIG1        0.0869
     17 N          -3.4097   -0.2186   -0.1602 N.ar    1  LIG1       -0.3493
     18 H          -3.3564    0.7026   -0.5903 H       1  LIG1        0.1661
     19 N          -0.9745   -4.0740    1.0645 N.1     1  LIG1       -0.1907
     20 C          -1.7594   -3.2523    0.7944 C.1     1  LIG1        0.1032
     21 N          -4.8222   -3.3583    0.8887 N.pl3   1  LIG1       -0.3553
     22 H          -5.7168   -3.5158    0.4412 H       1  LIG1        0.1424
     23 H          -4.2909   -4.2132    0.9851 H       1  LIG1        0.1424
     24 C          -5.8585   -0.4384   -0.0291 C.ar    1  LIG1        0.0846
     25 C          -7.1010   -0.9911   -0.3901 C.ar    1  LIG1        0.0997
     26 C          -8.0960    0.0450   -0.3500 C.ar    1  LIG1        0.0699
     27 C          -7.4396    1.2180    0.0266 C.ar    1  LIG1        0.0869
     28 N          -6.0913    0.8837    0.2167 N.ar    1  LIG1       -0.3493
     29 H          -5.3758    1.5533    0.4509 H       1  LIG1        0.1661
     30 N          -7.5272   -3.4313   -1.1030 N.1     1  LIG1       -0.1907
     31 C          -7.3350   -2.3232   -0.7877 C.1     1  LIG1        0.1032
     32 N          -9.4448   -0.1578   -0.5578 N.pl3   1  LIG1       -0.3553
     33 H          -9.9533    0.5967   -1.0025 H       1  LIG1        0.1424
     34 H          -9.6709   -1.0562   -0.9639 H       1  LIG1        0.1424
     35 C          -7.9150    2.5437    0.3278 C.ar    1  LIG1        0.0842
     36 C          -8.9449    3.3149   -0.2341 C.ar    1  LIG1        0.0990
     37 C          -8.9965    4.5753    0.4636 C.ar    1  LIG1        0.0604
     38 C          -7.9962    4.5452    1.4077 C.ar    1  LIG1        0.0243
     39 N          -7.3386    3.3209    1.2984 N.ar    1  LIG1       -0.3568
     40 H          -6.7539    2.9414    2.0268 H       1  LIG1        0.1655
     41 H          -7.6921    5.2810    2.1351 H       1  LIG1        0.0826
     42 N         -10.4076    2.6406   -2.2470 N.1     1  LIG1       -0.1907
     43 C          -9.7412    2.9536   -1.3402 C.1     1  LIG1        0.1032
     44 N          -9.9321    5.5769    0.2220 N.pl3   1  LIG1       -0.3558
     45 H          -9.6275    6.5066    0.4770 H       1  LIG1        0.1424
     46 H         -10.3186    5.5627   -0.7133 H       1  LIG1        0.1424
@<TRIPOS>BOND
     1    42    43    3
     2    12    10    1
     3     8     9    3
     4    43    36    1
     5    30    31    3
     6     9     2    1
     7    10     3    1
     8    10    11    1
     9    33    32    1
    10    34    32    1
    11    31    25    1
    12    46    44    1
    13     2     3   ar
    14     2     1   ar
    15     3     4   ar
    16    18    17    1
    17    32    26    1
    18    25    26   ar
    19    25    24   ar
    20    26    27   ar
    21    36    35   ar
    22    36    37   ar
    23     1     7    1
    24     1     5   ar
    25     4    13    1
    26     4     5   ar
    27    17    16   ar
    28    17    13   ar
    29    24    16    1
    30    24    28   ar
    31    27    28   ar
    32    27    35    1
    33    16    15   ar
    34    13    14   ar
    35     5     6    1
    36    28    29    1
    37    44    37    1
    38    44    45    1
    39    35    39   ar
    40    22    21    1
    41    15    14   ar
    42    15    21    1
    43    14    20    1
    44    37    38   ar
    45    20    19    3
    46    21    23    1
    47    39    38   ar
    48    39    40    1
    49    38    41    1
