@<TRIPOS>MOLECULE
mol_data/opt/b3lyp/geoms/mol2/13dh13dh13dh13dh.out
 46 49 0 0 0
SMALL
GASTEIGER

@<TRIPOS>ATOM
      1 C           0.8627   -0.0629   -1.6731 C.ar    1  LIG1        0.0215
      2 C           0.8957    0.8865   -0.6629 C.ar    1  LIG1        0.0903
      3 C          -0.3708    0.8520    0.0241 C.ar    1  LIG1        0.0693
      4 C          -1.1347   -0.1371   -0.6010 C.ar    1  LIG1        0.0864
      5 N          -0.3388   -0.6905   -1.6174 N.ar    1  LIG1       -0.3568
      6 H          -0.7173   -1.2280   -2.3828 H       1  LIG1        0.1655
      7 H           1.6031   -0.3006   -2.4211 H       1  LIG1        0.0820
      8 N           2.8304    2.4714   -0.0236 N.1     1  LIG1       -0.1908
      9 C           1.9746    1.7431   -0.3315 C.1     1  LIG1        0.1025
     10 N          -0.6641    1.5874    1.1523 N.pl3   1  LIG1       -0.3553
     11 H          -0.0047    2.3307    1.3430 H       1  LIG1        0.1424
     12 H          -1.6238    1.8915    1.2619 H       1  LIG1        0.1424
     13 C          -2.4234   -0.7009   -0.2904 C.ar    1  LIG1        0.0846
     14 C          -3.6102   -0.1104    0.1762 C.ar    1  LIG1        0.0997
     15 C          -4.6235   -1.1243    0.2738 C.ar    1  LIG1        0.0699
     16 C          -4.0360   -2.3210   -0.1429 C.ar    1  LIG1        0.0869
     17 N          -2.7031   -2.0248   -0.4688 N.ar    1  LIG1       -0.3493
     18 H          -2.0488   -2.6942   -0.8412 H       1  LIG1        0.1661
     19 N          -3.9396    2.3896    0.7127 N.1     1  LIG1       -0.1907
     20 C          -3.7964    1.2586    0.4606 C.1     1  LIG1        0.1032
     21 N          -5.8877   -0.9190    0.7838 N.pl3   1  LIG1       -0.3553
     22 H          -6.1427    0.0548    0.8837 H       1  LIG1        0.1424
     23 H          -6.6361   -1.4672    0.3779 H       1  LIG1        0.1424
     24 C          -4.5157   -3.6781   -0.1570 C.ar    1  LIG1        0.0846
     25 C          -5.7739   -4.2161   -0.4794 C.ar    1  LIG1        0.0997
     26 C          -5.7082   -5.6469   -0.3656 C.ar    1  LIG1        0.0699
     27 C          -4.4025   -5.9599    0.0165 C.ar    1  LIG1        0.0869
     28 N          -3.7117   -4.7441    0.1300 N.ar    1  LIG1       -0.3493
     29 H          -2.7515   -4.6727    0.4260 H       1  LIG1        0.1661
     30 N          -7.8393   -2.8629   -1.2208 N.1     1  LIG1       -0.1907
     31 C          -6.9028   -3.4803   -0.8961 C.1     1  LIG1        0.1032
     32 N          -6.7839   -6.4958   -0.5253 N.pl3   1  LIG1       -0.3553
     33 H          -7.5948   -6.0630   -0.9475 H       1  LIG1        0.1424
     34 H          -6.5883   -7.4046   -0.9267 H       1  LIG1        0.1424
     35 C          -3.7682   -7.2031    0.3744 C.ar    1  LIG1        0.0842
     36 C          -3.9161   -8.5026   -0.1352 C.ar    1  LIG1        0.0990
     37 C          -3.0430   -9.3795    0.6039 C.ar    1  LIG1        0.0604
     38 C          -2.3804   -8.5956    1.5202 C.ar    1  LIG1        0.0243
     39 N          -2.8134   -7.2809    1.3548 N.ar    1  LIG1       -0.3568
     40 H          -2.6926   -6.5694    2.0589 H       1  LIG1        0.1655
     41 H          -1.6424   -8.8522    2.2635 H       1  LIG1        0.0826
     42 N          -5.4033   -9.1763   -2.1306 N.1     1  LIG1       -0.1907
     43 C          -4.7213   -8.8741   -1.2317 C.1     1  LIG1        0.1032
     44 N          -2.9616  -10.7561    0.4191 N.pl3   1  LIG1       -0.3558
     45 H          -3.2362  -11.0660   -0.5043 H       1  LIG1        0.1424
     46 H          -2.0810  -11.1675    0.6969 H       1  LIG1        0.1424
@<TRIPOS>BOND
     1     7     1    1
     2     6     5    1
     3    42    43    3
     4     1     5   ar
     5     1     2   ar
     6     5     4   ar
     7    43    36    1
     8    30    31    3
     9    33    32    1
    10    34    32    1
    11    31    25    1
    12    18    17    1
    13     2     9    1
    14     2     3   ar
    15     4    13    1
    16     4     3   ar
    17    32    26    1
    18    45    44    1
    19    25    26   ar
    20    25    24   ar
    21    17    13   ar
    22    17    16   ar
    23    26    27   ar
    24     9     8    3
    25    13    14   ar
    26    24    16    1
    27    24    28   ar
    28    16    15   ar
    29    36    35   ar
    30    36    37   ar
    31    27    28   ar
    32    27    35    1
    33     3    10    1
    34    28    29    1
    35    14    15   ar
    36    14    20    1
    37    15    21    1
    38    35    39   ar
    39    23    21    1
    40    44    37    1
    41    44    46    1
    42    20    19    3
    43    37    38   ar
    44    21    22    1
    45    10    12    1
    46    10    11    1
    47    39    38   ar
    48    39    40    1
    49    38    41    1
