@<TRIPOS>MOLECULE
mol_data/opt/b3lyp/geoms/mol2/13dh12ha6hi6ei.out
 50 53 0 0 0
SMALL
GASTEIGER

@<TRIPOS>ATOM
      1 C           1.2600    0.1597   -0.2099 C.ar    1  LIG1        0.0216
      2 C           0.7433    1.4083   -0.5255 C.ar    1  LIG1        0.0903
      3 C          -0.6901    1.2957   -0.5395 C.ar    1  LIG1        0.0709
      4 C          -0.9995   -0.0194   -0.2160 C.ar    1  LIG1        0.1061
      5 N           0.2053   -0.6853   -0.0419 N.ar    1  LIG1       -0.3555
      6 H           0.2630   -1.6524    0.2380 H       1  LIG1        0.1655
      7 H           2.2828   -0.1654   -0.1028 H       1  LIG1        0.0820
      8 N           2.0181    3.5916   -1.0484 N.1     1  LIG1       -0.1908
      9 C           1.4708    2.5914   -0.8074 C.1     1  LIG1        0.1025
     10 N          -1.6344    2.3150   -0.8457 N.pl3   1  LIG1       -0.3552
     11 H          -1.2322    3.2343   -0.6806 H       1  LIG1        0.1424
     12 H          -1.9082    2.2809   -1.8263 H       1  LIG1        0.1424
     13 C          -2.2531   -0.6969   -0.0402 C.ar    1  LIG1        0.1741
     14 C          -3.5380   -0.2895    0.2688 C.ar    1  LIG1        0.0731
     15 C          -4.3190   -1.4851    0.3550 C.ar    1  LIG1        0.0057
     16 C          -3.4826   -2.5514    0.1291 C.ar    1  LIG1        0.1409
     17 O          -2.2173   -2.0820   -0.1183 O.2     1  LIG1       -0.4513
     18 N          -3.9645    0.9985    0.5350 N.pl3   1  LIG1       -0.3550
     19 H          -3.3536    1.7226    0.1526 H       1  LIG1        0.1424
     20 H          -4.9464    1.1611    0.3595 H       1  LIG1        0.1424
     21 H          -5.3770   -1.5353    0.5683 H       1  LIG1        0.0674
     22 C          -2.8085   -4.9417   -0.4459 C.ar    1  LIG1        0.1276
     23 C          -3.7076   -3.9882    0.1180 C.ar    1  LIG1        0.0571
     24 C          -4.8859   -4.5049    0.6719 C.ar    1  LIG1       -0.0428
     25 C          -5.1878   -5.8654    0.6605 C.ar    1  LIG1       -0.0236
     26 C          -4.2323   -6.7052    0.0556 C.ar    1  LIG1        0.0787
     27 N          -3.0906   -6.2500   -0.4718 N.ar    1  LIG1       -0.2314
     28 H          -5.5808   -3.8187    1.1482 H       1  LIG1        0.0629
     29 N          -1.5825   -4.6007   -0.9732 N.pl3   1  LIG1       -0.3426
     30 H          -1.1713   -5.3308   -1.5369 H       1  LIG1        0.1437
     31 H          -1.4476   -3.6501   -1.2791 H       1  LIG1        0.1437
     32 C          -6.4558   -6.3843    1.2975 C.3     1  LIG1       -0.0377
     33 H          -6.2638   -7.2622    1.9216 H       1  LIG1        0.0278
     34 H          -7.2050   -6.6793    0.5535 H       1  LIG1        0.0278
     35 H          -6.9096   -5.6157    1.9297 H       1  LIG1        0.0278
     36 C          -3.6189   -9.1063    0.6389 C.ar    1  LIG1        0.1223
     37 C          -4.4399   -8.1822   -0.0516 C.ar    1  LIG1        0.0347
     38 C          -5.4449   -8.7015   -0.8677 C.ar    1  LIG1       -0.0455
     39 C          -5.6173  -10.0820   -1.0041 C.ar    1  LIG1       -0.0316
     40 C          -4.7377  -10.8937   -0.2782 C.ar    1  LIG1        0.0319
     41 N          -3.7730  -10.4387    0.5212 N.ar    1  LIG1       -0.2458
     42 H          -6.0883   -8.0176   -1.4164 H       1  LIG1        0.0628
     43 H          -4.8224  -11.9779   -0.3483 H       1  LIG1        0.0832
     44 C          -2.5910   -8.6608    1.5358 C.1     1  LIG1       -0.0491
     45 C          -1.7377   -8.2986    2.3118 C.1     1  LIG1       -0.1124
     46 H          -0.9792   -7.9798    2.9883 H       1  LIG1        0.1232
     47 C          -6.6838  -10.6690   -1.8924 C.3     1  LIG1       -0.0383
     48 H          -6.6897  -11.7608   -1.8349 H       1  LIG1        0.0278
     49 H          -6.5270  -10.3907   -2.9408 H       1  LIG1        0.0278
     50 H          -7.6808  -10.3129   -1.6096 H       1  LIG1        0.0278
@<TRIPOS>BOND
     1    49    47    1
     2    47    48    1
     3    47    50    1
     4    47    39    1
     5    12    10    1
     6    30    29    1
     7    42    38    1
     8    31    29    1
     9     8     9    3
    10    39    38   ar
    11    39    40   ar
    12    29    22    1
    13    38    37   ar
    14    10    11    1
    15    10     3    1
    16     9     2    1
    17     3     2   ar
    18     3     4   ar
    19     2     1   ar
    20    27    22   ar
    21    27    26   ar
    22    22    23   ar
    23    43    40    1
    24    40    41   ar
    25     4     5   ar
    26     4    13    1
    27     1     7    1
    28     1     5   ar
    29    17    13   ar
    30    17    16   ar
    31    37    26    1
    32    37    36   ar
    33     5     6    1
    34    13    14   ar
    35    26    25   ar
    36    23    16    1
    37    23    24   ar
    38    16    15   ar
    39    19    18    1
    40    14    15   ar
    41    14    18    1
    42    15    21    1
    43    20    18    1
    44    41    36   ar
    45    34    32    1
    46    36    44    1
    47    25    24   ar
    48    25    32    1
    49    24    28    1
    50    32    33    1
    51    32    35    1
    52    44    45    3
    53    45    46    1
