@<TRIPOS>MOLECULE
mol_data/opt/b3lyp/geoms/mol2/13di13di13di-13di-.out
 50 53 0 0 0
SMALL
GASTEIGER

@<TRIPOS>ATOM
      1 C           1.2642   -0.2531   -0.4101 C.ar    1  LIG1        0.0199
      2 C           0.9351    1.0002    0.0875 C.ar    1  LIG1        0.0725
      3 C          -0.4919    1.0741    0.2190 C.ar    1  LIG1       -0.0064
      4 C          -0.9824   -0.1507   -0.2171 C.ar    1  LIG1        0.0684
      5 N           0.1065   -0.9411   -0.5792 N.ar    1  LIG1       -0.3581
      6 H           0.0400   -1.8546   -1.0034 H       1  LIG1        0.1654
      7 H           2.2265   -0.6790   -0.6480 H       1  LIG1        0.0820
      8 N           2.6035    2.8663    0.7321 N.1     1  LIG1       -0.1908
      9 C           1.8597    2.0207    0.4363 C.1     1  LIG1        0.1009
     10 C          -1.2545    2.2370    0.7754 C.3     1  LIG1       -0.0364
     11 H          -2.1396    1.9054    1.3254 H       1  LIG1        0.0279
     12 H          -1.6007    2.9127   -0.0136 H       1  LIG1        0.0279
     13 H          -0.6229    2.8144    1.4556 H       1  LIG1        0.0279
     14 C          -2.3230   -0.6925   -0.2750 C.ar    1  LIG1        0.0815
     15 C          -3.5649   -0.1249   -0.5977 C.ar    1  LIG1        0.0819
     16 C          -4.5646   -1.1465   -0.5242 C.ar    1  LIG1       -0.0057
     17 C          -3.9058   -2.3203   -0.1686 C.ar    1  LIG1        0.0688
     18 N          -2.5603   -2.0153   -0.0276 N.ar    1  LIG1       -0.3506
     19 H          -1.8659   -2.6649    0.3169 H       1  LIG1        0.1660
     20 N          -4.0364    2.2832   -1.4022 N.1     1  LIG1       -0.1908
     21 C          -3.8020    1.2037   -1.0319 C.1     1  LIG1        0.1016
     22 C          -6.0210   -0.9530   -0.8259 C.3     1  LIG1       -0.0364
     23 H          -6.6445   -1.0326    0.0747 H       1  LIG1        0.0279
     24 H          -6.3859   -1.6795   -1.5623 H       1  LIG1        0.0279
     25 H          -6.1956    0.0419   -1.2420 H       1  LIG1        0.0279
     26 C          -4.3812   -3.6683    0.0209 C.ar    1  LIG1        0.0815
     27 C          -3.6706   -4.8753    0.1527 C.ar    1  LIG1        0.0819
     28 C          -4.6032   -5.9520    0.3016 C.ar    1  LIG1       -0.0057
     29 C          -5.8638   -5.3785    0.2518 C.ar    1  LIG1        0.0688
     30 N          -5.7047   -4.0026    0.0988 N.ar    1  LIG1       -0.3506
     31 H          -6.4624   -3.3622   -0.0782 H       1  LIG1        0.1660
     32 N          -1.0912   -4.9427    0.1395 N.1     1  LIG1       -0.1908
     33 C          -2.2585   -4.9630    0.1460 C.1     1  LIG1        0.1016
     34 C          -4.2533   -7.3939    0.5026 C.3     1  LIG1       -0.0364
     35 H          -3.2984   -7.4911    1.0269 H       1  LIG1        0.0279
     36 H          -4.1691   -7.9243   -0.4518 H       1  LIG1        0.0279
     37 H          -5.0217   -7.9058    1.0877 H       1  LIG1        0.0279
     38 C          -7.1865   -5.9601    0.3695 C.ar    1  LIG1        0.0810
     39 C          -7.7499   -7.1033   -0.2052 C.ar    1  LIG1        0.0813
     40 C          -9.1136   -7.2113    0.2399 C.ar    1  LIG1       -0.0151
     41 C          -9.3342   -6.1306    1.0589 C.ar    1  LIG1        0.0064
     42 N          -8.1800   -5.3764    1.1201 N.ar    1  LIG1       -0.3582
     43 H          -8.0237   -4.6181    1.7660 H       1  LIG1        0.1654
     44 H         -10.2216   -5.8368    1.5994 H       1  LIG1        0.0810
     45 N          -6.5965   -8.6774   -1.8980 N.1     1  LIG1       -0.1908
     46 C          -7.1100   -7.9636   -1.1336 C.1     1  LIG1        0.1016
     47 C         -10.0888   -8.2820   -0.1427 C.3     1  LIG1       -0.0371
     48 H          -9.7302   -9.2729    0.1561 H       1  LIG1        0.0278
     49 H         -10.2454   -8.3115   -1.2264 H       1  LIG1        0.0278
     50 H         -11.0584   -8.1161    0.3336 H       1  LIG1        0.0278
@<TRIPOS>BOND
     1    45    46    3
     2    24    22    1
     3    20    21    3
     4    25    22    1
     5    49    47    1
     6    46    39    1
     7    21    15    1
     8     6     5    1
     9    22    16    1
    10    22    23    1
    11     7     1    1
    12    15    16   ar
    13    15    14   ar
    14     5     1   ar
    15     5     4   ar
    16    16    17   ar
    17    36    34    1
    18     1     2   ar
    19    14     4    1
    20    14    18   ar
    21     4     3   ar
    22    39    40   ar
    23    39    38   ar
    24    17    18   ar
    25    17    26    1
    26    47    48    1
    27    47    40    1
    28    47    50    1
    29    31    30    1
    30    18    19    1
    31    12    10    1
    32    26    30   ar
    33    26    27   ar
    34     2     3   ar
    35     2     9    1
    36    30    29   ar
    37    32    33    3
    38    33    27    1
    39    27    28   ar
    40     3    10    1
    41    40    41   ar
    42    29    28   ar
    43    29    38    1
    44    28    34    1
    45    38    42   ar
    46     9     8    3
    47    34    35    1
    48    34    37    1
    49    10    11    1
    50    10    13    1
    51    41    42   ar
    52    41    44    1
    53    42    43    1
