@<TRIPOS>MOLECULE
mol_data/opt/b3lyp/geoms/mol2/13di13ae12il6hi-.out
 52 55 0 0 0
SMALL
GASTEIGER

@<TRIPOS>ATOM
      1 C           1.2543   -0.1483   -0.1652 C.ar    1  LIG1        0.0199
      2 C           0.8887    1.0804    0.3632 C.ar    1  LIG1        0.0725
      3 C          -0.5452    1.1265    0.4448 C.ar    1  LIG1       -0.0064
      4 C          -1.0031   -0.0873   -0.0451 C.ar    1  LIG1        0.0671
      5 N           0.1087   -0.8466   -0.3970 N.ar    1  LIG1       -0.3581
      6 H           0.0650   -1.7278   -0.8847 H       1  LIG1        0.1654
      7 H           2.2304   -0.5534   -0.3816 H       1  LIG1        0.0820
      8 N           2.5003    2.9548    1.1183 N.1     1  LIG1       -0.1908
      9 C           1.7831    2.1042    0.7743 C.1     1  LIG1        0.1009
     10 C          -1.3608    2.2609    0.9837 C.3     1  LIG1       -0.0364
     11 H          -2.3276    1.9078    1.3527 H       1  LIG1        0.0279
     12 H          -1.5565    3.0208    0.2172 H       1  LIG1        0.0279
     13 H          -0.8379    2.7615    1.8039 H       1  LIG1        0.0279
     14 C          -2.3472   -0.6105   -0.1850 C.ar    1  LIG1        0.0649
     15 C          -3.5444    0.0134   -0.4847 C.ar    1  LIG1       -0.0188
     16 C          -4.5729   -0.9789   -0.5115 C.ar    1  LIG1        0.0536
     17 C          -3.9661   -2.2076   -0.2106 C.ar    1  LIG1        0.0985
     18 N          -2.6206   -1.9598   -0.0394 N.ar    1  LIG1       -0.3496
     19 H          -1.9864   -2.6486    0.3368 H       1  LIG1        0.1661
     20 H          -3.6750    1.0580   -0.7222 H       1  LIG1        0.0652
     21 C          -5.9216   -0.7501   -0.8840 C.1     1  LIG1       -0.0674
     22 C          -7.0602   -0.5139   -1.2231 C.1     1  LIG1       -0.1138
     23 H          -8.0596   -0.3077   -1.5281 H       1  LIG1        0.1232
     24 C          -4.4605   -3.5526   -0.0749 C.ar    1  LIG1        0.1595
     25 C          -5.6372   -4.1379    0.3280 C.ar    1  LIG1        0.0391
     26 C          -5.3841   -5.5483    0.2990 C.ar    1  LIG1        0.1693
     27 C          -4.0773   -5.7618   -0.0879 C.ar    1  LIG1        0.1807
     28 O          -3.5126   -4.5281   -0.3203 O.2     1  LIG1       -0.4491
     29 C          -6.9011   -3.4960    0.8080 C.3     1  LIG1       -0.0325
     30 H          -7.4078   -4.1652    1.5095 H       1  LIG1        0.0280
     31 H          -7.5912   -3.2752   -0.0133 H       1  LIG1        0.0280
     32 H          -6.6966   -2.5484    1.3113 H       1  LIG1        0.0280
     33 O          -6.2799   -6.5140    0.6739 O.3     1  LIG1       -0.4910
     34 C          -7.2660   -6.8219   -0.3198 C.3     1  LIG1        0.0790
     35 H          -7.9152   -7.5833    0.1161 H       1  LIG1        0.0660
     36 H          -7.8634   -5.9397   -0.5766 H       1  LIG1        0.0660
     37 H          -6.7968   -7.2147   -1.2295 H       1  LIG1        0.0660
     38 C          -2.0167   -6.9721   -0.9640 C.ar    1  LIG1        0.1270
     39 C          -3.2587   -6.9528   -0.2568 C.ar    1  LIG1        0.0606
     40 C          -3.6975   -8.1731    0.2779 C.ar    1  LIG1       -0.0433
     41 C          -2.9596   -9.3478    0.1209 C.ar    1  LIG1       -0.0315
     42 C          -1.7683   -9.2350   -0.5984 C.ar    1  LIG1        0.0326
     43 N          -1.3098   -8.0976   -1.1258 N.ar    1  LIG1       -0.2397
     44 H          -4.6329   -8.1870    0.8275 H       1  LIG1        0.0629
     45 H          -1.1471  -10.1152   -0.7636 H       1  LIG1        0.0833
     46 N          -1.4338   -5.8374   -1.5010 N.pl3   1  LIG1       -0.3426
     47 H          -0.7243   -6.0606   -2.1856 H       1  LIG1        0.1437
     48 H          -2.0458   -5.0694   -1.7305 H       1  LIG1        0.1437
     49 C          -3.4193  -10.6634    0.6981 C.3     1  LIG1       -0.0383
     50 H          -2.7084  -11.4625    0.4689 H       1  LIG1        0.0278
     51 H          -4.3948  -10.9631    0.2977 H       1  LIG1        0.0278
     52 H          -3.5202  -10.6127    1.7883 H       1  LIG1        0.0278
@<TRIPOS>BOND
     1    47    46    1
     2    48    46    1
     3    23    22    1
     4    46    38    1
     5    37    34    1
     6    22    21    3
     7    43    38   ar
     8    43    42   ar
     9    38    39   ar
    10     6     5    1
    11    21    16    1
    12    45    42    1
    13    20    15    1
    14    42    41   ar
    15    36    34    1
    16    16    15   ar
    17    16    17   ar
    18    15    14   ar
    19     5     1   ar
    20     5     4   ar
    21     7     1    1
    22    28    27   ar
    23    28    24   ar
    24    34    35    1
    25    34    33    1
    26    39    27    1
    27    39    40   ar
    28    17    24    1
    29    17    18   ar
    30    14     4    1
    31    14    18   ar
    32     1     2   ar
    33    27    26   ar
    34    24    25   ar
    35     4     3   ar
    36    18    19    1
    37    31    29    1
    38    41    40   ar
    39    41    49    1
    40    12    10    1
    41    40    44    1
    42    51    49    1
    43    26    25   ar
    44    26    33    1
    45    25    29    1
    46     2     3   ar
    47     2     9    1
    48     3    10    1
    49    50    49    1
    50    49    52    1
    51     9     8    3
    52    29    32    1
    53    29    30    1
    54    10    11    1
    55    10    13    1
