@<TRIPOS>MOLECULE
mol_data/opt/b3lyp/geoms/mol2/13di13di13di-13di.out
 50 53 0 0 0
SMALL
GASTEIGER

@<TRIPOS>ATOM
      1 C           1.2656   -0.2781   -0.2531 C.ar    1  LIG1        0.0199
      2 C           0.9316    0.9501    0.3010 C.ar    1  LIG1        0.0725
      3 C          -0.4982    1.0294    0.3968 C.ar    1  LIG1       -0.0064
      4 C          -0.9847   -0.1662   -0.1167 C.ar    1  LIG1        0.0684
      5 N           0.1080   -0.9464   -0.4897 N.ar    1  LIG1       -0.3581
      6 H           0.0448   -1.8334   -0.9677 H       1  LIG1        0.1654
      7 H           2.2312   -0.6986   -0.4871 H       1  LIG1        0.0820
      8 N           2.5989    2.7616    1.0885 N.1     1  LIG1       -0.1908
      9 C           1.8547    1.9415    0.7287 C.1     1  LIG1        0.1009
     10 C          -1.2702    2.1669    0.9916 C.3     1  LIG1       -0.0364
     11 H          -2.1779    1.8136    1.4883 H       1  LIG1        0.0279
     12 H          -1.5813    2.8900    0.2305 H       1  LIG1        0.0279
     13 H          -0.6593    2.6976    1.7267 H       1  LIG1        0.0279
     14 C          -2.3265   -0.6935   -0.2430 C.ar    1  LIG1        0.0815
     15 C          -3.5529   -0.1040   -0.5863 C.ar    1  LIG1        0.0819
     16 C          -4.5615   -1.1193   -0.5987 C.ar    1  LIG1       -0.0057
     17 C          -3.9207   -2.3115   -0.2704 C.ar    1  LIG1        0.0688
     18 N          -2.5789   -2.0240   -0.0647 N.ar    1  LIG1       -0.3506
     19 H          -1.9021   -2.6893    0.2820 H       1  LIG1        0.1660
     20 N          -3.9488    2.3445   -1.3072 N.1     1  LIG1       -0.1908
     21 C          -3.7557    1.2452   -0.9732 C.1     1  LIG1        0.1016
     22 C          -6.0015   -0.9104   -0.9613 C.3     1  LIG1       -0.0364
     23 H          -6.6719   -0.9989   -0.0977 H       1  LIG1        0.0279
     24 H          -6.3366   -1.6328   -1.7138 H       1  LIG1        0.0279
     25 H          -6.1474    0.0891   -1.3773 H       1  LIG1        0.0279
     26 C          -4.4017   -3.6661   -0.1722 C.ar    1  LIG1        0.0815
     27 C          -3.6893   -4.8810   -0.1546 C.ar    1  LIG1        0.0819
     28 C          -4.6224   -5.9571   -0.0442 C.ar    1  LIG1       -0.0057
     29 C          -5.8866   -5.3762    0.0006 C.ar    1  LIG1        0.0688
     30 N          -5.7202   -3.9993   -0.0813 N.ar    1  LIG1       -0.3506
     31 H          -6.4764   -3.3311   -0.0113 H       1  LIG1        0.1660
     32 N          -1.1156   -4.9929   -0.3058 N.1     1  LIG1       -0.1908
     33 C          -2.2817   -4.9825   -0.2440 C.1     1  LIG1        0.1016
     34 C          -4.2580   -7.4111    0.0102 C.3     1  LIG1       -0.0364
     35 H          -3.1737   -7.5324    0.0682 H       1  LIG1        0.0279
     36 H          -4.5881   -7.9550   -0.8849 H       1  LIG1        0.0279
     37 H          -4.6843   -7.9072    0.8906 H       1  LIG1        0.0279
     38 C          -7.2005   -5.9636    0.1174 C.ar    1  LIG1        0.0810
     39 C          -8.4615   -5.3674    0.2948 C.ar    1  LIG1        0.0813
     40 C          -9.4554   -6.4039    0.3499 C.ar    1  LIG1       -0.0151
     41 C          -8.7740   -7.5871    0.2066 C.ar    1  LIG1        0.0064
     42 N          -7.4281   -7.3139    0.0704 N.ar    1  LIG1       -0.3582
     43 H          -6.7132   -8.0067   -0.0781 H       1  LIG1        0.1654
     44 H          -9.1385   -8.6031    0.1917 H       1  LIG1        0.0810
     45 N          -8.8079   -2.8184    0.4969 N.1     1  LIG1       -0.1908
     46 C          -8.6841   -3.9761    0.4101 C.1     1  LIG1        0.1016
     47 C         -10.9295   -6.2126    0.5322 C.3     1  LIG1       -0.0371
     48 H         -11.4499   -7.1736    0.5351 H       1  LIG1        0.0278
     49 H         -11.3560   -5.6010   -0.2704 H       1  LIG1        0.0278
     50 H         -11.1538   -5.7054    1.4770 H       1  LIG1        0.0278
@<TRIPOS>BOND
     1    24    22    1
     2    25    22    1
     3    20    21    3
     4    21    15    1
     5     6     5    1
     6    22    16    1
     7    22    23    1
     8    36    34    1
     9    16    15   ar
    10    16    17   ar
    11    15    14   ar
    12     5     1   ar
    13     5     4   ar
    14     7     1    1
    15    32    33    3
    16    17    26    1
    17    17    18   ar
    18    49    47    1
    19     1     2   ar
    20    33    27    1
    21    14     4    1
    22    14    18   ar
    23    26    27   ar
    24    26    30   ar
    25    27    28   ar
    26     4     3   ar
    27    30    31    1
    28    30    29   ar
    29    43    42    1
    30    18    19    1
    31    28    29   ar
    32    28    34    1
    33    29    38    1
    34    34    35    1
    35    34    37    1
    36    42    38   ar
    37    42    41   ar
    38    38    39   ar
    39    44    41    1
    40    41    40   ar
    41    12    10    1
    42    39    40   ar
    43    39    46    1
    44     2     3   ar
    45     2     9    1
    46    40    47    1
    47     3    10    1
    48    46    45    3
    49    47    48    1
    50    47    50    1
    51     9     8    3
    52    10    11    1
    53    10    13    1
