@<TRIPOS>MOLECULE
mol_data/opt/b3lyp/geoms/mol2/13di13di-13di-13di.out
 50 53 0 0 0
SMALL
GASTEIGER

@<TRIPOS>ATOM
      1 C           1.2772   -0.2647   -0.0431 C.ar    1  LIG1        0.0199
      2 C           0.8446    0.9911   -0.4527 C.ar    1  LIG1        0.0725
      3 C          -0.5868    0.9854   -0.4698 C.ar    1  LIG1       -0.0064
      4 C          -0.9750   -0.2921   -0.0647 C.ar    1  LIG1        0.0684
      5 N           0.1789   -1.0228    0.1846 N.ar    1  LIG1       -0.3581
      6 H           0.1923   -1.9841    0.5007 H       1  LIG1        0.1654
      7 H           2.2766   -0.6469    0.0947 H       1  LIG1        0.0820
      8 N           2.3413    3.0007   -1.0852 N.1     1  LIG1       -0.1908
      9 C           1.6782    2.0878   -0.7969 C.1     1  LIG1        0.1009
     10 C          -1.4501    2.1480   -0.8630 C.3     1  LIG1       -0.0364
     11 H          -2.1350    2.4602   -0.0654 H       1  LIG1        0.0279
     12 H          -2.0456    1.9309   -1.7602 H       1  LIG1        0.0279
     13 H          -0.8297    3.0145   -1.1032 H       1  LIG1        0.0279
     14 C          -2.2841   -0.8745    0.1054 C.ar    1  LIG1        0.0815
     15 C          -2.6785   -2.1602    0.5203 C.ar    1  LIG1        0.0819
     16 C          -4.1078   -2.2362    0.5124 C.ar    1  LIG1       -0.0057
     17 C          -4.5560   -0.9952    0.0836 C.ar    1  LIG1        0.0688
     18 N          -3.4401   -0.1905   -0.1402 N.ar    1  LIG1       -0.3506
     19 H          -3.4731    0.7293   -0.5526 H       1  LIG1        0.1660
     20 N          -1.0016   -3.9945    1.2167 N.1     1  LIG1       -0.1908
     21 C          -1.7861   -3.1873    0.9083 C.1     1  LIG1        0.1016
     22 C          -4.9187   -3.4181    0.9461 C.3     1  LIG1       -0.0364
     23 H          -4.3567   -4.0276    1.6589 H       1  LIG1        0.0279
     24 H          -5.1922   -4.0571    0.1001 H       1  LIG1        0.0279
     25 H          -5.8504   -3.1035    1.4240 H       1  LIG1        0.0279
     26 C          -5.8810   -0.4387   -0.0696 C.ar    1  LIG1        0.0815
     27 C          -7.0967   -0.9739   -0.5214 C.ar    1  LIG1        0.0819
     28 C          -8.0841    0.0630   -0.5035 C.ar    1  LIG1       -0.0057
     29 C          -7.4433    1.2124   -0.0503 C.ar    1  LIG1        0.0688
     30 N          -6.1214    0.8800    0.2003 N.ar    1  LIG1       -0.3506
     31 H          -5.4536    1.5044    0.6325 H       1  LIG1        0.1660
     32 N          -7.5140   -3.3483   -1.4471 N.1     1  LIG1       -0.1908
     33 C          -7.3085   -2.2834   -1.0210 C.1     1  LIG1        0.1016
     34 C          -9.5106   -0.0938   -0.9392 C.3     1  LIG1       -0.0364
     35 H          -9.6605   -1.0660   -1.4145 H       1  LIG1        0.0279
     36 H          -9.8006    0.6727   -1.6677 H       1  LIG1        0.0279
     37 H         -10.2090   -0.0449   -0.0928 H       1  LIG1        0.0279
     38 C          -7.9097    2.5645    0.1437 C.ar    1  LIG1        0.0810
     39 C          -7.1910    3.7459    0.4036 C.ar    1  LIG1        0.0813
     40 C          -8.1231    4.8348    0.5095 C.ar    1  LIG1       -0.0151
     41 C          -9.3661    4.2861    0.3117 C.ar    1  LIG1        0.0064
     42 N          -9.2273    2.9297    0.0924 N.ar    1  LIG1       -0.3582
     43 H          -9.9897    2.2873   -0.0504 H       1  LIG1        0.1654
     44 H         -10.3397    4.7523    0.3080 H       1  LIG1        0.0810
     45 N          -4.6204    3.7646    0.6201 N.1     1  LIG1       -0.1908
     46 C          -5.7837    3.8051    0.5232 C.1     1  LIG1        0.1016
     47 C          -7.7883    6.2700    0.7763 C.3     1  LIG1       -0.0371
     48 H          -8.6936    6.8812    0.8127 H       1  LIG1        0.0278
     49 H          -7.1365    6.6810   -0.0024 H       1  LIG1        0.0278
     50 H          -7.2639    6.3876    1.7308 H       1  LIG1        0.0278
@<TRIPOS>BOND
     1    12    10    1
     2    36    34    1
     3    32    33    3
     4    35    34    1
     5    13    10    1
     6     8     9    3
     7    33    27    1
     8    34    28    1
     9    34    37    1
    10    10     3    1
    11    10    11    1
    12     9     2    1
    13    19    18    1
    14    27    28   ar
    15    27    26   ar
    16    28    29   ar
    17     3     2   ar
    18     3     4   ar
    19     2     1   ar
    20    18    17   ar
    21    18    14   ar
    22    26    17    1
    23    26    30   ar
    24     4    14    1
    25     4     5   ar
    26    43    42    1
    27    29    38    1
    28    29    30   ar
    29     1     7    1
    30     1     5   ar
    31    49    47    1
    32    17    16   ar
    33    42    38   ar
    34    42    41   ar
    35    24    22    1
    36    14    15   ar
    37    38    39   ar
    38     5     6    1
    39    30    31    1
    40    44    41    1
    41    41    40   ar
    42    39    40   ar
    43    39    46    1
    44    40    47    1
    45    16    15   ar
    46    16    22    1
    47    15    21    1
    48    46    45    3
    49    47    48    1
    50    47    50    1
    51    21    20    3
    52    22    25    1
    53    22    23    1
