@<TRIPOS>MOLECULE
mol_data/opt/b3lyp/geoms/mol2/13di13di13di13di-.out
 50 53 0 0 0
SMALL
GASTEIGER

@<TRIPOS>ATOM
      1 C           1.1464   -0.7979   -0.0131 C.ar    1  LIG1        0.0199
      2 C           0.9336    0.5239    0.3554 C.ar    1  LIG1        0.0725
      3 C          -0.4799    0.7695    0.3610 C.ar    1  LIG1       -0.0064
      4 C          -1.0793   -0.4259   -0.0185 C.ar    1  LIG1        0.0684
      5 N          -0.0679   -1.3640   -0.2261 N.ar    1  LIG1       -0.3581
      6 H          -0.2070   -2.3050   -0.5692 H       1  LIG1        0.1654
      7 H           2.0662   -1.3484   -0.1356 H       1  LIG1        0.0820
      8 N           2.7664    2.2336    0.9872 N.1     1  LIG1       -0.1908
      9 C           1.9469    1.4585    0.6983 C.1     1  LIG1        0.1009
     10 C          -1.1394    2.0541    0.7592 C.3     1  LIG1       -0.0364
     11 H          -2.0825    1.8708    1.2816 H       1  LIG1        0.0279
     12 H          -1.3706    2.6803   -0.1085 H       1  LIG1        0.0279
     13 H          -0.4847    2.6273    1.4209 H       1  LIG1        0.0279
     14 C          -2.4634   -0.8239   -0.1482 C.ar    1  LIG1        0.0815
     15 C          -3.6255   -0.1647   -0.5722 C.ar    1  LIG1        0.0819
     16 C          -4.7270   -1.0870   -0.5226 C.ar    1  LIG1       -0.0057
     17 C          -4.2057   -2.2904   -0.0758 C.ar    1  LIG1        0.0688
     18 N          -2.8367   -2.1130    0.1274 N.ar    1  LIG1       -0.3506
     19 H          -2.2697   -2.7428    0.6779 H       1  LIG1        0.1660
     20 N          -3.7855    2.2185   -1.5557 N.1     1  LIG1       -0.1908
     21 C          -3.6992    1.1490   -1.1018 C.1     1  LIG1        0.1016
     22 C          -6.1310   -0.7964   -0.9554 C.3     1  LIG1       -0.0364
     23 H          -6.7681   -0.5307   -0.1052 H       1  LIG1        0.0279
     24 H          -6.5855   -1.6670   -1.4361 H       1  LIG1        0.0279
     25 H          -6.1508    0.0382   -1.6609 H       1  LIG1        0.0279
     26 C          -4.7271   -3.6306    0.0591 C.ar    1  LIG1        0.0815
     27 C          -5.9445   -4.2024    0.4602 C.ar    1  LIG1        0.0819
     28 C          -5.7941   -5.6295    0.4640 C.ar    1  LIG1       -0.0057
     29 C          -4.4840   -5.8910    0.0706 C.ar    1  LIG1        0.0688
     30 N          -3.8768   -4.6729   -0.1694 N.ar    1  LIG1       -0.3506
     31 H          -2.9582   -4.5649   -0.5748 H       1  LIG1        0.1660
     32 N          -8.0667   -2.9589    1.2474 N.1     1  LIG1       -0.1908
     33 C          -7.1029   -3.5048    0.8857 C.1     1  LIG1        0.1016
     34 C          -6.8524   -6.6138    0.8634 C.3     1  LIG1       -0.0364
     35 H          -6.4825   -7.3279    1.6088 H       1  LIG1        0.0279
     36 H          -7.2319   -7.1824    0.0040 H       1  LIG1        0.0279
     37 H          -7.7089   -6.0984    1.3043 H       1  LIG1        0.0279
     38 C          -3.7084   -7.1001   -0.0585 C.ar    1  LIG1        0.0810
     39 C          -2.3172   -7.2607   -0.2257 C.ar    1  LIG1        0.0813
     40 C          -2.0273   -8.6677   -0.2972 C.ar    1  LIG1       -0.0151
     41 C          -3.2348   -9.3079   -0.1706 C.ar    1  LIG1        0.0064
     42 N          -4.2320   -8.3615   -0.0274 N.ar    1  LIG1       -0.3582
     43 H          -5.2153   -8.5655    0.0527 H       1  LIG1        0.1654
     44 H          -3.4662  -10.3622   -0.1700 H       1  LIG1        0.0810
     45 N          -0.7257   -5.2330   -0.3554 N.1     1  LIG1       -0.1908
     46 C          -1.4005   -6.1860   -0.2950 C.1     1  LIG1        0.1016
     47 C          -0.6764   -9.2912   -0.4692 C.3     1  LIG1       -0.0371
     48 H          -0.0017   -9.0194    0.3500 H       1  LIG1        0.0278
     49 H          -0.2010   -8.9655   -1.4009 H       1  LIG1        0.0278
     50 H          -0.7509  -10.3811   -0.4939 H       1  LIG1        0.0278
@<TRIPOS>BOND
     1    25    22    1
     2    20    21    3
     3    24    22    1
     4    49    47    1
     5    21    15    1
     6    22    16    1
     7    22    23    1
     8    31    30    1
     9    15    16   ar
    10    15    14   ar
    11     6     5    1
    12    16    17   ar
    13    50    47    1
    14    47    40    1
    15    47    48    1
    16    45    46    3
    17    40    39   ar
    18    40    41   ar
    19    46    39    1
    20     5     4   ar
    21     5     1   ar
    22    39    38   ar
    23    41    44    1
    24    41    42   ar
    25    30    26   ar
    26    30    29   ar
    27    14     4    1
    28    14    18   ar
    29     7     1    1
    30    12    10    1
    31    17    26    1
    32    17    18   ar
    33    38    42   ar
    34    38    29    1
    35    42    43    1
    36     4     3   ar
    37     1     2   ar
    38    36    34    1
    39    26    27   ar
    40    29    28   ar
    41    18    19    1
    42     2     3   ar
    43     2     9    1
    44     3    10    1
    45    27    28   ar
    46    27    33    1
    47    28    34    1
    48     9     8    3
    49    10    11    1
    50    10    13    1
    51    34    37    1
    52    34    35    1
    53    33    32    3
