@<TRIPOS>MOLECULE
mol_data/opt/b3lyp/geoms/mol2/13di13di-.out
 26 27 0 0 0
SMALL
GASTEIGER

@<TRIPOS>ATOM
      1 C           1.2109   -0.3595   -0.0222 C.ar    1  LIG1        0.0199
      2 C           0.8342    0.9771    0.0039 C.ar    1  LIG1        0.0725
      3 C          -0.5972    1.0344    0.0172 C.ar    1  LIG1       -0.0064
      4 C          -1.0425   -0.2860   -0.0017 C.ar    1  LIG1        0.0684
      5 N           0.0782   -1.1035   -0.0254 N.ar    1  LIG1       -0.3581
      6 H           0.0477   -2.1150   -0.0418 H       1  LIG1        0.1654
      7 H           2.1919   -0.8080   -0.0381 H       1  LIG1        0.0820
      8 N           2.4023    3.0308    0.0254 N.1     1  LIG1       -0.1908
      9 C           1.7099    2.0943    0.0154 C.1     1  LIG1        0.1009
     10 C          -1.4083    2.2960    0.0451 C.3     1  LIG1       -0.0364
     11 H          -2.0394    2.3628    0.9409 H       1  LIG1        0.0279
     12 H          -2.0533    2.3930   -0.8381 H       1  LIG1        0.0279
     13 H          -0.7515    3.1691    0.0548 H       1  LIG1        0.0279
     14 C          -2.3775   -0.8413   -0.0000 C.ar    1  LIG1        0.0810
     15 C          -2.8204   -2.1751   -0.0194 C.ar    1  LIG1        0.0813
     16 C          -4.2578   -2.1814   -0.0075 C.ar    1  LIG1       -0.0151
     17 C          -4.6401   -0.8634    0.0184 C.ar    1  LIG1        0.0064
     18 N          -3.5094   -0.0713    0.0227 N.ar    1  LIG1       -0.3582
     19 H          -3.5108    0.9352    0.0401 H       1  LIG1        0.1654
     20 H          -5.6259   -0.4239    0.0343 H       1  LIG1        0.0810
     21 N          -1.2201   -4.1990   -0.0674 N.1     1  LIG1       -0.1908
     22 C          -1.9705   -3.3047   -0.0458 C.1     1  LIG1        0.1016
     23 C          -5.1405   -3.3912   -0.0209 C.3     1  LIG1       -0.0371
     24 H          -4.9549   -4.0322    0.8479 H       1  LIG1        0.0278
     25 H          -4.9689   -4.0025   -0.9137 H       1  LIG1        0.0278
     26 H          -6.1952   -3.1047   -0.0077 H       1  LIG1        0.0278
@<TRIPOS>BOND
     1    25    23    1
     2    12    10    1
     3    21    22    3
     4    22    15    1
     5     6     5    1
     6     7     1    1
     7     5     1   ar
     8     5     4   ar
     9     1     2   ar
    10    23    26    1
    11    23    16    1
    12    23    24    1
    13    15    16   ar
    14    15    14   ar
    15    16    17   ar
    16     4    14    1
    17     4     3   ar
    18    14    18   ar
    19     2     9    1
    20     2     3   ar
    21     9     8    3
    22     3    10    1
    23    17    18   ar
    24    17    20    1
    25    18    19    1
    26    10    13    1
    27    10    11    1
