@<TRIPOS>MOLECULE
mol_data/opt/b3lyp/geoms/mol2/13di13di-4di13di.out
 52 55 0 0 0
SMALL
GASTEIGER

@<TRIPOS>ATOM
      1 C           1.4304   -0.4793   -0.0457 C.ar    1  LIG1        0.0199
      2 C           1.0758    0.7805   -0.5141 C.ar    1  LIG1        0.0725
      3 C          -0.3527    0.8684   -0.5183 C.ar    1  LIG1       -0.0064
      4 C          -0.8194   -0.3585   -0.0457 C.ar    1  LIG1        0.0684
      5 N           0.2878   -1.1507    0.2301 N.ar    1  LIG1       -0.3581
      6 H           0.2432   -2.0968    0.5856 H       1  LIG1        0.1654
      7 H           2.4042   -0.9195    0.1016 H       1  LIG1        0.0820
      8 N           2.6946    2.6471   -1.2718 N.1     1  LIG1       -0.1908
      9 C           1.9756    1.7990   -0.9255 C.1     1  LIG1        0.1009
     10 C          -1.1436    2.0624   -0.9631 C.3     1  LIG1       -0.0364
     11 H          -1.7420    2.4964   -0.1524 H       1  LIG1        0.0279
     12 H          -1.8210    1.8169   -1.7910 H       1  LIG1        0.0279
     13 H          -0.4731    2.8472   -1.3208 H       1  LIG1        0.0279
     14 C          -2.1606   -0.8505    0.1591 C.ar    1  LIG1        0.0814
     15 C          -2.6226   -2.1157    0.5696 C.ar    1  LIG1        0.0819
     16 C          -4.0496   -2.0918    0.6154 C.ar    1  LIG1       -0.0071
     17 C          -4.4366   -0.8102    0.2295 C.ar    1  LIG1        0.0524
     18 N          -3.2746   -0.0919   -0.0362 N.ar    1  LIG1       -0.3517
     19 H          -3.2514    0.8888   -0.2708 H       1  LIG1        0.1660
     20 N          -1.0690   -4.0910    1.1573 N.1     1  LIG1       -0.1908
     21 C          -1.7950   -3.2153    0.8951 C.1     1  LIG1        0.1016
     22 C          -4.8954   -3.2478    1.0601 C.3     1  LIG1       -0.0365
     23 H          -4.3296   -3.8906    1.7400 H       1  LIG1        0.0279
     24 H          -5.2120   -3.8763    0.2183 H       1  LIG1        0.0279
     25 H          -5.7949   -2.9122    1.5828 H       1  LIG1        0.0279
     26 C          -6.0692    1.1435    0.3154 C.ar    1  LIG1        0.0615
     27 C          -7.3772    1.6211    0.1740 C.ar    1  LIG1       -0.0343
     28 C          -5.7721   -0.2297    0.0972 C.ar    1  LIG1        0.0162
     29 C          -8.4419    0.7806   -0.1727 C.ar    1  LIG1        0.0037
     30 H          -7.5622    2.6754    0.3423 H       1  LIG1        0.0637
     31 C          -6.8556   -1.0495   -0.2618 C.ar    1  LIG1       -0.0478
     32 C          -8.1681   -0.5942   -0.3902 C.ar    1  LIG1       -0.0406
     33 H          -6.6610   -2.0952   -0.4669 H       1  LIG1        0.0627
     34 N          -4.2159    2.8545    0.9294 N.1     1  LIG1       -0.1908
     35 C          -5.0551    2.0887    0.6730 C.1     1  LIG1        0.0998
     36 C          -9.2451   -1.5939   -0.7457 C.3     1  LIG1       -0.0391
     37 H          -8.9252   -2.6074   -0.4926 H       1  LIG1        0.0278
     38 H          -9.4671   -1.5962   -1.8212 H       1  LIG1        0.0278
     39 H         -10.1789   -1.3881   -0.2166 H       1  LIG1        0.0278
     40 C          -9.7845    1.3677   -0.2769 C.ar    1  LIG1        0.0646
     41 C         -10.4203    2.3185    0.5319 C.ar    1  LIG1        0.0798
     42 C         -11.7196    2.5921   -0.0163 C.ar    1  LIG1       -0.0152
     43 C         -11.8301    1.8064   -1.1390 C.ar    1  LIG1        0.0063
     44 N         -10.6740    1.0705   -1.2778 N.ar    1  LIG1       -0.3594
     45 H         -10.4655    0.4732   -2.0613 H       1  LIG1        0.1654
     46 H         -12.6406    1.7109   -1.8459 H       1  LIG1        0.0810
     47 N          -9.4864    3.3771    2.6961 N.1     1  LIG1       -0.1908
     48 C          -9.8966    2.8897    1.7205 C.1     1  LIG1        0.1015
     49 C         -12.7400    3.5345    0.5445 C.3     1  LIG1       -0.0371
     50 H         -13.6347    3.5607   -0.0829 H       1  LIG1        0.0278
     51 H         -12.3456    4.5539    0.6143 H       1  LIG1        0.0278
     52 H         -13.0444    3.2395    1.5545 H       1  LIG1        0.0278
@<TRIPOS>BOND
     1    45    44    1
     2    46    43    1
     3    38    36    1
     4    12    10    1
     5    13    10    1
     6    44    43   ar
     7    44    40   ar
     8     8     9    3
     9    43    42   ar
    10    10     3    1
    11    10    11    1
    12     9     2    1
    13    36    37    1
    14    36    32    1
    15    36    39    1
    16     3     2   ar
    17     3     4   ar
    18     2     1   ar
    19    33    31    1
    20    32    31   ar
    21    32    29   ar
    22    40    29    1
    23    40    41   ar
    24    19    18    1
    25    31    28   ar
    26    29    27   ar
    27    50    49    1
    28     1     7    1
    29     1     5   ar
    30     4    14    1
    31     4     5   ar
    32    18    14   ar
    33    18    17   ar
    34    42    41   ar
    35    42    49    1
    36    28    17    1
    37    28    26   ar
    38    14    15   ar
    39    27    26   ar
    40    27    30    1
    41    24    22    1
    42    17    16   ar
    43     5     6    1
    44    26    35    1
    45    41    48    1
    46    49    51    1
    47    49    52    1
    48    15    16   ar
    49    15    21    1
    50    16    22    1
    51    35    34    3
    52    21    20    3
    53    22    25    1
    54    22    23    1
    55    48    47    3
