@<TRIPOS>MOLECULE
mol_data/opt/b3lyp/geoms/mol2/13di13di-13di13di-.out
 50 53 0 0 0
SMALL
GASTEIGER

@<TRIPOS>ATOM
      1 C           1.3500   -0.3440   -0.0272 C.ar    1  LIG1        0.0199
      2 C           0.9564    0.9606   -0.3013 C.ar    1  LIG1        0.0725
      3 C          -0.4743    1.0041   -0.3005 C.ar    1  LIG1       -0.0064
      4 C          -0.9024   -0.2937   -0.0192 C.ar    1  LIG1        0.0684
      5 N           0.2289   -1.0840    0.1399 N.ar    1  LIG1       -0.3581
      6 H           0.2137   -2.0759    0.3378 H       1  LIG1        0.1654
      7 H           2.3370   -0.7717    0.0546 H       1  LIG1        0.0820
      8 N           2.5178    2.9693   -0.7554 N.1     1  LIG1       -0.1908
      9 C           1.8245    2.0569   -0.5481 C.1     1  LIG1        0.1009
     10 C          -1.3024    2.2236   -0.5769 C.3     1  LIG1       -0.0364
     11 H          -1.8999    2.5377    0.2875 H       1  LIG1        0.0279
     12 H          -1.9888    2.0681   -1.4180 H       1  LIG1        0.0279
     13 H          -0.6583    3.0659   -0.8394 H       1  LIG1        0.0279
     14 C          -2.2276   -0.8519    0.1040 C.ar    1  LIG1        0.0815
     15 C          -2.6502   -2.1860    0.2686 C.ar    1  LIG1        0.0819
     16 C          -4.0755   -2.2147    0.3391 C.ar    1  LIG1       -0.0057
     17 C          -4.4965   -0.8934    0.2132 C.ar    1  LIG1        0.0688
     18 N          -3.3637   -0.0993    0.0728 N.ar    1  LIG1       -0.3506
     19 H          -3.3793    0.9086    0.0072 H       1  LIG1        0.1660
     20 N          -1.0300   -4.1866    0.4523 N.1     1  LIG1       -0.1908
     21 C          -1.7867   -3.3022    0.3656 C.1     1  LIG1        0.1016
     22 C          -4.9074   -3.4458    0.5418 C.3     1  LIG1       -0.0364
     23 H          -4.2727   -4.2944    0.8076 H       1  LIG1        0.0279
     24 H          -5.4655   -3.7353   -0.3568 H       1  LIG1        0.0279
     25 H          -5.6327   -3.3133    1.3523 H       1  LIG1        0.0279
     26 C          -5.8172   -0.3164    0.2285 C.ar    1  LIG1        0.0815
     27 C          -6.2350    1.0196    0.3798 C.ar    1  LIG1        0.0819
     28 C          -7.6618    1.0636    0.3223 C.ar    1  LIG1       -0.0057
     29 C          -8.0875   -0.2484    0.1393 C.ar    1  LIG1        0.0688
     30 N          -6.9574   -1.0538    0.0903 N.ar    1  LIG1       -0.3506
     31 H          -6.9780   -2.0461   -0.1023 H       1  LIG1        0.1660
     32 N          -4.6355    3.0182    0.7078 N.1     1  LIG1       -0.1908
     33 C          -5.3747    2.1260    0.5666 C.1     1  LIG1        0.1016
     34 C          -8.4900    2.3087    0.4393 C.3     1  LIG1       -0.0364
     35 H          -9.0642    2.3382    1.3751 H       1  LIG1        0.0279
     36 H          -9.1910    2.4134   -0.3975 H       1  LIG1        0.0279
     37 H          -7.8514    3.1952    0.4363 H       1  LIG1        0.0279
     38 C          -9.4116   -0.8078    0.0013 C.ar    1  LIG1        0.0810
     39 C          -9.8314   -2.1049   -0.3429 C.ar    1  LIG1        0.0813
     40 C         -11.2682   -2.1386   -0.3373 C.ar    1  LIG1       -0.0151
     41 C         -11.6734   -0.8725    0.0055 C.ar    1  LIG1        0.0064
     42 N         -10.5575   -0.0848    0.2036 N.ar    1  LIG1       -0.3582
     43 H         -10.5778    0.8781    0.4961 H       1  LIG1        0.1654
     44 H         -12.6670   -0.4675    0.1236 H       1  LIG1        0.0810
     45 N          -8.2004   -4.0264   -0.8961 N.1     1  LIG1       -0.1908
     46 C          -8.9627   -3.1762   -0.6527 C.1     1  LIG1        0.1016
     47 C         -12.1303   -3.3226   -0.6501 C.3     1  LIG1       -0.0371
     48 H         -11.9302   -4.1550    0.0335 H       1  LIG1        0.0278
     49 H         -11.9520   -3.6909   -1.6663 H       1  LIG1        0.0278
     50 H         -13.1896   -3.0666   -0.5667 H       1  LIG1        0.0278
@<TRIPOS>BOND
     1    49    47    1
     2    12    10    1
     3    45    46    3
     4    13    10    1
     5     8     9    3
     6    46    39    1
     7    47    50    1
     8    47    40    1
     9    47    48    1
    10    10     3    1
    11    10    11    1
    12     9     2    1
    13    36    34    1
    14    24    22    1
    15    39    40   ar
    16    39    38   ar
    17    40    41   ar
    18     2     3   ar
    19     2     1   ar
    20     3     4   ar
    21    31    30    1
    22     1     7    1
    23     1     5   ar
    24     4    14    1
    25     4     5   ar
    26    38    29    1
    27    38    42   ar
    28    41    44    1
    29    41    42   ar
    30    19    18    1
    31    18    14   ar
    32    18    17   ar
    33    30    29   ar
    34    30    26   ar
    35    14    15   ar
    36    29    28   ar
    37     5     6    1
    38    42    43    1
    39    17    26    1
    40    17    16   ar
    41    26    27   ar
    42    15    16   ar
    43    15    21    1
    44    28    27   ar
    45    28    34    1
    46    16    22    1
    47    21    20    3
    48    27    33    1
    49    37    34    1
    50    34    35    1
    51    22    23    1
    52    22    25    1
    53    33    32    3
