@<TRIPOS>MOLECULE
mol_data/opt/b3lyp/geoms/mol2/13di13di-13di-13di-.out
 50 53 0 0 0
SMALL
GASTEIGER

@<TRIPOS>ATOM
      1 C           1.3277   -0.3457   -0.4550 C.ar    1  LIG1        0.0199
      2 C           0.8941    0.9245   -0.8147 C.ar    1  LIG1        0.0725
      3 C          -0.5323    0.9551   -0.6990 C.ar    1  LIG1       -0.0064
      4 C          -0.9177   -0.3137   -0.2674 C.ar    1  LIG1        0.0684
      5 N           0.2340   -1.0760   -0.1311 N.ar    1  LIG1       -0.3581
      6 H           0.2503   -2.0385    0.1812 H       1  LIG1        0.1654
      7 H           2.3245   -0.7560   -0.4122 H       1  LIG1        0.0820
      8 N           2.3654    2.9171   -1.5508 N.1     1  LIG1       -0.1908
      9 C           1.7175    2.0081   -1.2191 C.1     1  LIG1        0.1009
     10 C          -1.3954    2.1455   -0.9949 C.3     1  LIG1       -0.0364
     11 H          -2.0314    2.4151   -0.1426 H       1  LIG1        0.0279
     12 H          -2.0417    1.9834   -1.8684 H       1  LIG1        0.0279
     13 H          -0.7759    3.0161   -1.2221 H       1  LIG1        0.0279
     14 C          -2.2214   -0.8612    0.0233 C.ar    1  LIG1        0.0815
     15 C          -2.6032   -2.1193    0.5194 C.ar    1  LIG1        0.0819
     16 C          -4.0321   -2.1723    0.6101 C.ar    1  LIG1       -0.0057
     17 C          -4.4914   -0.9441    0.1644 C.ar    1  LIG1        0.0688
     18 N          -3.3837   -0.1625   -0.1633 N.ar    1  LIG1       -0.3506
     19 H          -3.4409    0.6982   -0.6851 H       1  LIG1        0.1660
     20 N          -0.9040   -3.9473    1.1777 N.1     1  LIG1       -0.1908
     21 C          -1.6989   -3.1423    0.8915 C.1     1  LIG1        0.1016
     22 C          -4.8335   -3.3254    1.1301 C.3     1  LIG1       -0.0364
     23 H          -4.2618   -3.8917    1.8706 H       1  LIG1        0.0279
     24 H          -5.1163   -4.0124    0.3256 H       1  LIG1        0.0279
     25 H          -5.7596   -2.9816    1.5982 H       1  LIG1        0.0279
     26 C          -5.8314   -0.4022    0.0603 C.ar    1  LIG1        0.0815
     27 C          -7.0177   -0.9468   -0.4448 C.ar    1  LIG1        0.0819
     28 C          -8.0588    0.0325   -0.3376 C.ar    1  LIG1       -0.0057
     29 C          -7.4776    1.1603    0.2228 C.ar    1  LIG1        0.0688
     30 N          -6.1366    0.8751    0.4559 N.ar    1  LIG1       -0.3506
     31 H          -5.4771    1.5189    0.8651 H       1  LIG1        0.1660
     32 N          -7.2784   -3.3024   -1.4736 N.1     1  LIG1       -0.1908
     33 C          -7.1544   -2.2407   -1.0107 C.1     1  LIG1        0.1016
     34 C          -9.4860   -0.1551   -0.7504 C.3     1  LIG1       -0.0364
     35 H          -9.7844   -1.2014   -0.6421 H       1  LIG1        0.0279
     36 H          -9.6422    0.1311   -1.7960 H       1  LIG1        0.0279
     37 H         -10.1549    0.4615   -0.1442 H       1  LIG1        0.0279
     38 C          -8.0413    2.4471    0.5876 C.ar    1  LIG1        0.0810
     39 C          -8.8722    3.3239   -0.1151 C.ar    1  LIG1        0.0813
     40 C          -9.1217    4.4753    0.7104 C.ar    1  LIG1       -0.0151
     41 C          -8.4306    4.2634    1.8788 C.ar    1  LIG1        0.0064
     42 N          -7.7726    3.0532    1.7926 N.ar    1  LIG1       -0.3582
     43 H          -7.3235    2.5890    2.5670 H       1  LIG1        0.1654
     44 H          -8.3525    4.8789    2.7624 H       1  LIG1        0.0810
     45 N          -9.7066    3.0074   -2.5396 N.1     1  LIG1       -0.1908
     46 C          -9.3272    3.1420   -1.4463 C.1     1  LIG1        0.1016
     47 C          -9.9530    5.6661    0.3434 C.3     1  LIG1       -0.0371
     48 H         -10.9867    5.3779    0.1241 H       1  LIG1        0.0278
     49 H          -9.5636    6.1658   -0.5502 H       1  LIG1        0.0278
     50 H          -9.9713    6.3959    1.1569 H       1  LIG1        0.0278
@<TRIPOS>BOND
     1    45    46    3
     2    12    10    1
     3    36    34    1
     4     8     9    3
     5    32    33    3
     6    46    39    1
     7    13    10    1
     8     9     2    1
     9    33    27    1
    10    10     3    1
    11    10    11    1
    12     2     3   ar
    13     2     1   ar
    14    34    35    1
    15    34    28    1
    16    34    37    1
    17     3     4   ar
    18    19    18    1
    19    49    47    1
    20     1     7    1
    21     1     5   ar
    22    27    28   ar
    23    27    26   ar
    24    28    29   ar
    25     4     5   ar
    26     4    14    1
    27    18    14   ar
    28    18    17   ar
    29     5     6    1
    30    39    38   ar
    31    39    40   ar
    32    14    15   ar
    33    26    17    1
    34    26    30   ar
    35    48    47    1
    36    17    16   ar
    37    29    30   ar
    38    29    38    1
    39    24    22    1
    40    47    40    1
    41    47    50    1
    42    30    31    1
    43    15    16   ar
    44    15    21    1
    45    38    42   ar
    46    16    22    1
    47    40    41   ar
    48    21    20    3
    49    22    25    1
    50    22    23    1
    51    42    41   ar
    52    42    43    1
    53    41    44    1
