@<TRIPOS>MOLECULE
mol_data/opt/b3lyp/geoms/mol2/13di13di13di.out
 38 40 0 0 0
SMALL
GASTEIGER

@<TRIPOS>ATOM
      1 C           1.0124   -0.1104   -1.3149 C.ar    1  LIG1        0.0199
      2 C           0.8870    0.9509   -0.4309 C.ar    1  LIG1        0.0725
      3 C          -0.4371    0.9209    0.1262 C.ar    1  LIG1       -0.0064
      4 C          -1.0721   -0.1699   -0.4473 C.ar    1  LIG1        0.0684
      5 N          -0.1652   -0.7910   -1.3044 N.ar    1  LIG1       -0.3581
      6 H          -0.4139   -1.5115   -1.9649 H       1  LIG1        0.1654
      7 H           1.8457   -0.4091   -1.9318 H       1  LIG1        0.0820
      8 N           2.7414    2.6476    0.1726 N.1     1  LIG1       -0.1908
      9 C           1.9103    1.8820   -0.1081 C.1     1  LIG1        0.1009
     10 C          -0.9829    1.8711    1.1472 C.3     1  LIG1       -0.0364
     11 H          -1.7362    1.3869    1.7745 H       1  LIG1        0.0279
     12 H          -1.4638    2.7338    0.6740 H       1  LIG1        0.0279
     13 H          -0.1834    2.2462    1.7919 H       1  LIG1        0.0279
     14 C          -2.4016   -0.7173   -0.2488 C.ar    1  LIG1        0.0815
     15 C          -3.6624   -0.1115   -0.2355 C.ar    1  LIG1        0.0819
     16 C          -4.6586   -1.1206   -0.0246 C.ar    1  LIG1       -0.0057
     17 C          -3.9784   -2.3250    0.0768 C.ar    1  LIG1        0.0688
     18 N          -2.6203   -2.0572   -0.0580 N.ar    1  LIG1       -0.3506
     19 H          -1.8915   -2.7531   -0.0198 H       1  LIG1        0.1660
     20 N          -4.1318    2.4048   -0.5876 N.1     1  LIG1       -0.1908
     21 C          -3.9130    1.2713   -0.4327 C.1     1  LIG1        0.1016
     22 C          -6.1352   -0.8902    0.0722 C.3     1  LIG1       -0.0364
     23 H          -6.6083   -1.6362    0.7164 H       1  LIG1        0.0279
     24 H          -6.6171   -0.9589   -0.9089 H       1  LIG1        0.0279
     25 H          -6.3444    0.1030    0.4785 H       1  LIG1        0.0279
     26 C          -4.4526   -3.6752    0.3196 C.ar    1  LIG1        0.0810
     27 C          -5.4923   -4.4078   -0.2591 C.ar    1  LIG1        0.0813
     28 C          -5.5237   -5.7119    0.3477 C.ar    1  LIG1       -0.0151
     29 C          -4.5011   -5.7301    1.2649 C.ar    1  LIG1        0.0064
     30 N          -3.8535   -4.5117    1.2321 N.ar    1  LIG1       -0.3582
     31 H          -3.1703   -4.2069    1.9083 H       1  LIG1        0.1654
     32 H          -4.1815   -6.5138    1.9355 H       1  LIG1        0.0810
     33 N          -7.0149   -3.6175   -2.1909 N.1     1  LIG1       -0.1908
     34 C          -6.3249   -3.9653   -1.3189 C.1     1  LIG1        0.1016
     35 C          -6.4754   -6.8206    0.0176 C.3     1  LIG1       -0.0371
     36 H          -6.2717   -7.7053    0.6265 H       1  LIG1        0.0278
     37 H          -6.4015   -7.1112   -1.0360 H       1  LIG1        0.0278
     38 H          -7.5137   -6.5200    0.1945 H       1  LIG1        0.0278
@<TRIPOS>BOND
     1    33    34    3
     2     6     5    1
     3     7     1    1
     4    34    27    1
     5     1     5   ar
     6     1     2   ar
     7     5     4   ar
     8    37    35    1
     9    24    22    1
    10    20    21    3
    11     4    14    1
    12     4     3   ar
    13    21    15    1
    14     2     9    1
    15     2     3   ar
    16    27    26   ar
    17    27    28   ar
    18    14    15   ar
    19    14    18   ar
    20    15    16   ar
    21     9     8    3
    22    18    19    1
    23    18    17   ar
    24    16    22    1
    25    16    17   ar
    26    35    38    1
    27    35    28    1
    28    35    36    1
    29    22    25    1
    30    22    23    1
    31    17    26    1
    32     3    10    1
    33    26    30   ar
    34    28    29   ar
    35    12    10    1
    36    10    11    1
    37    10    13    1
    38    30    29   ar
    39    30    31    1
    40    29    32    1
