@<TRIPOS>MOLECULE
mol_data/opt/b3lyp/geoms/mol2/13di13di.out
 26 27 0 0 0
SMALL
GASTEIGER

@<TRIPOS>ATOM
      1 C           1.1749   -0.3311   -0.5946 C.ar    1  LIG1        0.0199
      2 C           0.8601    0.9457   -0.1536 C.ar    1  LIG1        0.0725
      3 C          -0.5415    0.9826    0.1608 C.ar    1  LIG1       -0.0064
      4 C          -1.0305   -0.2870   -0.1064 C.ar    1  LIG1        0.0684
      5 N           0.0342   -1.0703   -0.5470 N.ar    1  LIG1       -0.3581
      6 H          -0.0689   -1.9928   -0.9404 H       1  LIG1        0.1654
      7 H           2.1152   -0.7415   -0.9286 H       1  LIG1        0.0820
      8 N           2.5243    2.9039    0.1251 N.1     1  LIG1       -0.1908
      9 C           1.7803    2.0179   -0.0066 C.1     1  LIG1        0.1009
     10 C          -1.2902    2.1618    0.7012 C.3     1  LIG1       -0.0364
     11 H          -2.1331    1.8433    1.3205 H       1  LIG1        0.0279
     12 H          -1.6982    2.7817   -0.1043 H       1  LIG1        0.0279
     13 H          -0.6327    2.7915    1.3069 H       1  LIG1        0.0279
     14 C          -2.3568   -0.8565    0.0438 C.ar    1  LIG1        0.0810
     15 C          -3.6193   -0.3774   -0.3164 C.ar    1  LIG1        0.0813
     16 C          -4.6028   -1.3581    0.0603 C.ar    1  LIG1       -0.0151
     17 C          -3.9072   -2.3985    0.6263 C.ar    1  LIG1        0.0064
     18 N          -2.5603   -2.0971    0.6000 N.ar    1  LIG1       -0.3582
     19 H          -1.8438   -2.6183    1.0811 H       1  LIG1        0.1654
     20 H          -4.2628   -3.3297    1.0413 H       1  LIG1        0.0810
     21 N          -4.1144    1.8267   -1.5695 N.1     1  LIG1       -0.1908
     22 C          -3.8803    0.8355   -1.0037 C.1     1  LIG1        0.1016
     23 C          -6.0822   -1.2563   -0.1518 C.3     1  LIG1       -0.0371
     24 H          -6.5945   -2.1419    0.2333 H       1  LIG1        0.0278
     25 H          -6.3287   -1.1593   -1.2148 H       1  LIG1        0.0278
     26 H          -6.4980   -0.3782    0.3540 H       1  LIG1        0.0278
@<TRIPOS>BOND
     1    21    22    3
     2    25    23    1
     3    22    15    1
     4     6     5    1
     5     7     1    1
     6     1     5   ar
     7     1     2   ar
     8     5     4   ar
     9    15    14   ar
    10    15    16   ar
    11     2     9    1
    12     2     3   ar
    13    23    16    1
    14    23    24    1
    15    23    26    1
    16     4    14    1
    17     4     3   ar
    18    12    10    1
    19     9     8    3
    20    14    18   ar
    21    16    17   ar
    22     3    10    1
    23    18    17   ar
    24    18    19    1
    25    17    20    1
    26    10    13    1
    27    10    11    1
