@<TRIPOS>MOLECULE
mol_data/opt/b3lyp/geoms/mol2/13di13di-13di.out
 38 40 0 0 0
SMALL
GASTEIGER

@<TRIPOS>ATOM
      1 C           1.2757   -0.3519    0.2114 C.ar    1  LIG1        0.0199
      2 C           0.8953    0.9690    0.0058 C.ar    1  LIG1        0.0725
      3 C          -0.5318    1.0111   -0.1001 C.ar    1  LIG1       -0.0064
      4 C          -0.9712   -0.3043    0.0508 C.ar    1  LIG1        0.0684
      5 N           0.1499   -1.1034    0.2372 N.ar    1  LIG1       -0.3581
      6 H           0.1271   -2.1075    0.3554 H       1  LIG1        0.1654
      7 H           2.2566   -0.7835    0.3363 H       1  LIG1        0.0820
      8 N           2.4761    3.0051   -0.1793 N.1     1  LIG1       -0.1908
      9 C           1.7732    2.0808   -0.0928 C.1     1  LIG1        0.1009
     10 C          -1.3444    2.2463   -0.3510 C.3     1  LIG1       -0.0364
     11 H          -1.9936    2.5089    0.4929 H       1  LIG1        0.0279
     12 H          -1.9803    2.1425   -1.2381 H       1  LIG1        0.0279
     13 H          -0.6873    3.1018   -0.5232 H       1  LIG1        0.0279
     14 C          -2.2978   -0.8729    0.0279 C.ar    1  LIG1        0.0815
     15 C          -2.7193   -2.2161    0.0271 C.ar    1  LIG1        0.0819
     16 C          -4.1474   -2.2497   -0.0002 C.ar    1  LIG1       -0.0057
     17 C          -4.5700   -0.9247   -0.0170 C.ar    1  LIG1        0.0688
     18 N          -3.4365   -0.1219   -0.0018 N.ar    1  LIG1       -0.3506
     19 H          -3.4580    0.8878    0.0408 H       1  LIG1        0.1660
     20 N          -1.1170   -4.2380    0.1019 N.1     1  LIG1       -0.1908
     21 C          -1.8608   -3.3392    0.0604 C.1     1  LIG1        0.1016
     22 C          -4.9791   -3.4978    0.0011 C.3     1  LIG1       -0.0364
     23 H          -4.3554   -4.3734    0.1969 H       1  LIG1        0.0279
     24 H          -5.4688   -3.6719   -0.9667 H       1  LIG1        0.0279
     25 H          -5.7530   -3.4715    0.7773 H       1  LIG1        0.0279
     26 C          -5.8956   -0.3522   -0.0369 C.ar    1  LIG1        0.0810
     27 C          -6.3314    0.9714    0.1478 C.ar    1  LIG1        0.0813
     28 C          -7.7633    1.0040    0.0265 C.ar    1  LIG1       -0.0151
     29 C          -8.1500   -0.2891   -0.2241 C.ar    1  LIG1        0.0064
     30 N          -7.0277   -1.0918   -0.2575 N.ar    1  LIG1       -0.3582
     31 H          -7.0313   -2.0771   -0.4635 H       1  LIG1        0.1654
     32 H          -9.1343   -0.7038   -0.3804 H       1  LIG1        0.0810
     33 N          -4.7466    2.9472    0.6412 N.1     1  LIG1       -0.1908
     34 C          -5.4847    2.0697    0.4220 C.1     1  LIG1        0.1016
     35 C          -8.6381    2.2126    0.1566 C.3     1  LIG1       -0.0371
     36 H          -9.6898    1.9499    0.0170 H       1  LIG1        0.0278
     37 H          -8.3798    2.9753   -0.5862 H       1  LIG1        0.0278
     38 H          -8.5353    2.6774    1.1434 H       1  LIG1        0.0278
@<TRIPOS>BOND
     1    12    10    1
     2    24    22    1
     3    37    35    1
     4    13    10    1
     5    31    30    1
     6    32    29    1
     7    10     3    1
     8    10    11    1
     9    30    29   ar
    10    30    26   ar
    11    29    28   ar
    12     8     9    3
    13     3     2   ar
    14     3     4   ar
    15     9     2    1
    16    26    17    1
    17    26    27   ar
    18    17    18   ar
    19    17    16   ar
    20    18    14   ar
    21    18    19    1
    22    16    22    1
    23    16    15   ar
    24    22    23    1
    25    22    25    1
    26     2     1   ar
    27    36    35    1
    28    28    27   ar
    29    28    35    1
    30    15    14   ar
    31    15    21    1
    32    14     4    1
    33     4     5   ar
    34    21    20    3
    35    27    34    1
    36    35    38    1
    37     1     5   ar
    38     1     7    1
    39     5     6    1
    40    34    33    3
