@<TRIPOS>MOLECULE
mol_data/opt/b3lyp/geoms/mol2/13di4ed4ii-12dh12hf-12if12af-4ie-.out
 97 104 0 0 0
SMALL
GASTEIGER

@<TRIPOS>ATOM
      1 C           0.3520    2.8508    2.8892 C.ar    1  LIG1        0.0199
      2 C          -0.2355    4.0755    2.6071 C.ar    1  LIG1        0.0725
      3 C          -1.5569    3.8328    2.0967 C.ar    1  LIG1       -0.0078
      4 C          -1.7223    2.4565    2.0829 C.ar    1  LIG1        0.0519
      5 N          -0.5577    1.8885    2.5863 N.ar    1  LIG1       -0.3592
      6 H          -0.3843    0.8959    2.6216 H       1  LIG1        0.1654
      7 H           1.3339    2.6184    3.2714 H       1  LIG1        0.0820
      8 N           0.8321    6.4010    2.9708 N.1     1  LIG1       -0.1908
      9 C           0.3608    5.3482    2.8105 C.1     1  LIG1        0.1009
     10 C          -2.5499    4.8920    1.7295 C.3     1  LIG1       -0.0365
     11 H          -3.5709    4.5035    1.7450 H       1  LIG1        0.0279
     12 H          -2.3658    5.2842    0.7235 H       1  LIG1        0.0279
     13 H          -2.4909    5.7323    2.4277 H       1  LIG1        0.0279
     14 C          -3.5485    1.6931    0.4941 C.ar    1  LIG1        0.0344
     15 C          -4.6451    0.8501    0.2415 C.ar    1  LIG1       -0.0367
     16 C          -2.8671    1.6017    1.7373 C.ar    1  LIG1        0.0152
     17 C          -5.0849   -0.1115    1.1530 C.ar    1  LIG1        0.0009
     18 H          -5.1399    0.9283   -0.7199 H       1  LIG1        0.0636
     19 C          -3.3009    0.6357    2.6515 C.ar    1  LIG1       -0.0335
     20 C          -4.3804   -0.2160    2.3766 C.ar    1  LIG1        0.0602
     21 H          -2.8118    0.5606    3.6171 H       1  LIG1        0.0637
     22 C          -3.1188    2.5746   -0.5434 C.1     1  LIG1       -0.0690
     23 C          -2.7852    3.2867   -1.4632 C.1     1  LIG1       -0.1139
     24 H          -2.4767    3.9162   -2.2663 H       1  LIG1        0.1232
     25 N          -5.0357   -1.9089    4.2347 N.1     1  LIG1       -0.1908
     26 C          -4.7650   -1.1603    3.3862 C.1     1  LIG1        0.0998
     27 C          -7.5158   -0.5106    0.5457 C.ar    1  LIG1       -0.0420
     28 C          -8.5108   -1.4288    0.2173 C.ar    1  LIG1       -0.0473
     29 C          -6.2238   -1.0106    0.8140 C.ar    1  LIG1       -0.0134
     30 C          -8.2803   -2.8143    0.1251 C.ar    1  LIG1        0.0218
     31 H          -9.5133   -1.0521    0.0458 H       1  LIG1        0.0627
     32 C          -5.9975   -2.3916    0.7436 C.ar    1  LIG1       -0.0501
     33 C          -6.9840   -3.3183    0.4027 C.ar    1  LIG1       -0.0392
     34 H          -4.9970   -2.7634    0.9454 H       1  LIG1        0.0627
     35 C          -7.8622    0.9585    0.6406 C.3     1  LIG1       -0.0391
     36 H          -8.9449    1.0929    0.7012 H       1  LIG1        0.0278
     37 H          -7.5155    1.5196   -0.2345 H       1  LIG1        0.0278
     38 H          -7.4121    1.4261    1.5212 H       1  LIG1        0.0278
     39 C          -6.6126   -4.7808    0.3271 C.3     1  LIG1       -0.0390
     40 H          -5.5306   -4.8984    0.4237 H       1  LIG1        0.0278
     41 H          -6.9224   -5.2331   -0.6196 H       1  LIG1        0.0278
     42 H          -7.0908   -5.3630    1.1195 H       1  LIG1        0.0278
     43 C          -9.4004   -3.6651   -0.2559 C.ar    1  LIG1        0.1553
     44 C         -10.5633   -3.4288   -0.9793 C.ar    1  LIG1        0.1187
     45 C         -11.2904   -4.6685   -1.0331 C.ar    1  LIG1        0.0924
     46 C         -10.5452   -5.5799   -0.3200 C.ar    1  LIG1        0.1943
     47 O          -9.3975   -4.9676    0.1292 O.2     1  LIG1       -0.4484
     48 N         -11.3915   -1.3146   -2.2043 N.1     1  LIG1       -0.1907
     49 C         -10.9811   -2.2466   -1.6371 C.1     1  LIG1        0.1048
     50 N         -12.5087   -4.9196   -1.7003 N.pl3   1  LIG1       -0.3539
     51 H         -12.9310   -4.0593   -2.0367 H       1  LIG1        0.1425
     52 H         -12.3833   -5.5465   -2.4915 H       1  LIG1        0.1425
     53 C         -10.7763   -6.9462    0.0302 C.ar    1  LIG1        0.1968
     54 C         -11.9544   -7.6581    0.1856 C.ar    1  LIG1        0.1170
     55 C         -11.5453   -8.9885    0.5041 C.ar    1  LIG1        0.1877
     56 C         -10.1710   -9.0062    0.5666 C.ar    1  LIG1        0.2141
     57 O          -9.6871   -7.7589    0.2623 O.2     1  LIG1       -0.4428
     58 N         -13.2608   -7.2144    0.1358 N.pl3   1  LIG1       -0.3521
     59 H         -13.4077   -6.3840   -0.4359 H       1  LIG1        0.1425
     60 H         -13.9350   -7.9518   -0.0207 H       1  LIG1        0.1425
     61 O         -12.4483   -9.9954    0.6793 O.3     1  LIG1       -0.5019
     62 H         -11.9821  -10.8424    0.6494 H       1  LIG1        0.2924
     63 C          -9.2414  -10.0654    0.8524 C.ar    1  LIG1        0.1810
     64 C          -9.2936  -11.1308    1.7304 C.ar    1  LIG1        0.0407
     65 C          -8.0894  -11.8588    1.4984 C.ar    1  LIG1        0.1694
     66 C          -7.3686  -11.1904    0.5339 C.ar    1  LIG1        0.2122
     67 O          -8.0825  -10.0933    0.1212 O.2     1  LIG1       -0.4444
     68 C         -10.3231  -11.4584    2.7694 C.3     1  LIG1       -0.0325
     69 H          -9.8476  -11.5981    3.7456 H       1  LIG1        0.0280
     70 H         -10.8476  -12.3950    2.5435 H       1  LIG1        0.0280
     71 H         -11.0642  -10.6622    2.8657 H       1  LIG1        0.0280
     72 O          -7.7699  -13.0032    2.1578 O.3     1  LIG1       -0.5029
     73 H          -7.0277  -13.4273    1.7016 H       1  LIG1        0.2923
     74 C          -6.0856  -11.4755   -0.0362 C.ar    1  LIG1        0.1779
     75 C          -5.0197  -12.1983    0.4514 C.ar    1  LIG1        0.0296
     76 C          -4.0548  -12.2182   -0.5954 C.ar    1  LIG1        0.1633
     77 C          -4.5776  -11.5275   -1.6653 C.ar    1  LIG1        0.1773
     78 O          -5.8287  -11.0571   -1.3077 O.2     1  LIG1       -0.4478
     79 H          -4.8836  -12.5751    1.4548 H       1  LIG1        0.0693
     80 O          -2.8226  -12.7838   -0.4623 O.3     1  LIG1       -0.5032
     81 H          -2.2350  -12.4008   -1.1279 H       1  LIG1        0.2923
     82 C          -3.4015  -12.0336   -3.8344 C.ar    1  LIG1       -0.0396
     83 C          -2.8766  -11.5429   -5.0380 C.ar    1  LIG1       -0.0570
     84 C          -4.0382  -11.1152   -2.9614 C.ar    1  LIG1        0.0250
     85 C          -2.9949  -10.2089   -5.4071 C.ar    1  LIG1       -0.0460
     86 H          -2.3854  -12.2371   -5.7146 H       1  LIG1        0.0621
     87 C          -4.1770   -9.7719   -3.3468 C.ar    1  LIG1       -0.0353
     88 C          -3.6670   -9.3036   -4.5651 C.ar    1  LIG1        0.0254
     89 H          -4.6864   -9.0827   -2.6826 H       1  LIG1        0.0637
     90 H          -2.5864   -9.8599   -6.3495 H       1  LIG1        0.0630
     91 C          -3.3469  -13.5160   -3.5454 C.3     1  LIG1       -0.0390
     92 H          -3.0347  -14.0681   -4.4352 H       1  LIG1        0.0278
     93 H          -4.3302  -13.8867   -3.2377 H       1  LIG1        0.0278
     94 H          -2.6570  -13.7790   -2.7364 H       1  LIG1        0.0278
     95 C          -3.8163   -7.9313   -4.9373 C.1     1  LIG1       -0.0696
     96 C          -3.9400   -6.7707   -5.2569 C.1     1  LIG1       -0.1139
     97 H          -4.0524   -5.7489   -5.5366 H       1  LIG1        0.1232
@<TRIPOS>BOND
     1    90    85    1
     2    86    83    1
     3    97    96    1
     4    85    83   ar
     5    85    88   ar
     6    96    95    3
     7    83    82   ar
     8    95    88    1
     9    88    87   ar
    10    92    91    1
    11    82    91    1
    12    82    84   ar
    13    91    93    1
    14    91    94    1
    15    87    84   ar
    16    87    89    1
    17    84    77    1
    18    52    50    1
    19    24    23    1
    20    48    49    3
    21    51    50    1
    22    50    45    1
    23    77    78   ar
    24    77    76   ar
    25    49    44    1
    26    23    22    3
    27    78    74   ar
    28    81    80    1
    29    45    44   ar
    30    45    46   ar
    31    44    43   ar
    32    18    15    1
    33    41    39    1
    34    76    80    1
    35    76    75   ar
    36    22    14    1
    37    59    58    1
    38    46    53    1
    39    46    47   ar
    40    43    30    1
    41    43    47   ar
    42    37    35    1
    43    74    75   ar
    44    74    66    1
    45    60    58    1
    46    53    54   ar
    47    53    57   ar
    48    31    28    1
    49    67    66   ar
    50    67    63   ar
    51    30    28   ar
    52    30    33   ar
    53    58    54    1
    54    54    55   ar
    55    28    27   ar
    56    15    14   ar
    57    15    17   ar
    58    57    56   ar
    59    39    33    1
    60    39    40    1
    61    39    42    1
    62    33    32   ar
    63    75    79    1
    64    14    16   ar
    65    55    56   ar
    66    55    61    1
    67    66    65   ar
    68    27    35    1
    69    27    29   ar
    70    56    63    1
    71    35    36    1
    72    35    38    1
    73    62    61    1
    74    12    10    1
    75    32    29   ar
    76    32    34    1
    77    29    17    1
    78    63    64   ar
    79    17    20   ar
    80    65    64   ar
    81    65    72    1
    82    73    72    1
    83    10    11    1
    84    10     3    1
    85    10    13    1
    86    64    68    1
    87    16     4    1
    88    16    19   ar
    89     4     3   ar
    90     4     5   ar
    91     3     2   ar
    92    20    19   ar
    93    20    26    1
    94    70    68    1
    95     5     6    1
    96     5     1   ar
    97     2     9    1
    98     2     1   ar
    99    19    21    1
   100    68    71    1
   101    68    69    1
   102     9     8    3
   103     1     7    1
   104    26    25    3
