@<TRIPOS>MOLECULE
mol_data/opt/b3lyp/geoms/mol2/13di13di13di13di.out
 50 53 0 0 0
SMALL
GASTEIGER

@<TRIPOS>ATOM
      1 C           0.5677    0.2549   -2.1634 C.ar    1  LIG1        0.0199
      2 C           0.7771    1.0109   -1.0197 C.ar    1  LIG1        0.0725
      3 C          -0.3410    0.8168   -0.1388 C.ar    1  LIG1       -0.0064
      4 C          -1.1958   -0.0602   -0.7885 C.ar    1  LIG1        0.0684
      5 N          -0.6132   -0.4019   -2.0078 N.ar    1  LIG1       -0.3581
      6 H          -1.0916   -0.8968   -2.7452 H       1  LIG1        0.1654
      7 H           1.1718    0.1518   -3.0515 H       1  LIG1        0.0820
      8 N           2.8573    2.4606   -0.5170 N.1     1  LIG1       -0.1908
      9 C           1.9222    1.8088   -0.7540 C.1     1  LIG1        0.1009
     10 C          -0.5049    1.4266    1.2193 C.3     1  LIG1       -0.0364
     11 H          -1.0939    0.7799    1.8752 H       1  LIG1        0.0279
     12 H          -1.0244    2.3893    1.1652 H       1  LIG1        0.0279
     13 H           0.4693    1.5987    1.6849 H       1  LIG1        0.0279
     14 C          -2.4584   -0.6464   -0.3774 C.ar    1  LIG1        0.0815
     15 C          -3.6120   -0.0759    0.1709 C.ar    1  LIG1        0.0819
     16 C          -4.5909   -1.1054    0.3636 C.ar    1  LIG1       -0.0057
     17 C          -4.0100   -2.2835   -0.0807 C.ar    1  LIG1        0.0688
     18 N          -2.7236   -1.9840   -0.5179 N.ar    1  LIG1       -0.3506
     19 H          -2.0773   -2.6533   -0.9071 H       1  LIG1        0.1660
     20 N          -3.9544    2.4290    0.7032 N.1     1  LIG1       -0.1908
     21 C          -3.7937    1.3020    0.4573 C.1     1  LIG1        0.1016
     22 C          -5.9601   -0.9184    0.9405 C.3     1  LIG1       -0.0364
     23 H          -6.3113   -1.8324    1.4266 H       1  LIG1        0.0279
     24 H          -6.6899   -0.6646    0.1642 H       1  LIG1        0.0279
     25 H          -5.9616   -0.1099    1.6765 H       1  LIG1        0.0279
     26 C          -4.5090   -3.6467   -0.1041 C.ar    1  LIG1        0.0815
     27 C          -5.7090   -4.1844   -0.5808 C.ar    1  LIG1        0.0819
     28 C          -5.6876   -5.6049   -0.3916 C.ar    1  LIG1       -0.0057
     29 C          -4.4645   -5.9019    0.1913 C.ar    1  LIG1        0.0688
     30 N          -3.7720   -4.7076    0.3565 N.ar    1  LIG1       -0.3506
     31 H          -2.8568   -4.6302    0.7731 H       1  LIG1        0.1660
     32 N          -7.6251   -2.8430   -1.6789 N.1     1  LIG1       -0.1908
     33 C          -6.7573   -3.4428   -1.1852 C.1     1  LIG1        0.1016
     34 C          -6.7856   -6.5569   -0.7536 C.3     1  LIG1       -0.0364
     35 H          -6.7919   -7.4222   -0.0852 H       1  LIG1        0.0279
     36 H          -6.6663   -6.9374   -1.7737 H       1  LIG1        0.0279
     37 H          -7.7593   -6.0636   -0.6924 H       1  LIG1        0.0279
     38 C          -3.8960   -7.1631    0.6322 C.ar    1  LIG1        0.0810
     39 C          -3.7926   -8.4012   -0.0072 C.ar    1  LIG1        0.0813
     40 C          -3.1247   -9.3170    0.8783 C.ar    1  LIG1       -0.0151
     41 C          -2.8393   -8.6047    2.0181 C.ar    1  LIG1        0.0064
     42 N          -3.2908   -7.3105    1.8581 N.ar    1  LIG1       -0.3582
     43 H          -3.3443   -6.6266    2.5973 H       1  LIG1        0.1654
     44 H          -2.3489   -8.9157    2.9284 H       1  LIG1        0.0810
     45 N          -4.5431   -8.9223   -2.4238 N.1     1  LIG1       -0.1908
     46 C          -4.2089   -8.6807   -1.3342 C.1     1  LIG1        0.1016
     47 C          -2.7967  -10.7500    0.5905 C.3     1  LIG1       -0.0371
     48 H          -2.2809  -11.2105    1.4371 H       1  LIG1        0.0278
     49 H          -2.1516  -10.8441   -0.2898 H       1  LIG1        0.0278
     50 H          -3.7016  -11.3329    0.3881 H       1  LIG1        0.0278
@<TRIPOS>BOND
     1     7     1    1
     2     6     5    1
     3    45    46    3
     4     1     5   ar
     5     1     2   ar
     6     5     4   ar
     7    36    34    1
     8    32    33    3
     9    46    39    1
    10    33    27    1
    11     2     9    1
    12     2     3   ar
    13    19    18    1
    14     4    14    1
    15     4     3   ar
    16     9     8    3
    17    34    37    1
    18    34    28    1
    19    34    35    1
    20    27    28   ar
    21    27    26   ar
    22    18    14   ar
    23    18    17   ar
    24    28    29   ar
    25    14    15   ar
    26    49    47    1
    27     3    10    1
    28    26    17    1
    29    26    30   ar
    30    17    16   ar
    31    39    38   ar
    32    39    40   ar
    33    24    22    1
    34    15    16   ar
    35    15    21    1
    36    29    30   ar
    37    29    38    1
    38    30    31    1
    39    16    22    1
    40    50    47    1
    41    21    20    3
    42    47    40    1
    43    47    48    1
    44    38    42   ar
    45    40    41   ar
    46    22    23    1
    47    22    25    1
    48    12    10    1
    49    10    13    1
    50    10    11    1
    51    42    41   ar
    52    42    43    1
    53    41    44    1
