@<TRIPOS>MOLECULE
mol_data/opt/b3lyp/geoms/mol2/13dl13dl13dl.out
 41 43 0 0 0
SMALL
GASTEIGER

@<TRIPOS>ATOM
      1 C           1.1578   -0.1091   -1.3581 C.ar    1  LIG1        0.0233
      2 C           1.1190    0.9168   -0.4220 C.ar    1  LIG1        0.1112
      3 C          -0.1865    0.8822    0.1857 C.ar    1  LIG1        0.1640
      4 C          -0.8908   -0.1587   -0.4019 C.ar    1  LIG1        0.1078
      5 N          -0.0325   -0.7624   -1.3206 N.ar    1  LIG1       -0.3553
      6 H          -0.3326   -1.4344   -2.0100 H       1  LIG1        0.1655
      7 H           1.9511   -0.3962   -2.0309 H       1  LIG1        0.0821
      8 N           3.1041    2.4677    0.1499 N.1     1  LIG1       -0.1907
      9 C           2.2076    1.7706   -0.1084 C.1     1  LIG1        0.1044
     10 O          -0.6621    1.6037    1.2224 O.3     1  LIG1       -0.4916
     11 C          -0.5352    3.0360    1.1391 C.3     1  LIG1        0.0789
     12 H          -0.9829    3.4209    2.0551 H       1  LIG1        0.0660
     13 H           0.5135    3.3403    1.0877 H       1  LIG1        0.0660
     14 H          -1.0902    3.4172    0.2773 H       1  LIG1        0.0660
     15 C          -2.2275   -0.6530   -0.1500 C.ar    1  LIG1        0.0883
     16 C          -3.4443    0.0300   -0.0153 C.ar    1  LIG1        0.1207
     17 C          -4.4711   -0.9545    0.1829 C.ar    1  LIG1        0.1647
     18 C          -3.8663   -2.2043    0.1586 C.ar    1  LIG1        0.1083
     19 N          -2.5056   -1.9878   -0.0333 N.ar    1  LIG1       -0.3478
     20 H          -1.8144   -2.7195   -0.0898 H       1  LIG1        0.1661
     21 N          -3.7193    2.5945   -0.1254 N.1     1  LIG1       -0.1907
     22 C          -3.5933    1.4374   -0.0709 C.1     1  LIG1        0.1050
     23 O          -5.7812   -0.7724    0.4556 O.3     1  LIG1       -0.4916
     24 C          -6.5279    0.0724   -0.4406 C.3     1  LIG1        0.0789
     25 H          -7.5463    0.0800   -0.0519 H       1  LIG1        0.0660
     26 H          -6.1328    1.0914   -0.4498 H       1  LIG1        0.0660
     27 H          -6.5290   -0.3501   -1.4494 H       1  LIG1        0.0660
     28 C          -4.4209   -3.5282    0.3388 C.ar    1  LIG1        0.0878
     29 C          -5.5740   -4.1152   -0.1952 C.ar    1  LIG1        0.1200
     30 C          -5.6383   -5.4633    0.3102 C.ar    1  LIG1        0.1553
     31 C          -4.5404   -5.6547    1.1157 C.ar    1  LIG1        0.0457
     32 N          -3.8019   -4.4863    1.1020 N.ar    1  LIG1       -0.3553
     33 H          -3.0521   -4.2858    1.7457 H       1  LIG1        0.1655
     34 H          -4.2307   -6.5266    1.6687 H       1  LIG1        0.0845
     35 N          -7.1353   -3.0133   -1.9302 N.1     1  LIG1       -0.1907
     36 C          -6.4319   -3.5055   -1.1418 C.1     1  LIG1        0.1050
     37 O          -6.5317   -6.4397    0.0107 O.3     1  LIG1       -0.4923
     38 C          -7.9178   -6.0969    0.1403 C.3     1  LIG1        0.0789
     39 H          -8.4712   -7.0158   -0.0577 H       1  LIG1        0.0660
     40 H          -8.1392   -5.7465    1.1554 H       1  LIG1        0.0660
     41 H          -8.2157   -5.3323   -0.5829 H       1  LIG1        0.0660
@<TRIPOS>BOND
     1     7     1    1
     2     6     5    1
     3    35    36    3
     4    27    24    1
     5     1     5   ar
     6     1     2   ar
     7     5     4   ar
     8    36    29    1
     9    41    38    1
    10    26    24    1
    11    24    25    1
    12    24    23    1
    13     2     9    1
    14     2     3   ar
    15     4    15    1
    16     4     3   ar
    17    29    30   ar
    18    29    28   ar
    19    15    19   ar
    20    15    16   ar
    21    21    22    3
    22     9     8    3
    23    20    19    1
    24    22    16    1
    25    39    38    1
    26    19    18   ar
    27    16    17   ar
    28    37    38    1
    29    37    30    1
    30    38    40    1
    31    18    17   ar
    32    18    28    1
    33    17    23    1
    34     3    10    1
    35    14    11    1
    36    30    31   ar
    37    28    32   ar
    38    13    11    1
    39    32    31   ar
    40    32    33    1
    41    31    34    1
    42    11    10    1
    43    11    12    1
