@<TRIPOS>MOLECULE
mol_data/opt/b3lyp/geoms/mol2/13dl13dl.out
 28 29 0 0 0
SMALL
GASTEIGER

@<TRIPOS>ATOM
      1 C           1.3363   -0.4433   -0.4086 C.ar    1  LIG1        0.0233
      2 C           1.0717    0.8412    0.0500 C.ar    1  LIG1        0.1112
      3 C          -0.3491    0.9249    0.2713 C.ar    1  LIG1        0.1640
      4 C          -0.8950   -0.3068   -0.0607 C.ar    1  LIG1        0.1078
      5 N           0.1629   -1.1272   -0.4475 N.ar    1  LIG1       -0.3553
      6 H           0.0409   -2.0258   -0.8882 H       1  LIG1        0.1655
      7 H           2.2734   -0.8900   -0.7023 H       1  LIG1        0.0821
      8 N           2.8617    2.6458    0.5099 N.1     1  LIG1       -0.1907
      9 C           2.0540    1.8330    0.3014 C.1     1  LIG1        0.1044
     10 O          -1.0639    1.9342    0.8152 O.3     1  LIG1       -0.4916
     11 C          -0.9076    3.2368    0.2217 C.3     1  LIG1        0.0789
     12 H          -1.5625    3.8966    0.7909 H       1  LIG1        0.0660
     13 H           0.1243    3.5894    0.3007 H       1  LIG1        0.0660
     14 H          -1.2306    3.2200   -0.8230 H       1  LIG1        0.0660
     15 C          -2.2586   -0.7865   -0.0014 C.ar    1  LIG1        0.0878
     16 C          -3.4618   -0.1739   -0.3705 C.ar    1  LIG1        0.1200
     17 C          -4.5184   -1.1172   -0.1037 C.ar    1  LIG1        0.1553
     18 C          -3.9380   -2.2558    0.4029 C.ar    1  LIG1        0.0457
     19 N          -2.5713   -2.0491    0.4350 N.ar    1  LIG1       -0.3553
     20 H          -1.9194   -2.6476    0.9177 H       1  LIG1        0.1655
     21 H          -4.3888   -3.1837    0.7154 H       1  LIG1        0.0845
     22 N          -3.6863    2.1304   -1.5112 N.1     1  LIG1       -0.1907
     23 C          -3.5784    1.0932   -0.9904 C.1     1  LIG1        0.1050
     24 O          -5.8442   -0.9981   -0.3705 O.3     1  LIG1       -0.4923
     25 C          -6.4913    0.1721    0.1469 C.3     1  LIG1        0.0789
     26 H          -7.5482    0.0617   -0.0998 H       1  LIG1        0.0660
     27 H          -6.3728    0.2335    1.2352 H       1  LIG1        0.0660
     28 H          -6.1059    1.0860   -0.3144 H       1  LIG1        0.0660
@<TRIPOS>BOND
     1    22    23    3
     2    23    16    1
     3     6     5    1
     4    14    11    1
     5     7     1    1
     6     5     1   ar
     7     5     4   ar
     8     1     2   ar
     9    24    17    1
    10    24    25    1
    11    16    17   ar
    12    16    15   ar
    13    28    25    1
    14    17    18   ar
    15    26    25    1
    16     4    15    1
    17     4     3   ar
    18    15    19   ar
    19     2     3   ar
    20     2     9    1
    21    25    27    1
    22    11    13    1
    23    11    12    1
    24    11    10    1
    25     3    10    1
    26     9     8    3
    27    18    19   ar
    28    18    21    1
    29    19    20    1
