@<TRIPOS>MOLECULE
mol_data/opt/b3lyp/geoms/mol2/13dl13da-4df6eh13df12fl-13el-13de-.out
 96 103 0 0 0
SMALL
GASTEIGER

@<TRIPOS>ATOM
      1 C           0.7534   -0.2357   -2.5192 C.ar    1  LIG1        0.0233
      2 C           1.2058    0.5028   -1.4327 C.ar    1  LIG1        0.1112
      3 C           0.2415    0.3321   -0.3769 C.ar    1  LIG1        0.1640
      4 C          -0.7603   -0.5003   -0.8602 C.ar    1  LIG1        0.1077
      5 N          -0.4019   -0.8538   -2.1606 N.ar    1  LIG1       -0.3553
      6 H          -1.0260   -1.3101   -2.8075 H       1  LIG1        0.1655
      7 H           1.1844   -0.3463   -3.5021 H       1  LIG1        0.0821
      8 N           3.4330    1.8097   -1.3654 N.1     1  LIG1       -0.1907
      9 C           2.4279    1.2223   -1.3941 C.1     1  LIG1        0.1044
     10 O           0.2961    0.7560    0.9014 O.3     1  LIG1       -0.4916
     11 C           0.5613    2.1545    1.1243 C.3     1  LIG1        0.0789
     12 H           0.5596    2.2806    2.2065 H       1  LIG1        0.0660
     13 H           1.5355    2.4434    0.7216 H       1  LIG1        0.0660
     14 H          -0.2345    2.7645    0.6881 H       1  LIG1        0.0660
     15 C          -1.9474   -1.0157   -0.2203 C.ar    1  LIG1        0.0845
     16 C          -2.8600   -0.4140    0.6530 C.ar    1  LIG1        0.0791
     17 C          -3.8439   -1.3851    0.9955 C.ar    1  LIG1       -0.0183
     18 C          -3.5370   -2.5549    0.3250 C.ar    1  LIG1        0.0496
     19 N          -2.3936   -2.2993   -0.4295 N.ar    1  LIG1       -0.3519
     20 H          -1.8009   -3.0284   -0.7978 H       1  LIG1        0.1660
     21 N          -2.8527    2.0675    1.3714 N.1     1  LIG1       -0.1908
     22 C          -2.8469    0.9472    1.0544 C.1     1  LIG1        0.1014
     23 H          -4.6954   -1.2161    1.6350 H       1  LIG1        0.0652
     24 C          -4.9930   -4.3674    1.3184 C.ar    1  LIG1        0.0617
     25 C          -5.5934   -5.6310    1.1932 C.ar    1  LIG1       -0.0324
     26 C          -4.2019   -3.8526    0.2594 C.ar    1  LIG1        0.0192
     27 C          -5.4358   -6.4289    0.0628 C.ar    1  LIG1        0.0275
     28 H          -6.1797   -6.0092    2.0240 H       1  LIG1        0.0638
     29 C          -4.0663   -4.6493   -0.8893 C.ar    1  LIG1       -0.0092
     30 C          -4.6649   -5.9048   -0.9981 C.ar    1  LIG1        0.1253
     31 H          -3.5293   -4.2552   -1.7487 H       1  LIG1        0.0661
     32 N          -5.3871   -3.1084    3.5518 N.1     1  LIG1       -0.1908
     33 C          -5.1920   -3.6574    2.5439 C.1     1  LIG1        0.0998
     34 O          -4.5764   -6.6486   -2.1280 O.3     1  LIG1       -0.5061
     35 H          -3.9962   -6.2140   -2.7670 H       1  LIG1        0.2922
     36 C          -5.3686   -8.9653   -0.1758 C.ar    1  LIG1        0.1218
     37 C          -6.0946   -7.7570   -0.0246 C.ar    1  LIG1        0.0213
     38 C          -7.4747   -7.8629    0.0862 C.ar    1  LIG1       -0.0284
     39 C          -8.1486   -9.1000    0.0296 C.ar    1  LIG1        0.0530
     40 C          -7.3342  -10.2517   -0.1894 C.ar    1  LIG1        0.1104
     41 N          -5.9953  -10.1412   -0.2567 N.ar    1  LIG1       -0.2344
     42 H          -8.0640   -6.9593    0.2185 H       1  LIG1        0.0643
     43 C          -3.9357   -9.0066   -0.2198 C.1     1  LIG1       -0.0492
     44 C          -2.7272   -9.0736   -0.2440 C.1     1  LIG1       -0.1124
     45 H          -1.6645   -9.1354   -0.2982 H       1  LIG1        0.1232
     46 N          -9.4973   -9.1314    0.2515 N.pl3   1  LIG1       -0.3563
     47 H          -9.9793   -8.2453    0.2573 H       1  LIG1        0.1424
     48 H         -10.0666   -9.9060   -0.0577 H       1  LIG1        0.1424
     49 C          -7.7728  -11.6528   -0.2984 C.ar    1  LIG1        0.0885
     50 C          -8.9626  -12.3789   -0.5545 C.ar    1  LIG1        0.1206
     51 C          -8.6272  -13.7673   -0.5753 C.ar    1  LIG1        0.1633
     52 C          -7.2554  -13.8688   -0.3412 C.ar    1  LIG1        0.1297
     53 N          -6.7901  -12.5843   -0.1758 N.ar    1  LIG1       -0.3464
     54 H          -5.8291  -12.2894   -0.0660 H       1  LIG1        0.1662
     55 N         -11.3234  -11.4716   -1.0603 N.1     1  LIG1       -0.1907
     56 C         -10.2589  -11.8918   -0.8324 C.1     1  LIG1        0.1050
     57 O          -9.5368  -14.7375   -0.7917 O.3     1  LIG1       -0.5034
     58 H          -9.1025  -15.6084   -0.8149 H       1  LIG1        0.2923
     59 C          -6.3807  -14.9957   -0.2653 C.ar    1  LIG1        0.2005
     60 C          -6.5348  -16.3442   -0.4551 C.ar    1  LIG1        0.2077
     61 C          -5.2657  -16.9609   -0.2666 C.ar    1  LIG1        0.2099
     62 C          -4.3737  -15.9544    0.0582 C.ar    1  LIG1        0.1983
     63 O          -5.0611  -14.7532    0.0389 O.2     1  LIG1       -0.4441
     64 O          -7.6965  -16.9750   -0.7936 O.3     1  LIG1       -0.5008
     65 H          -7.5380  -17.9309   -0.7629 H       1  LIG1        0.2924
     66 O          -5.1160  -18.3063   -0.4087 O.3     1  LIG1       -0.4884
     67 C          -4.2547  -18.7189   -1.4863 C.3     1  LIG1        0.0791
     68 H          -4.2991  -19.8084   -1.5048 H       1  LIG1        0.0660
     69 H          -4.6106  -18.3139   -2.4404 H       1  LIG1        0.0660
     70 H          -3.2246  -18.4040   -1.3065 H       1  LIG1        0.0660
     71 C          -2.9833  -15.8297    0.3872 C.ar    1  LIG1        0.1056
     72 C          -2.0088  -16.7450    0.8254 C.ar    1  LIG1        0.0953
     73 C          -0.7893  -15.9993    0.9821 C.ar    1  LIG1        0.1627
     74 C          -1.0448  -14.6732    0.6567 C.ar    1  LIG1        0.1082
     75 N          -2.3911  -14.5917    0.3286 N.ar    1  LIG1       -0.3466
     76 H          -2.8195  -13.8052   -0.1344 H       1  LIG1        0.1662
     77 C          -2.2219  -18.0914    1.2056 C.1     1  LIG1       -0.0637
     78 C          -2.3944  -19.2424    1.5420 C.1     1  LIG1       -0.1137
     79 H          -2.5595  -20.2418    1.8720 H       1  LIG1        0.1232
     80 O           0.3847  -16.4252    1.5003 O.3     1  LIG1       -0.4917
     81 C           1.0171  -17.5374    0.8418 C.3     1  LIG1        0.0789
     82 H           1.9111  -17.7545    1.4267 H       1  LIG1        0.0660
     83 H           0.3621  -18.4124    0.8301 H       1  LIG1        0.0660
     84 H           1.3117  -17.2605   -0.1746 H       1  LIG1        0.0660
     85 C          -0.2137  -13.4942    0.7325 C.ar    1  LIG1        0.0853
     86 C           1.1248  -13.2739    0.4034 C.ar    1  LIG1        0.0938
     87 C           1.4268  -11.8887    0.6807 C.ar    1  LIG1        0.0600
     88 C           0.2604  -11.3206    1.1582 C.ar    1  LIG1        0.0190
     89 N          -0.7125  -12.2874    1.1735 N.ar    1  LIG1       -0.3573
     90 H          -1.6283  -12.1714    1.5803 H       1  LIG1        0.1655
     91 H           0.0686  -10.3164    1.5023 H       1  LIG1        0.0820
     92 N           2.7317  -14.9938   -0.6554 N.1     1  LIG1       -0.1908
     93 C           2.0080  -14.2226   -0.1673 C.1     1  LIG1        0.1026
     94 C           2.6699  -11.2357    0.4896 C.1     1  LIG1       -0.0669
     95 C           3.7339  -10.6851    0.3228 C.1     1  LIG1       -0.1138
     96 H           4.6773  -10.2115    0.1790 H       1  LIG1        0.1232
@<TRIPOS>BOND
     1     7     1    1
     2     6     5    1
     3    35    34    1
     4     1     5   ar
     5     1     2   ar
     6    69    67    1
     7     5     4   ar
     8    34    30    1
     9    31    29    1
    10    68    67    1
    11    67    70    1
    12    67    66    1
    13     2     9    1
    14     2     3   ar
    15     9     8    3
    16    55    56    3
    17    30    29   ar
    18    30    27   ar
    19    29    26   ar
    20     4     3   ar
    21     4    15    1
    22    56    50    1
    23    58    57    1
    24    20    19    1
    25    64    65    1
    26    64    60    1
    27    57    51    1
    28    92    93    3
    29    51    50   ar
    30    51    52   ar
    31    50    49   ar
    32    60    61   ar
    33    60    59   ar
    34    19    15   ar
    35    19    18   ar
    36    66    61    1
    37     3    10    1
    38    52    59    1
    39    52    53   ar
    40    49    40    1
    41    49    53   ar
    42    45    44    1
    43    61    62   ar
    44    59    63   ar
    45    41    40   ar
    46    41    36   ar
    47    44    43    3
    48    15    16   ar
    49    43    36    1
    50    40    39   ar
    51    53    54    1
    52    36    37   ar
    53    84    81    1
    54    93    86    1
    55    76    75    1
    56    48    46    1
    57    37    27    1
    58    37    38   ar
    59    39    38   ar
    60    39    46    1
    61    63    62   ar
    62    62    71    1
    63    27    25   ar
    64    38    42    1
    65    96    95    1
    66    46    47    1
    67    26    18    1
    68    26    24   ar
    69    95    94    3
    70    18    17   ar
    71    75    71   ar
    72    75    74   ar
    73    71    72   ar
    74    86    87   ar
    75    86    85   ar
    76    94    87    1
    77    16    17   ar
    78    16    22    1
    79    74    85    1
    80    74    73   ar
    81    87    88   ar
    82    14    11    1
    83    13    11    1
    84    85    89   ar
    85    72    73   ar
    86    72    77    1
    87    83    81    1
    88    81    82    1
    89    81    80    1
    90    10    11    1
    91    73    80    1
    92    17    23    1
    93    22    21    3
    94    11    12    1
    95    88    89   ar
    96    88    91    1
    97    89    90    1
    98    25    24   ar
    99    25    28    1
   100    77    78    3
   101    24    33    1
   102    78    79    1
   103    33    32    3
