@<TRIPOS>MOLECULE
mol_data/opt/b3lyp/geoms/mol2/13dl4ae6id-13il.out
 55 58 0 0 0
SMALL
GASTEIGER

@<TRIPOS>ATOM
      1 C           1.5730   -0.2973   -0.2589 C.ar    1  LIG1        0.0233
      2 C           1.2166    0.9774    0.1755 C.ar    1  LIG1        0.1112
      3 C          -0.2113    0.9669    0.3489 C.ar    1  LIG1        0.1625
      4 C          -0.6759   -0.3027    0.0095 C.ar    1  LIG1        0.0901
      5 N           0.4458   -1.0378   -0.3571 N.ar    1  LIG1       -0.3565
      6 H           0.4267   -2.0211   -0.5752 H       1  LIG1        0.1655
      7 H           2.5506   -0.6957   -0.4806 H       1  LIG1        0.0821
      8 N           2.9372    2.8587    0.5943 N.1     1  LIG1       -0.1907
      9 C           2.1515    2.0193    0.4065 C.1     1  LIG1        0.1044
     10 O          -1.0440    1.9486    0.7683 O.3     1  LIG1       -0.4917
     11 C          -0.5950    3.3049    0.6965 C.3     1  LIG1        0.0789
     12 H          -1.4696    3.9159    0.9226 H       1  LIG1        0.0660
     13 H           0.1911    3.5059    1.4292 H       1  LIG1        0.0660
     14 H          -0.2279    3.5465   -0.3065 H       1  LIG1        0.0660
     15 C          -3.0815   -0.2691    0.6878 C.ar    1  LIG1       -0.0519
     16 C          -4.3552   -0.8254    0.6534 C.ar    1  LIG1       -0.0522
     17 C          -2.0232   -0.8613   -0.0284 C.ar    1  LIG1        0.0031
     18 C          -4.6405   -1.9906   -0.0704 C.ar    1  LIG1       -0.0007
     19 H          -5.1543   -0.3558    1.2195 H       1  LIG1        0.0624
     20 C          -2.3070   -2.0118   -0.7810 C.ar    1  LIG1       -0.0365
     21 C          -3.5883   -2.5841   -0.8095 C.ar    1  LIG1        0.0330
     22 H          -1.5427   -2.4716   -1.3995 H       1  LIG1        0.0636
     23 H          -2.8954    0.6231    1.2719 H       1  LIG1        0.0624
     24 C          -3.8067   -3.7385   -1.6264 C.1     1  LIG1       -0.0690
     25 C          -3.9624   -4.7122   -2.3282 C.1     1  LIG1       -0.1139
     26 H          -4.1141   -5.5614   -2.9540 H       1  LIG1        0.1232
     27 C          -6.3894   -3.7381    0.5869 C.ar    1  LIG1        0.0468
     28 C          -6.0273   -2.5371   -0.0755 C.ar    1  LIG1        0.0056
     29 C          -7.0387   -1.8553   -0.7427 C.ar    1  LIG1       -0.0328
     30 C          -8.3600   -2.3298   -0.7351 C.ar    1  LIG1        0.0797
     31 C          -8.6532   -3.4863    0.0317 C.ar    1  LIG1        0.1051
     32 N          -7.6509   -4.1673    0.6334 N.ar    1  LIG1       -0.2485
     33 H          -6.8035   -0.9622   -1.3128 H       1  LIG1        0.0638
     34 C          -5.3719   -4.5886    1.3021 C.3     1  LIG1       -0.0217
     35 H          -4.7126   -3.9785    1.9267 H       1  LIG1        0.0293
     36 H          -4.7381   -5.1183    0.5828 H       1  LIG1        0.0293
     37 H          -5.8857   -5.3217    1.9251 H       1  LIG1        0.0293
     38 N         -10.0181   -1.1671   -2.3521 N.1     1  LIG1       -0.1908
     39 C          -9.3039   -1.6936   -1.5980 C.1     1  LIG1        0.1014
     40 C          -9.9757   -4.0647    0.2200 C.ar    1  LIG1        0.0727
     41 C         -11.2859   -3.5639    0.2686 C.ar    1  LIG1        0.0180
     42 C         -12.1132   -4.6777    0.5837 C.ar    1  LIG1        0.1408
     43 C         -11.3183   -5.8027    0.7358 C.ar    1  LIG1        0.0447
     44 N         -10.0332   -5.4137    0.5191 N.ar    1  LIG1       -0.3561
     45 H          -9.1918   -5.9545    0.6502 H       1  LIG1        0.1655
     46 H         -11.5851   -6.8178    0.9863 H       1  LIG1        0.0844
     47 C         -11.7954   -2.1560    0.1899 C.3     1  LIG1       -0.0342
     48 H         -12.7200   -2.0835    0.7702 H       1  LIG1        0.0279
     49 H         -12.0079   -1.8333   -0.8343 H       1  LIG1        0.0279
     50 H         -11.0785   -1.4410    0.6037 H       1  LIG1        0.0279
     51 O         -13.4685   -4.6366    0.7918 O.3     1  LIG1       -0.4933
     52 C         -14.2471   -4.6216   -0.4052 C.3     1  LIG1        0.0789
     53 H         -15.2939   -4.5822   -0.0959 H       1  LIG1        0.0660
     54 H         -14.0206   -3.7459   -1.0257 H       1  LIG1        0.0660
     55 H         -14.0764   -5.5284   -0.9999 H       1  LIG1        0.0660
@<TRIPOS>BOND
     1    26    25    1
     2    38    39    3
     3    25    24    3
     4    24    21    1
     5    39    30    1
     6    22    20    1
     7    33    29    1
     8    54    52    1
     9    55    52    1
    10    49    47    1
    11    21    20   ar
    12    21    18   ar
    13    20    17   ar
    14    29    30   ar
    15    29    28   ar
    16    30    31   ar
    17     6     5    1
    18     7     1    1
    19    52    53    1
    20    52    51    1
    21     5     1   ar
    22     5     4   ar
    23    14    11    1
    24     1     2   ar
    25    28    18    1
    26    28    27   ar
    27    18    16   ar
    28    17     4    1
    29    17    15   ar
    30     4     3   ar
    31    31    40    1
    32    31    32   ar
    33     2     3   ar
    34     2     9    1
    35    47    41    1
    36    47    50    1
    37    47    48    1
    38    40    41   ar
    39    40    44   ar
    40    41    42   ar
    41     3    10    1
    42     9     8    3
    43    44    45    1
    44    44    43   ar
    45    36    34    1
    46    42    43   ar
    47    42    51    1
    48    27    32   ar
    49    27    34    1
    50    16    15   ar
    51    16    19    1
    52    15    23    1
    53    11    10    1
    54    11    12    1
    55    11    13    1
    56    43    46    1
    57    34    37    1
    58    34    35    1
