@<TRIPOS>MOLECULE
mol_data/opt/b3lyp/geoms/mol2/13dl12da13hh13di-.out
 47 50 0 0 0
SMALL
GASTEIGER

@<TRIPOS>ATOM
      1 C           1.3205   -0.1804   -0.6330 C.ar    1  LIG1        0.0234
      2 C           0.9952    1.0994   -0.1868 C.ar    1  LIG1        0.1113
      3 C          -0.4125    1.0947    0.0986 C.ar    1  LIG1        0.1656
      4 C          -0.8938   -0.1797   -0.1963 C.ar    1  LIG1        0.1269
      5 N           0.1948   -0.9321   -0.6207 N.ar    1  LIG1       -0.3541
      6 H           0.1237   -1.8888   -0.9275 H       1  LIG1        0.1656
      7 H           2.2749   -0.5742   -0.9457 H       1  LIG1        0.0821
      8 N           2.7046    3.0101    0.1287 N.1     1  LIG1       -0.1907
      9 C           1.9289    2.1530   -0.0136 C.1     1  LIG1        0.1044
     10 O          -1.1958    2.0454    0.6359 O.3     1  LIG1       -0.4916
     11 C          -0.9667    3.4151    0.2712 C.3     1  LIG1        0.0789
     12 H          -1.8566    3.9527    0.5965 H       1  LIG1        0.0660
     13 H          -0.0789    3.8125    0.7703 H       1  LIG1        0.0660
     14 H          -0.8576    3.5142   -0.8135 H       1  LIG1        0.0660
     15 C          -2.2100   -0.7398   -0.1129 C.ar    1  LIG1        0.1727
     16 C          -3.4975   -0.2272   -0.0717 C.ar    1  LIG1        0.0996
     17 C          -4.3907   -1.3483   -0.0130 C.ar    1  LIG1        0.0038
     18 C          -3.6152   -2.4726   -0.0311 C.ar    1  LIG1        0.1550
     19 O          -2.2793   -2.1091   -0.0915 O.2     1  LIG1       -0.4504
     20 N          -4.2855    2.2271   -0.2371 N.1     1  LIG1       -0.1907
     21 C          -3.8996    1.1321   -0.1503 C.1     1  LIG1        0.1030
     22 H          -5.4677   -1.3292    0.0295 H       1  LIG1        0.0669
     23 C          -3.9024   -3.8778    0.0021 C.ar    1  LIG1        0.1054
     24 C          -5.1259   -4.5412   -0.0433 C.ar    1  LIG1        0.0749
     25 C          -4.8629   -5.9460   -0.0423 C.ar    1  LIG1        0.0734
     26 C          -3.4734   -6.1088    0.0080 C.ar    1  LIG1        0.0874
     27 N          -2.9123   -4.8286    0.0740 N.ar    1  LIG1       -0.3476
     28 H          -1.9583   -4.6339   -0.1875 H       1  LIG1        0.1661
     29 N          -6.3920   -3.8938   -0.0563 N.pl3   1  LIG1       -0.3548
     30 H          -6.9175   -4.0890   -0.9050 H       1  LIG1        0.1424
     31 H          -6.9676   -4.1569    0.7398 H       1  LIG1        0.1424
     32 N          -5.8528   -6.9149    0.0371 N.pl3   1  LIG1       -0.3548
     33 H          -6.7675   -6.5527   -0.2014 H       1  LIG1        0.1424
     34 H          -5.6676   -7.7821   -0.4544 H       1  LIG1        0.1424
     35 C          -2.6319   -7.2698    0.1318 C.ar    1  LIG1        0.0826
     36 C          -2.7450   -8.5794   -0.3590 C.ar    1  LIG1        0.0813
     37 C          -1.5989   -9.3346    0.0811 C.ar    1  LIG1       -0.0151
     38 C          -0.8263   -8.4664    0.8076 C.ar    1  LIG1        0.0064
     39 N          -1.4413   -7.2254    0.8189 N.ar    1  LIG1       -0.3582
     40 H          -1.1900   -6.4662    1.4329 H       1  LIG1        0.1654
     41 H           0.1154   -8.6260    1.3109 H       1  LIG1        0.0810
     42 N          -4.6703   -9.4008   -1.8671 N.1     1  LIG1       -0.1908
     43 C          -3.7861   -9.0440   -1.1929 C.1     1  LIG1        0.1016
     44 C          -1.3159  -10.7728   -0.2263 C.3     1  LIG1       -0.0371
     45 H          -0.3771  -11.0933    0.2330 H       1  LIG1        0.0278
     46 H          -1.2389  -10.9459   -1.3056 H       1  LIG1        0.0278
     47 H          -2.1135  -11.4250    0.1462 H       1  LIG1        0.0278
@<TRIPOS>BOND
     1    42    43    3
     2    46    44    1
     3    43    36    1
     4     7     1    1
     5     6     5    1
     6    30    29    1
     7    14    11    1
     8     1     5   ar
     9     1     2   ar
    10     5     4   ar
    11    34    32    1
    12    36    37   ar
    13    36    35   ar
    14    20    21    3
    15    44    37    1
    16    44    47    1
    17    44    45    1
    18    33    32    1
    19     4    15    1
    20     4     3   ar
    21    28    27    1
    22     2     9    1
    23     2     3   ar
    24    21    16    1
    25    15    19   ar
    26    15    16   ar
    27    19    18   ar
    28    16    17   ar
    29    29    24    1
    30    29    31    1
    31    24    25   ar
    32    24    23   ar
    33    25    26   ar
    34    25    32    1
    35    18    17   ar
    36    18    23    1
    37     9     8    3
    38    17    22    1
    39    23    27   ar
    40    26    27   ar
    41    26    35    1
    42    37    38   ar
    43     3    10    1
    44    35    39   ar
    45    11    12    1
    46    11    10    1
    47    11    13    1
    48    38    39   ar
    49    38    41    1
    50    39    40    1
