@<TRIPOS>MOLECULE
mol_data/opt/b3lyp/geoms/mol2/13dl13dl-.out
 28 29 0 0 0
SMALL
GASTEIGER

@<TRIPOS>ATOM
      1 C           1.2674   -0.4163   -0.0006 C.ar    1  LIG1        0.0233
      2 C           0.9181    0.9361   -0.0000 C.ar    1  LIG1        0.1112
      3 C          -0.5157    0.9810    0.0004 C.ar    1  LIG1        0.1640
      4 C          -0.9823   -0.3304    0.0005 C.ar    1  LIG1        0.1078
      5 N           0.1346   -1.1522    0.0001 N.ar    1  LIG1       -0.3553
      6 H           0.0901   -2.1638    0.0000 H       1  LIG1        0.1655
      7 H           2.2475   -0.8663   -0.0012 H       1  LIG1        0.0821
      8 N           2.6480    2.8549   -0.0007 N.1     1  LIG1       -0.1907
      9 C           1.8608    1.9960   -0.0002 C.1     1  LIG1        0.1044
     10 O          -1.3851    2.0282    0.0008 O.3     1  LIG1       -0.4916
     11 C          -0.8559    3.3576    0.0006 C.3     1  LIG1        0.0789
     12 H          -1.7220    4.0201    0.0010 H       1  LIG1        0.0660
     13 H          -0.2512    3.5422    0.8933 H       1  LIG1        0.0660
     14 H          -0.2519    3.5422   -0.8925 H       1  LIG1        0.0660
     15 C          -2.3355   -0.8196    0.0010 C.ar    1  LIG1        0.0878
     16 C          -2.8385   -2.1327    0.0010 C.ar    1  LIG1        0.1200
     17 C          -4.2686   -2.0351    0.0014 C.ar    1  LIG1        0.1553
     18 C          -4.5980   -0.6961    0.0019 C.ar    1  LIG1        0.0457
     19 N          -3.4094    0.0178    0.0016 N.ar    1  LIG1       -0.3553
     20 H          -3.3101    1.0224    0.0016 H       1  LIG1        0.1655
     21 H          -5.5522   -0.1970    0.0024 H       1  LIG1        0.0845
     22 N          -1.3008   -4.1996   -0.0004 N.1     1  LIG1       -0.1907
     23 C          -2.0423   -3.2975    0.0005 C.1     1  LIG1        0.1050
     24 O          -5.0598   -3.1310    0.0014 O.3     1  LIG1       -0.4923
     25 C          -6.4586   -2.8790    0.0017 C.3     1  LIG1        0.0789
     26 H          -6.9474   -3.8534    0.0016 H       1  LIG1        0.0660
     27 H          -6.7587   -2.3184    0.8967 H       1  LIG1        0.0660
     28 H          -6.7591   -2.3180   -0.8928 H       1  LIG1        0.0660
@<TRIPOS>BOND
     1    28    25    1
     2    14    11    1
     3     7     1    1
     4     8     9    3
     5     1     2   ar
     6     1     5   ar
     7    22    23    3
     8     9     2    1
     9     2     3   ar
    10     6     5    1
    11     5     4   ar
    12     3     4   ar
    13     3    10    1
    14    23    16    1
    15     4    15    1
    16    11    10    1
    17    11    12    1
    18    11    13    1
    19    16    15   ar
    20    16    17   ar
    21    15    19   ar
    22    24    17    1
    23    24    25    1
    24    17    18   ar
    25    19    20    1
    26    19    18   ar
    27    26    25    1
    28    25    27    1
    29    18    21    1
