@<TRIPOS>MOLECULE
mol_data/opt/b3lyp/geoms/mol2/13dl13dl-13dl-13dl-.out
 54 57 0 0 0
SMALL
GASTEIGER

@<TRIPOS>ATOM
      1 C           0.8138   -2.2294   -0.2625 C.ar    1  LIG1        0.0233
      2 C           0.6095   -1.6886   -1.5351 C.ar    1  LIG1        0.1112
      3 C          -0.6410   -0.9924   -1.4795 C.ar    1  LIG1        0.1640
      4 C          -1.1492   -1.1323   -0.1875 C.ar    1  LIG1        0.1078
      5 N          -0.2320   -1.8937    0.5237 N.ar    1  LIG1       -0.3553
      6 H          -0.3419   -2.1542    1.4952 H       1  LIG1        0.1655
      7 H           1.6390   -2.8218    0.1001 H       1  LIG1        0.0821
      8 N           2.2639   -1.9816   -3.4974 N.1     1  LIG1       -0.1907
      9 C           1.5113   -1.8435   -2.6191 C.1     1  LIG1        0.1044
     10 O          -1.3295   -0.2907   -2.4072 O.3     1  LIG1       -0.4916
     11 C          -0.8044   -0.1412   -3.7328 C.3     1  LIG1        0.0789
     12 H          -1.5450    0.4587   -4.2601 H       1  LIG1        0.0660
     13 H           0.1596    0.3754   -3.7136 H       1  LIG1        0.0660
     14 H          -0.6888   -1.1149   -4.2177 H       1  LIG1        0.0660
     15 C          -2.3742   -0.6099    0.3469 C.ar    1  LIG1        0.0883
     16 C          -2.9434   -0.7157    1.6404 C.ar    1  LIG1        0.1207
     17 C          -4.1781    0.0029    1.6032 C.ar    1  LIG1        0.1647
     18 C          -4.3350    0.5215    0.3176 C.ar    1  LIG1        0.1083
     19 N          -3.2229    0.1292   -0.4134 N.ar    1  LIG1       -0.3478
     20 H          -3.0353    0.3457   -1.3862 H       1  LIG1        0.1661
     21 N          -1.7289   -2.0287    3.4956 N.1     1  LIG1       -0.1907
     22 C          -2.3236   -1.4215    2.6943 C.1     1  LIG1        0.1050
     23 O          -5.1163    0.2244    2.5478 O.3     1  LIG1       -0.4916
     24 C          -4.9505   -0.3094    3.8673 C.3     1  LIG1        0.0789
     25 H          -4.0468    0.0907    4.3372 H       1  LIG1        0.0660
     26 H          -5.8357    0.0151    4.4129 H       1  LIG1        0.0660
     27 H          -4.9004   -1.4023    3.8405 H       1  LIG1        0.0660
     28 C          -5.4169    1.3107   -0.1916 C.ar    1  LIG1        0.0883
     29 C          -5.6464    1.8710   -1.4738 C.ar    1  LIG1        0.1207
     30 C          -6.8990    2.5625   -1.3975 C.ar    1  LIG1        0.1647
     31 C          -7.3951    2.4145   -0.1065 C.ar    1  LIG1        0.1083
     32 N          -6.4731    1.6525    0.5929 N.ar    1  LIG1       -0.3478
     33 H          -6.5487    1.3711    1.5646 H       1  LIG1        0.1661
     34 N          -3.9828    1.5686   -3.4210 N.1     1  LIG1       -0.1907
     35 C          -4.7568    1.7245   -2.5603 C.1     1  LIG1        0.1050
     36 O          -7.5892    3.2692   -2.3334 O.3     1  LIG1       -0.4916
     37 C          -7.0289    3.4048   -3.6416 C.3     1  LIG1        0.0789
     38 H          -7.7412    4.0050   -4.2085 H       1  LIG1        0.0660
     39 H          -6.0632    3.9184   -3.6068 H       1  LIG1        0.0660
     40 H          -6.9072    2.4296   -4.1227 H       1  LIG1        0.0660
     41 C          -8.6106    2.9179    0.4695 C.ar    1  LIG1        0.0878
     42 C          -9.1423    2.7897    1.7671 C.ar    1  LIG1        0.1200
     43 C         -10.3891    3.4986    1.7805 C.ar    1  LIG1        0.1553
     44 C         -10.5863    4.0301    0.5241 C.ar    1  LIG1        0.0457
     45 N          -9.4959    3.6641   -0.2498 N.ar    1  LIG1       -0.3553
     46 H          -9.3409    3.8983   -1.2192 H       1  LIG1        0.1655
     47 H         -11.3882    4.6239    0.1193 H       1  LIG1        0.0845
     48 N          -8.0090    1.5004    3.6903 N.1     1  LIG1       -0.1907
     49 C          -8.5464    2.0915    2.8390 C.1     1  LIG1        0.1050
     50 O         -11.1586    3.5692    2.8898 O.3     1  LIG1       -0.4923
     51 C         -12.3662    4.3057    2.7528 C.3     1  LIG1        0.0789
     52 H         -12.8632    4.2669    3.7223 H       1  LIG1        0.0660
     53 H         -12.1631    5.3513    2.4864 H       1  LIG1        0.0660
     54 H         -13.0166    3.8593    1.9892 H       1  LIG1        0.0660
@<TRIPOS>BOND
     1    12    11    1
     2    14    11    1
     3    38    37    1
     4    40    37    1
     5    11    13    1
     6    11    10    1
     7    37    39    1
     8    37    36    1
     9     8     9    3
    10    34    35    3
    11     9     2    1
    12    35    29    1
    13    10     3    1
    14    36    30    1
    15     2     3   ar
    16     2     1   ar
    17     3     4   ar
    18    29    30   ar
    19    29    28   ar
    20    30    31   ar
    21    20    19    1
    22    46    45    1
    23    19    18   ar
    24    19    15   ar
    25     1     7    1
    26     1     5   ar
    27    45    41   ar
    28    45    44   ar
    29    28    18    1
    30    28    32   ar
    31     4    15    1
    32     4     5   ar
    33    31    41    1
    34    31    32   ar
    35    47    44    1
    36    18    17   ar
    37    15    16   ar
    38    41    42   ar
    39     5     6    1
    40    44    43   ar
    41    32    33    1
    42    17    16   ar
    43    17    23    1
    44    16    22    1
    45    42    43   ar
    46    42    49    1
    47    43    50    1
    48    54    51    1
    49    53    51    1
    50    23    24    1
    51    22    21    3
    52    51    50    1
    53    51    52    1
    54    49    48    3
    55    27    24    1
    56    24    25    1
    57    24    26    1
