@<TRIPOS>MOLECULE
mol_data/opt/b3lyp/geoms/mol2/13dl13dl13dl-13dl.out
 54 57 0 0 0
SMALL
GASTEIGER

@<TRIPOS>ATOM
      1 C           1.3690   -0.4736   -0.4186 C.ar    1  LIG1        0.0233
      2 C           1.0961    0.7444    0.1949 C.ar    1  LIG1        0.1112
      3 C          -0.3288    0.8096    0.3812 C.ar    1  LIG1        0.1640
      4 C          -0.8702   -0.3637   -0.1327 C.ar    1  LIG1        0.1078
      5 N           0.1971   -1.1335   -0.5909 N.ar    1  LIG1       -0.3553
      6 H           0.0978   -1.9960   -1.1045 H       1  LIG1        0.1655
      7 H           2.3138   -0.8877   -0.7343 H       1  LIG1        0.0821
      8 N           2.8860    2.4552    0.9312 N.1     1  LIG1       -0.1907
      9 C           2.0774    1.6855    0.5990 C.1     1  LIG1        0.1044
     10 O          -1.0620    1.7328    1.0368 O.3     1  LIG1       -0.4916
     11 C          -0.8421    3.1145    0.6992 C.3     1  LIG1        0.0789
     12 H          -1.5492    3.6785    1.3066 H       1  LIG1        0.0660
     13 H           0.1788    3.4240    0.9374 H       1  LIG1        0.0660
     14 H          -1.0592    3.2870   -0.3588 H       1  LIG1        0.0660
     15 C          -2.2284   -0.8461   -0.1711 C.ar    1  LIG1        0.0883
     16 C          -3.4508   -0.1647   -0.3465 C.ar    1  LIG1        0.1207
     17 C          -4.4815   -1.1571   -0.3287 C.ar    1  LIG1        0.1647
     18 C          -3.8798   -2.4026   -0.1608 C.ar    1  LIG1        0.1083
     19 N          -2.5119   -2.1776   -0.0805 N.ar    1  LIG1       -0.3478
     20 H          -1.8435   -2.8902    0.1804 H       1  LIG1        0.1661
     21 N          -3.6957    2.3482   -0.8837 N.1     1  LIG1       -0.1907
     22 C          -3.5815    1.2175   -0.6259 C.1     1  LIG1        0.1050
     23 O          -5.8197   -1.0635   -0.4858 O.3     1  LIG1       -0.4916
     24 C          -6.4821    0.1934   -0.2671 C.3     1  LIG1        0.0789
     25 H          -7.5440   -0.0492   -0.2614 H       1  LIG1        0.0660
     26 H          -6.1860    0.6220    0.6954 H       1  LIG1        0.0660
     27 H          -6.2526    0.8984   -1.0696 H       1  LIG1        0.0660
     28 C          -4.4963   -3.6929   -0.0790 C.ar    1  LIG1        0.0883
     29 C          -3.9248   -4.9837    0.0412 C.ar    1  LIG1        0.1207
     30 C          -5.0151   -5.9098    0.0915 C.ar    1  LIG1        0.1647
     31 C          -6.2004   -5.1855    0.0015 C.ar    1  LIG1        0.1083
     32 N          -5.8458   -3.8488   -0.1048 N.ar    1  LIG1       -0.3478
     33 H          -6.4851   -3.0660   -0.1933 H       1  LIG1        0.1661
     34 N          -1.3625   -5.2484    0.0786 N.1     1  LIG1       -0.1907
     35 C          -2.5300   -5.1932    0.0678 C.1     1  LIG1        0.1050
     36 O          -5.0244   -7.2669    0.1897 O.3     1  LIG1       -0.4916
     37 C          -3.7895   -7.9368    0.4560 C.3     1  LIG1        0.0789
     38 H          -4.0399   -8.9925    0.5634 H       1  LIG1        0.0660
     39 H          -3.0852   -7.8119   -0.3721 H       1  LIG1        0.0660
     40 H          -3.3351   -7.5715    1.3827 H       1  LIG1        0.0660
     41 C          -7.5563   -5.6630    0.0118 C.ar    1  LIG1        0.0878
     42 C          -8.7914   -4.9754   -0.0328 C.ar    1  LIG1        0.1200
     43 C          -9.8271   -5.9782    0.0074 C.ar    1  LIG1        0.1553
     44 C          -9.2071   -7.2065    0.0737 C.ar    1  LIG1        0.0457
     45 N          -7.8447   -6.9916    0.0770 N.ar    1  LIG1       -0.3553
     46 H          -7.1246   -7.6981    0.1193 H       1  LIG1        0.1655
     47 H          -9.6371   -8.1932    0.1189 H       1  LIG1        0.0845
     48 N          -8.9028   -2.4004   -0.1221 N.1     1  LIG1       -0.1907
     49 C          -8.8927   -3.5679   -0.0829 C.1     1  LIG1        0.1050
     50 O         -11.1759   -5.8577    0.0030 O.3     1  LIG1       -0.4923
     51 C         -11.7428   -4.5710   -0.2268 C.3     1  LIG1        0.0789
     52 H         -12.8223   -4.7246   -0.2567 H       1  LIG1        0.0660
     53 H         -11.4995   -3.8724    0.5806 H       1  LIG1        0.0660
     54 H         -11.4095   -4.1493   -1.1817 H       1  LIG1        0.0660
@<TRIPOS>BOND
     1    54    51    1
     2     6     5    1
     3    27    24    1
     4    21    22    3
     5     7     1    1
     6    22    16    1
     7     5     1   ar
     8     5     4   ar
     9    23    17    1
    10    23    24    1
    11     1     2   ar
    12    39    37    1
    13    14    11    1
    14    16    17   ar
    15    16    15   ar
    16    17    18   ar
    17    24    25    1
    18    24    26    1
    19    52    51    1
    20    51    50    1
    21    51    53    1
    22    33    32    1
    23    15     4    1
    24    15    19   ar
    25    18    19   ar
    26    18    28    1
    27     4     3   ar
    28    48    49    3
    29    32    28   ar
    30    32    31   ar
    31    49    42    1
    32    19    20    1
    33    28    29   ar
    34    42    43   ar
    35    42    41   ar
    36    31    41    1
    37    31    30   ar
    38    50    43    1
    39    43    44   ar
    40    41    45   ar
    41    29    35    1
    42    29    30   ar
    43    35    34    3
    44    44    45   ar
    45    44    47    1
    46    45    46    1
    47    30    36    1
    48    36    37    1
    49     2     3   ar
    50     2     9    1
    51     3    10    1
    52    37    38    1
    53    37    40    1
    54     9     8    3
    55    11    13    1
    56    11    10    1
    57    11    12    1
