@<TRIPOS>MOLECULE
mol_data/opt/b3lyp/geoms/mol2/13dl13dl-13dl13dl-.out
 54 57 0 0 0
SMALL
GASTEIGER

@<TRIPOS>ATOM
      1 C           1.2937   -0.4579    0.0090 C.ar    1  LIG1        0.0233
      2 C           0.9351    0.8928    0.0330 C.ar    1  LIG1        0.1112
      3 C          -0.4968    0.9281    0.0318 C.ar    1  LIG1        0.1640
      4 C          -0.9552   -0.3895    0.0073 C.ar    1  LIG1        0.1078
      5 N           0.1683   -1.2046   -0.0060 N.ar    1  LIG1       -0.3553
      6 H           0.1363   -2.2157   -0.0244 H       1  LIG1        0.1655
      7 H           2.2775   -0.9002    0.0022 H       1  LIG1        0.0821
      8 N           2.6463    2.8277    0.0706 N.1     1  LIG1       -0.1907
      9 C           1.8664    1.9627    0.0538 C.1     1  LIG1        0.1044
     10 O          -1.3780    1.9530    0.0494 O.3     1  LIG1       -0.4916
     11 C          -0.9072    3.3069    0.0732 C.3     1  LIG1        0.0789
     12 H          -1.8102    3.9160    0.0826 H       1  LIG1        0.0660
     13 H          -0.3117    3.4962    0.9711 H       1  LIG1        0.0660
     14 H          -0.3095    3.5269   -0.8161 H       1  LIG1        0.0660
     15 C          -2.3114   -0.8585   -0.0030 C.ar    1  LIG1        0.0883
     16 C          -2.8397   -2.1732   -0.0274 C.ar    1  LIG1        0.1207
     17 C          -4.2627   -2.0416   -0.0269 C.ar    1  LIG1        0.1647
     18 C          -4.5683   -0.6806   -0.0028 C.ar    1  LIG1        0.1083
     19 N          -3.3612    0.0031    0.0111 N.ar    1  LIG1       -0.3478
     20 H          -3.2400    1.0098    0.0294 H       1  LIG1        0.1661
     21 N          -1.2629   -4.2112   -0.0620 N.1     1  LIG1       -0.1907
     22 C          -2.0245   -3.3257   -0.0471 C.1     1  LIG1        0.1050
     23 O          -5.2490   -2.9626   -0.0449 O.3     1  LIG1       -0.4916
     24 C          -4.9304   -4.3595   -0.0690 C.3     1  LIG1        0.0789
     25 H          -4.3594   -4.6120   -0.9678 H       1  LIG1        0.0660
     26 H          -4.3619   -4.6434    0.8220 H       1  LIG1        0.0660
     27 H          -5.8948   -4.8657   -0.0793 H       1  LIG1        0.0660
     28 C          -5.8620   -0.0649    0.0066 C.ar    1  LIG1        0.0883
     29 C          -6.2514    1.2983    0.0305 C.ar    1  LIG1        0.1207
     30 C          -7.6842    1.3123    0.0289 C.ar    1  LIG1        0.1647
     31 C          -8.1281   -0.0057    0.0047 C.ar    1  LIG1        0.1083
     32 N          -6.9994   -0.8092   -0.0082 N.ar    1  LIG1       -0.3478
     33 H          -6.9913   -1.8235   -0.0264 H       1  LIG1        0.1661
     34 N          -4.5286    3.2170    0.0671 N.1     1  LIG1       -0.1907
     35 C          -5.3346    2.3718    0.0509 C.1     1  LIG1        0.1050
     36 O          -8.5688    2.3462    0.0465 O.3     1  LIG1       -0.4916
     37 C          -8.0616    3.6826    0.0691 C.3     1  LIG1        0.0789
     38 H          -8.9375    4.3320    0.0792 H       1  LIG1        0.0660
     39 H          -7.4618    3.8628    0.9664 H       1  LIG1        0.0660
     40 H          -7.4605    3.8925   -0.8208 H       1  LIG1        0.0660
     41 C          -9.4694   -0.5190   -0.0061 C.ar    1  LIG1        0.0878
     42 C          -9.9544   -1.8407   -0.0304 C.ar    1  LIG1        0.1200
     43 C         -11.3865   -1.7612   -0.0307 C.ar    1  LIG1        0.1553
     44 C         -11.7355   -0.4280   -0.0072 C.ar    1  LIG1        0.0457
     45 N         -10.5572    0.3023    0.0073 N.ar    1  LIG1       -0.3553
     46 H         -10.4733    1.3079    0.0256 H       1  LIG1        0.1655
     47 H         -12.6968    0.0571    0.0004 H       1  LIG1        0.0845
     48 N          -8.4643   -3.9440   -0.0662 N.1     1  LIG1       -0.1907
     49 C          -9.1649   -3.0103   -0.0504 C.1     1  LIG1        0.1050
     50 O         -12.1631   -2.8676   -0.0515 O.3     1  LIG1       -0.4923
     51 C         -13.5648   -2.6332   -0.0489 C.3     1  LIG1        0.0789
     52 H         -14.0418   -3.6133   -0.0672 H       1  LIG1        0.0660
     53 H         -13.8731   -2.0921    0.8553 H       1  LIG1        0.0660
     54 H         -13.8710   -2.0598   -0.9337 H       1  LIG1        0.0660
@<TRIPOS>BOND
     1    25    24    1
     2    54    51    1
     3    40    37    1
     4    14    11    1
     5    27    24    1
     6    24    23    1
     7    24    26    1
     8    52    51    1
     9    48    49    3
    10    21    22    3
    11    50    51    1
    12    50    43    1
    13    49    42    1
    14    51    53    1
    15    22    16    1
    16    23    17    1
    17    43    42   ar
    18    43    44   ar
    19    42    41   ar
    20    16    17   ar
    21    16    15   ar
    22    17    18   ar
    23    33    32    1
    24     6     5    1
    25    32    31   ar
    26    32    28   ar
    27    44    47    1
    28    44    45   ar
    29    41    31    1
    30    41    45   ar
    31     5     4   ar
    32     5     1   ar
    33    15     4    1
    34    15    19   ar
    35    18    28    1
    36    18    19   ar
    37     7     1    1
    38    31    30   ar
    39    28    29   ar
    40     4     3   ar
    41    45    46    1
    42     1     2   ar
    43    19    20    1
    44    30    29   ar
    45    30    36    1
    46    29    35    1
    47     3     2   ar
    48     3    10    1
    49     2     9    1
    50    36    37    1
    51    10    11    1
    52    35    34    3
    53     9     8    3
    54    37    38    1
    55    37    39    1
    56    11    12    1
    57    11    13    1
