@<TRIPOS>MOLECULE
mol_data/opt/b3lyp/geoms/mol2/13dl13fl-12ia-12hh.out
 49 52 0 0 0
SMALL
GASTEIGER

@<TRIPOS>ATOM
      1 C           1.3226    0.0056    1.2246 C.ar    1  LIG1        0.0233
      2 C           1.1542    1.0521    0.3280 C.ar    1  LIG1        0.1112
      3 C          -0.2045    0.9897   -0.1434 C.ar    1  LIG1        0.1641
      4 C          -0.8215   -0.0796    0.4870 C.ar    1  LIG1        0.1101
      5 N           0.1425   -0.6692    1.3002 N.ar    1  LIG1       -0.3553
      6 H          -0.0593   -1.4049    1.9588 H       1  LIG1        0.1655
      7 H           2.1920   -0.2884    1.7914 H       1  LIG1        0.0821
      8 N           2.9665    2.7415   -0.4013 N.1     1  LIG1       -0.1907
      9 C           2.1547    1.9738   -0.0713 C.1     1  LIG1        0.1044
     10 O          -0.7723    1.7537   -1.1115 O.3     1  LIG1       -0.4916
     11 C          -0.9744    3.1319   -0.7677 C.3     1  LIG1        0.0789
     12 H          -1.4150    3.5996   -1.6498 H       1  LIG1        0.0660
     13 H          -1.6656    3.2173    0.0766 H       1  LIG1        0.0660
     14 H          -0.0262    3.6278   -0.5334 H       1  LIG1        0.0660
     15 C          -2.1662   -0.5966    0.3926 C.ar    1  LIG1        0.1128
     16 C          -3.3920    0.0465    0.3086 C.ar    1  LIG1        0.1867
     17 C          -4.4088   -0.9396    0.2853 C.ar    1  LIG1        0.1904
     18 C          -3.8060   -2.1939    0.3778 C.ar    1  LIG1        0.1288
     19 N          -2.4462   -1.9585    0.4603 N.ar    1  LIG1       -0.3446
     20 H          -1.7744   -2.6863    0.2674 H       1  LIG1        0.1663
     21 O          -3.6073    1.3904    0.3002 O.3     1  LIG1       -0.5019
     22 H          -4.5654    1.5120    0.3831 H       1  LIG1        0.2924
     23 O          -5.7434   -0.6055    0.2238 O.3     1  LIG1       -0.4894
     24 C          -6.3175   -0.7667   -1.0835 C.3     1  LIG1        0.0791
     25 H          -7.3509   -0.4209   -1.0135 H       1  LIG1        0.0660
     26 H          -5.7753   -0.1688   -1.8250 H       1  LIG1        0.0660
     27 H          -6.3025   -1.8179   -1.3905 H       1  LIG1        0.0660
     28 C          -4.3000   -3.5482    0.3698 C.ar    1  LIG1        0.1585
     29 C          -5.4910   -4.1752    0.6637 C.ar    1  LIG1       -0.0024
     30 C          -5.2482   -5.5752    0.4872 C.ar    1  LIG1       -0.0091
     31 C          -3.9365   -5.7229    0.1069 C.ar    1  LIG1        0.1728
     32 O          -3.3473   -4.4902    0.0249 O.2     1  LIG1       -0.4498
     33 C          -6.7704   -3.5653    1.1535 C.3     1  LIG1       -0.0360
     34 H          -7.0619   -4.0016    2.1160 H       1  LIG1        0.0279
     35 H          -7.5950   -3.7562    0.4557 H       1  LIG1        0.0279
     36 H          -6.6791   -2.4859    1.2808 H       1  LIG1        0.0279
     37 H          -5.9442   -6.3763    0.6940 H       1  LIG1        0.0659
     38 C          -3.1514   -6.8704   -0.2365 C.ar    1  LIG1        0.1920
     39 C          -3.5220   -8.1384   -0.6262 C.ar    1  LIG1        0.0950
     40 C          -2.3039   -8.8747   -0.8184 C.ar    1  LIG1        0.0846
     41 C          -1.2867   -8.0039   -0.5481 C.ar    1  LIG1        0.1152
     42 O          -1.7770   -6.7777   -0.2022 O.2     1  LIG1       -0.4560
     43 H          -0.2124   -8.0963   -0.5814 H       1  LIG1        0.1049
     44 N          -4.7981   -8.6766   -0.8019 N.pl3   1  LIG1       -0.3535
     45 H          -5.4957   -7.9714   -1.0162 H       1  LIG1        0.1425
     46 H          -4.7925   -9.3938   -1.5217 H       1  LIG1        0.1425
     47 N          -2.2853  -10.2036   -1.2903 N.pl3   1  LIG1       -0.3541
     48 H          -1.3466  -10.5299   -1.4906 H       1  LIG1        0.1425
     49 H          -2.7160  -10.8442   -0.6285 H       1  LIG1        0.1425
@<TRIPOS>BOND
     1    26    24    1
     2    12    11    1
     3    46    44    1
     4    48    47    1
     5    27    24    1
     6    47    40    1
     7    47    49    1
     8    10    11    1
     9    10     3    1
    10    24    25    1
    11    24    23    1
    12    45    44    1
    13    40    39   ar
    14    40    41   ar
    15    44    39    1
    16    11    14    1
    17    11    13    1
    18    39    38   ar
    19    43    41    1
    20    41    42   ar
    21     8     9    3
    22    38    42   ar
    23    38    31    1
    24     3     2   ar
    25     3     4   ar
    26     9     2    1
    27    32    31   ar
    28    32    28   ar
    29    31    30   ar
    30    23    17    1
    31    20    19    1
    32    17    16   ar
    33    17    18   ar
    34    21    16    1
    35    21    22    1
    36    16    15   ar
    37     2     1   ar
    38    28    18    1
    39    28    29   ar
    40    18    19   ar
    41    15    19   ar
    42    15     4    1
    43    35    33    1
    44     4     5   ar
    45    30    29   ar
    46    30    37    1
    47    29    33    1
    48    33    36    1
    49    33    34    1
    50     1     5   ar
    51     1     7    1
    52     5     6    1
