@<TRIPOS>MOLECULE
mol_data/opt/b3lyp/geoms/mol2/13dl13eh12hd4af.out
 48 51 0 0 0
SMALL
GASTEIGER

@<TRIPOS>ATOM
      1 C           1.3702   -0.1119    0.3296 C.ar    1  LIG1        0.0233
      2 C           1.0200    1.0619   -0.3266 C.ar    1  LIG1        0.1112
      3 C          -0.4093    1.0354   -0.5031 C.ar    1  LIG1        0.1640
      4 C          -0.8776   -0.1464    0.0531 C.ar    1  LIG1        0.1077
      5 N           0.2370   -0.8347    0.5277 N.ar    1  LIG1       -0.3553
      6 H           0.1720   -1.6571    1.1071 H       1  LIG1        0.1655
      7 H           2.3391   -0.4558    0.6563 H       1  LIG1        0.0821
      8 N           2.6858    2.8583   -1.1455 N.1     1  LIG1       -0.1907
      9 C           1.9355    2.0473   -0.7761 C.1     1  LIG1        0.1044
     10 O          -1.1900    1.9023   -1.1889 O.3     1  LIG1       -0.4916
     11 C          -1.0911    3.2853   -0.8205 C.3     1  LIG1        0.0789
     12 H          -1.8123    3.8102   -1.4477 H       1  LIG1        0.0660
     13 H          -1.3565    3.4207    0.2332 H       1  LIG1        0.0660
     14 H          -0.0891    3.6813   -1.0092 H       1  LIG1        0.0660
     15 C          -2.2051   -0.7123    0.1357 C.ar    1  LIG1        0.0844
     16 C          -3.4382   -0.1290    0.4468 C.ar    1  LIG1        0.0728
     17 C          -4.4304   -1.1703    0.4182 C.ar    1  LIG1        0.0696
     18 C          -3.7747   -2.3558    0.0754 C.ar    1  LIG1        0.1066
     19 N          -2.4138   -2.0578   -0.0444 N.ar    1  LIG1       -0.3480
     20 H          -1.7741   -2.6517   -0.5496 H       1  LIG1        0.1661
     21 C          -3.7100    1.2075    0.8215 C.1     1  LIG1       -0.0656
     22 C          -4.0273    2.3283    1.1580 C.1     1  LIG1       -0.1138
     23 H          -4.2860    3.3168    1.4589 H       1  LIG1        0.1232
     24 N          -5.7437   -1.0146    0.7885 N.pl3   1  LIG1       -0.3553
     25 H          -6.0765   -0.0604    0.7716 H       1  LIG1        0.1424
     26 H          -6.3906   -1.7174    0.4335 H       1  LIG1        0.1424
     27 C          -4.2776   -3.6812   -0.1101 C.ar    1  LIG1        0.1754
     28 C          -5.5202   -4.1978   -0.4011 C.ar    1  LIG1        0.0908
     29 C          -5.3643   -5.6294   -0.4312 C.ar    1  LIG1        0.1187
     30 C          -4.0299   -5.9099   -0.1870 C.ar    1  LIG1        0.1550
     31 O          -3.3765   -4.7227   -0.0056 O.2     1  LIG1       -0.4501
     32 N          -6.7016   -3.4576   -0.6505 N.pl3   1  LIG1       -0.3540
     33 H          -6.7110   -3.0733   -1.5933 H       1  LIG1        0.1425
     34 H          -7.5272   -4.0409   -0.5456 H       1  LIG1        0.1425
     35 N          -7.3560   -7.1955   -0.9189 N.1     1  LIG1       -0.1907
     36 C          -6.4314   -6.5225   -0.6941 C.1     1  LIG1        0.1048
     37 C          -3.8285   -8.3911   -0.2959 C.ar    1  LIG1       -0.0508
     38 C          -3.0452   -9.5387   -0.1974 C.ar    1  LIG1       -0.0576
     39 C          -3.2432   -7.1278   -0.0930 C.ar    1  LIG1        0.0221
     40 C          -1.6865   -9.4639    0.0976 C.ar    1  LIG1       -0.0201
     41 H          -3.5038  -10.5100   -0.3550 H       1  LIG1        0.0619
     42 C          -1.8695   -7.0492    0.2074 C.ar    1  LIG1       -0.0095
     43 C          -1.1013   -8.2086    0.3005 C.ar    1  LIG1        0.1175
     44 H          -1.4113   -6.0788    0.3729 H       1  LIG1        0.0661
     45 H          -1.0696  -10.3523    0.1763 H       1  LIG1        0.0654
     46 H          -4.8825   -8.4799   -0.5284 H       1  LIG1        0.0625
     47 O           0.2336   -8.1818    0.5903 O.3     1  LIG1       -0.5067
     48 H           0.5134   -7.2659    0.7166 H       1  LIG1        0.2921
@<TRIPOS>BOND
     1    33    32    1
     2    12    11    1
     3    10    11    1
     4    10     3    1
     5     8     9    3
     6    14    11    1
     7    35    36    3
     8    11    13    1
     9     9     2    1
    10    36    29    1
    11    32    34    1
    12    32    28    1
    13    20    19    1
    14    46    37    1
    15     3     2   ar
    16     3     4   ar
    17    29    28   ar
    18    29    30   ar
    19    28    27   ar
    20    41    38    1
    21     2     1   ar
    22    37    38   ar
    23    37    39   ar
    24    38    40   ar
    25    30    39    1
    26    30    31   ar
    27    27    31   ar
    28    27    18    1
    29    39    42   ar
    30    19    18   ar
    31    19    15   ar
    32     4    15    1
    33     4     5   ar
    34    18    17   ar
    35    40    45    1
    36    40    43   ar
    37    15    16   ar
    38    42    43   ar
    39    42    44    1
    40    43    47    1
    41     1     5   ar
    42     1     7    1
    43    17    16   ar
    44    17    24    1
    45    26    24    1
    46    16    21    1
    47     5     6    1
    48    47    48    1
    49    25    24    1
    50    21    22    3
    51    22    23    1
