@<TRIPOS>MOLECULE
mol_data/opt/b3lyp/geoms/mol2/13dl13dl-13dl-13dl.out
 54 57 0 0 0
SMALL
GASTEIGER

@<TRIPOS>ATOM
      1 C           1.1067   -0.4656   -0.4154 C.ar    1  LIG1        0.0233
      2 C           0.7221    0.8556   -0.6542 C.ar    1  LIG1        0.1112
      3 C          -0.7041    0.8901   -0.5227 C.ar    1  LIG1        0.1640
      4 C          -1.1332   -0.3997   -0.2132 C.ar    1  LIG1        0.1078
      5 N           0.0000   -1.1987   -0.1615 N.ar    1  LIG1       -0.3553
      6 H          -0.0108   -2.1854    0.0625 H       1  LIG1        0.1655
      7 H           2.0945   -0.8988   -0.4200 H       1  LIG1        0.0821
      8 N           2.3604    2.7556   -1.2694 N.1     1  LIG1       -0.1907
      9 C           1.6168    1.9038   -0.9900 C.1     1  LIG1        0.1044
     10 O          -1.5930    1.9018   -0.6748 O.3     1  LIG1       -0.4916
     11 C          -1.1376    3.2584   -0.5141 C.3     1  LIG1        0.0789
     12 H          -2.0428    3.8576   -0.4224 H       1  LIG1        0.0660
     13 H          -0.5360    3.3545    0.3946 H       1  LIG1        0.0660
     14 H          -0.5486    3.5726   -1.3794 H       1  LIG1        0.0660
     15 C          -2.4704   -0.8628    0.0261 C.ar    1  LIG1        0.0883
     16 C          -2.9672   -2.1338    0.3823 C.ar    1  LIG1        0.1207
     17 C          -4.3938   -2.0171    0.4771 C.ar    1  LIG1        0.1647
     18 C          -4.7318   -0.7049    0.1622 C.ar    1  LIG1        0.1083
     19 N          -3.5393   -0.0281   -0.0830 N.ar    1  LIG1       -0.3478
     20 H          -3.4353    0.9207   -0.4206 H       1  LIG1        0.1661
     21 N          -1.3704   -4.1102    0.8142 N.1     1  LIG1       -0.1907
     22 C          -2.1360   -3.2470    0.6328 C.1     1  LIG1        0.1050
     23 O          -5.2998   -2.9207    0.8961 O.3     1  LIG1       -0.4916
     24 C          -5.1678   -4.2715    0.4288 C.3     1  LIG1        0.0789
     25 H          -6.0861   -4.7752    0.7280 H       1  LIG1        0.0660
     26 H          -5.0820   -4.2966   -0.6620 H       1  LIG1        0.0660
     27 H          -4.3044   -4.7656    0.8843 H       1  LIG1        0.0660
     28 C          -6.0030   -0.0315    0.1310 C.ar    1  LIG1        0.0883
     29 C          -7.3094   -0.4920   -0.1304 C.ar    1  LIG1        0.1207
     30 C          -8.1707    0.6509   -0.0646 C.ar    1  LIG1        0.1647
     31 C          -7.3939    1.7658    0.2210 C.ar    1  LIG1        0.1083
     32 N          -6.0874    1.3187    0.3363 N.ar    1  LIG1       -0.3478
     33 H          -5.3221    1.9028    0.6440 H       1  LIG1        0.1661
     34 N          -8.0557   -2.8811   -0.7586 N.1     1  LIG1       -0.1907
     35 C          -7.6943   -1.8137   -0.4603 C.1     1  LIG1        0.1050
     36 O          -9.5275    0.7250   -0.1918 O.3     1  LIG1       -0.4916
     37 C         -10.1091    0.0945   -1.3492 C.3     1  LIG1        0.0789
     38 H         -11.1721    0.3365   -1.3165 H       1  LIG1        0.0660
     39 H          -9.6652    0.4932   -2.2680 H       1  LIG1        0.0660
     40 H          -9.9800   -0.9890   -1.3167 H       1  LIG1        0.0660
     41 C          -7.7895    3.1379    0.3820 C.ar    1  LIG1        0.0878
     42 C          -7.0216    4.3163    0.5312 C.ar    1  LIG1        0.1200
     43 C          -7.9558    5.4091    0.6451 C.ar    1  LIG1        0.1553
     44 C          -9.2230    4.8742    0.5632 C.ar    1  LIG1        0.0457
     45 N          -9.0962    3.5094    0.4045 N.ar    1  LIG1       -0.3553
     46 H          -9.8439    2.8351    0.3164 H       1  LIG1        0.1655
     47 H         -10.1810    5.3647    0.6092 H       1  LIG1        0.0845
     48 N          -4.4491    4.1796    0.4969 N.1     1  LIG1       -0.1907
     49 C          -5.6113    4.3032    0.5178 C.1     1  LIG1        0.1050
     50 O          -7.7440    6.7381    0.7893 O.3     1  LIG1       -0.4923
     51 C          -6.4149    7.1862    1.0375 C.3     1  LIG1        0.0789
     52 H          -6.4884    8.2634    1.1916 H       1  LIG1        0.0660
     53 H          -5.9945    6.7191    1.9355 H       1  LIG1        0.0660
     54 H          -5.7566    6.9885    0.1843 H       1  LIG1        0.0660
@<TRIPOS>BOND
     1    39    37    1
     2    14    11    1
     3    37    40    1
     4    37    38    1
     5    37    36    1
     6     8     9    3
     7     9     2    1
     8    34    35    3
     9    10     3    1
    10    10    11    1
    11    26    24    1
    12     2     3   ar
    13     2     1   ar
    14     3     4   ar
    15    11    12    1
    16    11    13    1
    17    35    29    1
    18    20    19    1
    19     7     1    1
    20     1     5   ar
    21     4     5   ar
    22     4    15    1
    23    36    30    1
    24     5     6    1
    25    29    30   ar
    26    29    28   ar
    27    19    15   ar
    28    19    18   ar
    29    30    31   ar
    30    15    16   ar
    31    28    18    1
    32    28    32   ar
    33    18    17   ar
    34    54    51    1
    35    31    32   ar
    36    31    41    1
    37    46    45    1
    38    32    33    1
    39    41    45   ar
    40    41    42   ar
    41    16    17   ar
    42    16    22    1
    43    45    44   ar
    44    24    25    1
    45    24    27    1
    46    24    23    1
    47    17    23    1
    48    48    49    3
    49    49    42    1
    50    42    43   ar
    51    44    47    1
    52    44    43   ar
    53    22    21    3
    54    43    50    1
    55    50    51    1
    56    51    52    1
    57    51    53    1
