@<TRIPOS>MOLECULE
mol_data/opt/b3lyp/geoms/mol2/13dl13dl13dl13dl-.out
 54 57 0 0 0
SMALL
GASTEIGER

@<TRIPOS>ATOM
      1 C           1.3532   -0.6894   -0.1276 C.ar    1  LIG1        0.0233
      2 C           1.1255    0.6431   -0.4577 C.ar    1  LIG1        0.1112
      3 C          -0.2975    0.8463   -0.4175 C.ar    1  LIG1        0.1640
      4 C          -0.8804   -0.3637   -0.0577 C.ar    1  LIG1        0.1078
      5 N           0.1553   -1.2859    0.0887 N.ar    1  LIG1       -0.3553
      6 H           0.0422   -2.2255    0.4430 H       1  LIG1        0.1655
      7 H           2.2854   -1.2244   -0.0343 H       1  LIG1        0.0821
      8 N           2.9624    2.3356   -1.1164 N.1     1  LIG1       -0.1907
      9 C           2.1334    1.5737   -0.8182 C.1     1  LIG1        0.1044
     10 O          -1.0180    1.9300   -0.7707 O.3     1  LIG1       -0.4916
     11 C          -0.6260    3.1980   -0.2142 C.3     1  LIG1        0.0789
     12 H          -1.3542    3.9172   -0.5875 H       1  LIG1        0.0660
     13 H          -0.6782    3.1673    0.8781 H       1  LIG1        0.0660
     14 H           0.3775    3.4823   -0.5414 H       1  LIG1        0.0660
     15 C          -2.2595   -0.7473    0.1006 C.ar    1  LIG1        0.0883
     16 C          -3.3949   -0.0449    0.5287 C.ar    1  LIG1        0.1207
     17 C          -4.4997   -0.9688    0.5189 C.ar    1  LIG1        0.1647
     18 C          -4.0208   -2.1970    0.0899 C.ar    1  LIG1        0.1083
     19 N          -2.6488   -2.0423   -0.1272 N.ar    1  LIG1       -0.3478
     20 H          -2.1183   -2.6695   -0.7155 H       1  LIG1        0.1661
     21 N          -3.4610    2.3565    1.4722 N.1     1  LIG1       -0.1907
     22 C          -3.4182    1.2775    1.0343 C.1     1  LIG1        0.1050
     23 O          -5.7518   -0.7811    0.9835 O.3     1  LIG1       -0.4916
     24 C          -6.5009    0.3153    0.4264 C.3     1  LIG1        0.0789
     25 H          -7.4697    0.2891    0.9239 H       1  LIG1        0.0660
     26 H          -6.0098    1.2722    0.6221 H       1  LIG1        0.0660
     27 H          -6.6432    0.1702   -0.6486 H       1  LIG1        0.0660
     28 C          -4.5970   -3.5111   -0.0006 C.ar    1  LIG1        0.0883
     29 C          -5.8933   -4.0017   -0.2685 C.ar    1  LIG1        0.1207
     30 C          -5.7952   -5.4351   -0.2684 C.ar    1  LIG1        0.1647
     31 C          -4.4694   -5.7772   -0.0230 C.ar    1  LIG1        0.1083
     32 N          -3.7768   -4.5894    0.1291 N.ar    1  LIG1       -0.3478
     33 H          -2.8218   -4.5403    0.4572 H       1  LIG1        0.1661
     34 N          -7.9275   -2.5338   -0.8779 N.1     1  LIG1       -0.1907
     35 C          -7.0115   -3.1943   -0.5895 C.1     1  LIG1        0.1050
     36 O          -6.7249   -6.4017   -0.4836 O.3     1  LIG1       -0.4916
     37 C          -8.1085   -6.0307   -0.5261 C.3     1  LIG1        0.0789
     38 H          -8.6617   -6.9674   -0.6004 H       1  LIG1        0.0660
     39 H          -8.4002   -5.5006    0.3857 H       1  LIG1        0.0660
     40 H          -8.3239   -5.4054   -1.3960 H       1  LIG1        0.0660
     41 C          -3.8137   -7.0498    0.0506 C.ar    1  LIG1        0.0878
     42 C          -2.4440   -7.3483    0.2105 C.ar    1  LIG1        0.1200
     43 C          -2.3253   -8.7779    0.2150 C.ar    1  LIG1        0.1553
     44 C          -3.5899   -9.3043    0.0591 C.ar    1  LIG1        0.0457
     45 N          -4.4721   -8.2360   -0.0366 N.ar    1  LIG1       -0.3553
     46 H          -5.4705   -8.2917   -0.1747 H       1  LIG1        0.1655
     47 H          -3.9355  -10.3228    0.0088 H       1  LIG1        0.0845
     48 N          -0.6923   -5.4689    0.3910 N.1     1  LIG1       -0.1907
     49 C          -1.4303   -6.3732    0.3160 C.1     1  LIG1        0.1050
     50 O          -1.1313   -9.3943    0.3525 O.3     1  LIG1       -0.4923
     51 C          -1.1673  -10.8164    0.3369 C.3     1  LIG1        0.0789
     52 H          -0.1370  -11.1517    0.4567 H       1  LIG1        0.0660
     53 H          -1.7778  -11.2039    1.1626 H       1  LIG1        0.0660
     54 H          -1.5666  -11.1899   -0.6148 H       1  LIG1        0.0660
@<TRIPOS>BOND
     1    40    37    1
     2     8     9    3
     3    34    35    3
     4     9     2    1
     5    10     3    1
     6    10    11    1
     7    20    19    1
     8    27    24    1
     9    54    51    1
    10    38    37    1
    11    35    29    1
    12    12    11    1
    13    14    11    1
    14    37    36    1
    15    37    39    1
    16    36    30    1
    17     2     3   ar
    18     2     1   ar
    19     3     4   ar
    20    29    30   ar
    21    29    28   ar
    22    30    31   ar
    23    11    13    1
    24    46    45    1
    25     1     7    1
    26     1     5   ar
    27    19    18   ar
    28    19    15   ar
    29     4     5   ar
    30     4    15    1
    31    45    41   ar
    32    45    44   ar
    33    31    41    1
    34    31    32   ar
    35    28    18    1
    36    28    32   ar
    37    47    44    1
    38    41    42   ar
    39    44    43   ar
    40     5     6    1
    41    18    17   ar
    42    15    16   ar
    43    32    33    1
    44    42    43   ar
    45    42    49    1
    46    43    50    1
    47    49    48    3
    48    51    50    1
    49    51    52    1
    50    51    53    1
    51    24    26    1
    52    24    25    1
    53    24    23    1
    54    17    16   ar
    55    17    23    1
    56    16    22    1
    57    22    21    3
