@<TRIPOS>MOLECULE
mol_data/opt/b3lyp/geoms/mol2/13dl13dl-13dl.out
 41 43 0 0 0
SMALL
GASTEIGER

@<TRIPOS>ATOM
      1 C           1.1357   -0.6006    0.2270 C.ar    1  LIG1        0.0233
      2 C           0.8352    0.7625    0.1586 C.ar    1  LIG1        0.1112
      3 C          -0.5932    0.8563    0.0985 C.ar    1  LIG1        0.1640
      4 C          -1.1071   -0.4402    0.1322 C.ar    1  LIG1        0.1078
      5 N          -0.0199   -1.3001    0.2105 N.ar    1  LIG1       -0.3553
      6 H          -0.0940   -2.3082    0.2497 H       1  LIG1        0.1655
      7 H           2.0989   -1.0825    0.2849 H       1  LIG1        0.0821
      8 N           2.6285    2.6218    0.1507 N.1     1  LIG1       -0.1907
      9 C           1.8111    1.7919    0.1536 C.1     1  LIG1        0.1044
     10 O          -1.4286    1.9149    0.0208 O.3     1  LIG1       -0.4916
     11 C          -0.9015    3.2481   -0.0042 C.3     1  LIG1        0.0789
     12 H          -1.7774    3.8926   -0.0640 H       1  LIG1        0.0660
     13 H          -0.3350    3.4592    0.9075 H       1  LIG1        0.0660
     14 H          -0.2595    3.3960   -0.8774 H       1  LIG1        0.0660
     15 C          -2.4816   -0.8530    0.0956 C.ar    1  LIG1        0.0883
     16 C          -3.0645   -2.1426    0.1267 C.ar    1  LIG1        0.1207
     17 C          -4.4818   -1.9518    0.0639 C.ar    1  LIG1        0.1647
     18 C          -4.7301   -0.5838   -0.0025 C.ar    1  LIG1        0.1083
     19 N          -3.4958    0.0478    0.0188 N.ar    1  LIG1       -0.3478
     20 H          -3.3378    1.0495   -0.0162 H       1  LIG1        0.1661
     21 N          -1.5779   -4.2428    0.2715 N.1     1  LIG1       -0.1907
     22 C          -2.2973   -3.3246    0.2055 C.1     1  LIG1        0.1050
     23 O          -5.5023   -2.8520    0.0614 O.3     1  LIG1       -0.4916
     24 C          -5.1844   -4.2439    0.1348 C.3     1  LIG1        0.0789
     25 H          -6.1401   -4.7685    0.1198 H       1  LIG1        0.0660
     26 H          -4.5816   -4.5571   -0.7232 H       1  LIG1        0.0660
     27 H          -4.6524   -4.4791    1.0619 H       1  LIG1        0.0660
     28 C          -5.9900    0.1046   -0.0796 C.ar    1  LIG1        0.0878
     29 C          -6.3032    1.4824   -0.1484 C.ar    1  LIG1        0.1200
     30 C          -7.7412    1.5787   -0.2085 C.ar    1  LIG1        0.1553
     31 C          -8.2408    0.2956   -0.1753 C.ar    1  LIG1        0.0457
     32 N          -7.1709   -0.5715   -0.0975 N.ar    1  LIG1       -0.3553
     33 H          -7.2151   -1.5794   -0.0578 H       1  LIG1        0.1655
     34 H          -9.2620   -0.0465   -0.2010 H       1  LIG1        0.0845
     35 N          -4.4661    3.2927   -0.1463 N.1     1  LIG1       -0.1907
     36 C          -5.3248    2.5007   -0.1496 C.1     1  LIG1        0.1050
     37 O          -8.5552    2.6588   -0.2813 O.3     1  LIG1       -0.4923
     38 C          -7.9654    3.9535   -0.3486 C.3     1  LIG1        0.0789
     39 H          -8.7984    4.6544   -0.4163 H       1  LIG1        0.0660
     40 H          -7.3771    4.1762    0.5482 H       1  LIG1        0.0660
     41 H          -7.3285    4.0611   -1.2335 H       1  LIG1        0.0660
@<TRIPOS>BOND
     1    41    38    1
     2    14    11    1
     3    26    24    1
     4    39    38    1
     5    38    37    1
     6    38    40    1
     7    37    30    1
     8    30    31   ar
     9    30    29   ar
    10    34    31    1
    11    31    32   ar
    12    36    29    1
    13    36    35    3
    14    29    28   ar
    15    32    28   ar
    16    32    33    1
    17    28    18    1
    18    12    11    1
    19    20    19    1
    20    11    10    1
    21    11    13    1
    22    18    19   ar
    23    18    17   ar
    24    19    15   ar
    25    10     3    1
    26    23    17    1
    27    23    24    1
    28    17    16   ar
    29    15    16   ar
    30    15     4    1
    31     3     4   ar
    32     3     2   ar
    33    25    24    1
    34    16    22    1
    35     4     5   ar
    36    24    27    1
    37     8     9    3
    38     9     2    1
    39     2     1   ar
    40    22    21    3
    41     5     1   ar
    42     5     6    1
    43     1     7    1
