@<TRIPOS>MOLECULE
mol_data/opt/b3lyp/geoms/mol2/13dl6ld13ah13ii.out
 53 56 0 0 0
SMALL
GASTEIGER

@<TRIPOS>ATOM
      1 C           1.3472   -0.4213    0.4556 C.ar    1  LIG1        0.0233
      2 C           1.0329    0.9331    0.3301 C.ar    1  LIG1        0.1112
      3 C          -0.3896    1.0051    0.1513 C.ar    1  LIG1        0.1627
      4 C          -0.8935   -0.3007    0.1736 C.ar    1  LIG1        0.0952
      5 N           0.2052   -1.1297    0.3614 N.ar    1  LIG1       -0.3564
      6 H           0.1047   -2.1327    0.4120 H       1  LIG1        0.1655
      7 H           2.3090   -0.8865    0.6033 H       1  LIG1        0.0821
      8 N           2.8260    2.7902    0.4314 N.1     1  LIG1       -0.1907
      9 C           2.0041    1.9657    0.3833 C.1     1  LIG1        0.1044
     10 O          -1.1955    2.0812   -0.0163 O.3     1  LIG1       -0.4917
     11 C          -0.6142    3.3859   -0.0438 C.3     1  LIG1        0.0789
     12 H          -1.4471    4.0734   -0.1935 H       1  LIG1        0.0660
     13 H          -0.1115    3.6175    0.9000 H       1  LIG1        0.0660
     14 H           0.0981    3.4865   -0.8684 H       1  LIG1        0.0660
     15 C          -2.6191   -2.1745    0.0674 C.ar    1  LIG1        0.2246
     16 C          -2.2571   -0.7942    0.0400 C.ar    1  LIG1        0.0646
     17 C          -3.3414    0.0723   -0.1289 C.ar    1  LIG1       -0.0279
     18 C          -4.6558   -0.3992   -0.2545 C.ar    1  LIG1        0.0800
     19 C          -4.8967   -1.7953   -0.2074 C.ar    1  LIG1        0.1083
     20 N          -3.8434   -2.6373   -0.0490 N.ar    1  LIG1       -0.2096
     21 H          -3.1625    1.1380   -0.1647 H       1  LIG1        0.0639
     22 O          -1.6112   -3.0811    0.2303 O.3     1  LIG1       -0.4792
     23 C          -1.9627   -4.4693    0.2784 C.3     1  LIG1        0.0804
     24 H          -1.0212   -5.0005    0.4224 H       1  LIG1        0.0660
     25 H          -2.6423   -4.6706    1.1101 H       1  LIG1        0.0660
     26 H          -2.4349   -4.7839   -0.6556 H       1  LIG1        0.0660
     27 N          -6.5290    1.3617   -0.5878 N.1     1  LIG1       -0.1908
     28 C          -5.6974    0.5605   -0.4364 C.1     1  LIG1        0.1014
     29 C          -6.1888   -2.4306   -0.3134 C.ar    1  LIG1        0.0686
     30 C          -7.5020   -1.9562   -0.4138 C.ar    1  LIG1       -0.0135
     31 C          -8.3620   -3.0737   -0.4495 C.ar    1  LIG1        0.0523
     32 C          -7.5684   -4.2289   -0.3620 C.ar    1  LIG1        0.0845
     33 N          -6.2589   -3.8053   -0.2986 N.ar    1  LIG1       -0.3503
     34 H          -5.4543   -4.3808   -0.1055 H       1  LIG1        0.1660
     35 H          -7.8032   -0.9220   -0.4718 H       1  LIG1        0.0658
     36 N          -9.7613   -3.0478   -0.5278 N.pl3   1  LIG1       -0.3563
     37 H         -10.1127   -2.2211   -0.9956 H       1  LIG1        0.1424
     38 H         -10.1419   -3.8829   -0.9592 H       1  LIG1        0.1424
     39 C          -7.9214   -5.6342   -0.4229 C.ar    1  LIG1        0.0679
     40 C          -8.9159   -6.3782    0.2066 C.ar    1  LIG1       -0.0208
     41 C          -8.7792   -7.7349   -0.2371 C.ar    1  LIG1       -0.0296
     42 C          -7.7124   -7.7757   -1.1086 C.ar    1  LIG1        0.0054
     43 N          -7.1784   -6.5127   -1.2006 N.ar    1  LIG1       -0.3590
     44 H          -6.5213   -6.2134   -1.9034 H       1  LIG1        0.1654
     45 H          -7.2911   -8.6046   -1.6592 H       1  LIG1        0.0810
     46 C          -9.8911   -5.8986    1.2429 C.3     1  LIG1       -0.0374
     47 H          -9.6731   -6.3365    2.2254 H       1  LIG1        0.0278
     48 H         -10.9184   -6.1904    0.9920 H       1  LIG1        0.0278
     49 H          -9.8724   -4.8122    1.3487 H       1  LIG1        0.0278
     50 C          -9.6218   -8.8973    0.1979 C.3     1  LIG1       -0.0380
     51 H          -9.3209   -9.8168   -0.3127 H       1  LIG1        0.0278
     52 H         -10.6844   -8.7318   -0.0180 H       1  LIG1        0.0278
     53 H          -9.5430   -9.0783    1.2771 H       1  LIG1        0.0278
@<TRIPOS>BOND
     1    44    43    1
     2    45    42    1
     3    43    42   ar
     4    43    39   ar
     5    42    41   ar
     6    37    36    1
     7    38    36    1
     8    14    11    1
     9    26    23    1
    10    27    28    3
    11    36    31    1
    12    35    30    1
    13    31    30   ar
    14    31    32   ar
    15    28    18    1
    16    39    32    1
    17    39    40   ar
    18    30    29   ar
    19    32    33   ar
    20    29    33   ar
    21    29    19    1
    22    51    50    1
    23    33    34    1
    24    18    19   ar
    25    18    17   ar
    26    41    50    1
    27    41    40   ar
    28    19    20   ar
    29    12    11    1
    30    21    17    1
    31    17    16   ar
    32    20    15   ar
    33    11    10    1
    34    11    13    1
    35    52    50    1
    36    10     3    1
    37    16    15   ar
    38    16     4    1
    39    15    22    1
    40     3     4   ar
    41     3     2   ar
    42     4     5   ar
    43    50    53    1
    44    40    46    1
    45    22    23    1
    46    23    24    1
    47    23    25    1
    48     2     9    1
    49     2     1   ar
    50     5     6    1
    51     5     1   ar
    52     9     8    3
    53     1     7    1
    54    48    46    1
    55    46    49    1
    56    46    47    1
