@<TRIPOS>MOLECULE
mol_data/opt/b3lyp/geoms/mol2/13dl13dl13dl13dl.out
 54 57 0 0 0
SMALL
GASTEIGER

@<TRIPOS>ATOM
      1 C           0.6066    0.2540   -2.3441 C.ar    1  LIG1        0.0233
      2 C           0.9203    1.0285   -1.2343 C.ar    1  LIG1        0.1112
      3 C          -0.1455    0.8501   -0.2822 C.ar    1  LIG1        0.1640
      4 C          -1.0649   -0.0226   -0.8465 C.ar    1  LIG1        0.1078
      5 N          -0.5627   -0.3906   -2.0946 N.ar    1  LIG1       -0.3553
      6 H          -1.1003   -0.8797   -2.7939 H       1  LIG1        0.1655
      7 H           1.1420    0.1352   -3.2733 H       1  LIG1        0.0821
      8 N           3.0899    2.4022   -0.9536 N.1     1  LIG1       -0.1907
      9 C           2.1107    1.7847   -1.0804 C.1     1  LIG1        0.1044
     10 O          -0.2365    1.3049    0.9853 O.3     1  LIG1       -0.4916
     11 C          -0.0529    2.7192    1.1901 C.3     1  LIG1        0.0789
     12 H          -0.1648    2.8739    2.2630 H       1  LIG1        0.0660
     13 H           0.9434    3.0407    0.8756 H       1  LIG1        0.0660
     14 H          -0.8263    3.2822    0.6604 H       1  LIG1        0.0660
     15 C          -2.2994   -0.5636   -0.3188 C.ar    1  LIG1        0.0883
     16 C          -3.3717    0.0676    0.3276 C.ar    1  LIG1        0.1207
     17 C          -4.3636   -0.9357    0.5958 C.ar    1  LIG1        0.1647
     18 C          -3.8833   -2.1433    0.1075 C.ar    1  LIG1        0.1083
     19 N          -2.6240   -1.8881   -0.4283 N.ar    1  LIG1       -0.3478
     20 H          -2.0364   -2.5811   -0.8655 H       1  LIG1        0.1661
     21 N          -3.4829    2.5830    0.8968 N.1     1  LIG1       -0.1907
     22 C          -3.4296    1.4471    0.6433 C.1     1  LIG1        0.1050
     23 O          -5.5194   -0.8274    1.2840 O.3     1  LIG1       -0.4916
     24 C          -6.4331    0.2118    0.8821 C.3     1  LIG1        0.0789
     25 H          -7.2906    0.1169    1.5481 H       1  LIG1        0.0660
     26 H          -5.9866    1.2025    0.9989 H       1  LIG1        0.0660
     27 H          -6.7572    0.0532   -0.1503 H       1  LIG1        0.0660
     28 C          -4.4628   -3.4693    0.1407 C.ar    1  LIG1        0.0883
     29 C          -5.7433   -3.9131   -0.2170 C.ar    1  LIG1        0.1207
     30 C          -5.7759   -5.3358   -0.0266 C.ar    1  LIG1        0.1647
     31 C          -4.5249   -5.7273    0.4321 C.ar    1  LIG1        0.1083
     32 N          -3.7548   -4.5736    0.5321 N.ar    1  LIG1       -0.3478
     33 H          -2.8017   -4.5524    0.8603 H       1  LIG1        0.1661
     34 N          -7.6425   -2.3864   -1.0692 N.1     1  LIG1       -0.1907
     35 C          -6.7877   -3.0757   -0.6798 C.1     1  LIG1        0.1050
     36 O          -6.8194   -6.1845   -0.1476 O.3     1  LIG1       -0.4916
     37 C          -7.5356   -6.1705   -1.3971 C.3     1  LIG1        0.0789
     38 H          -8.3208   -6.9190   -1.2905 H       1  LIG1        0.0660
     39 H          -7.9868   -5.1932   -1.5873 H       1  LIG1        0.0660
     40 H          -6.8721   -6.4561   -2.2183 H       1  LIG1        0.0660
     41 C          -4.0224   -7.0306    0.8109 C.ar    1  LIG1        0.0878
     42 C          -4.1281   -8.2694    0.1677 C.ar    1  LIG1        0.1200
     43 C          -3.4333   -9.2331    0.9832 C.ar    1  LIG1        0.1553
     44 C          -2.9294   -8.5630    2.0736 C.ar    1  LIG1        0.0457
     45 N          -3.2717   -7.2305    1.9418 N.ar    1  LIG1       -0.3553
     46 H          -3.1873   -6.5509    2.6820 H       1  LIG1        0.1655
     47 H          -2.3493   -8.9303    2.9045 H       1  LIG1        0.0845
     48 N          -5.1937   -8.6406   -2.1539 N.1     1  LIG1       -0.1907
     49 C          -4.7190   -8.4735   -1.1026 C.1     1  LIG1        0.1050
     50 O          -3.2002  -10.5463    0.7351 O.3     1  LIG1       -0.4923
     51 C          -4.3363  -11.3380    0.3637 C.3     1  LIG1        0.0789
     52 H          -3.9741  -12.3648    0.2971 H       1  LIG1        0.0660
     53 H          -5.1216  -11.2744    1.1260 H       1  LIG1        0.0660
     54 H          -4.7427  -11.0342   -0.6052 H       1  LIG1        0.0660
@<TRIPOS>BOND
     1     7     1    1
     2     6     5    1
     3     1     5   ar
     4     1     2   ar
     5    40    37    1
     6    48    49    3
     7     5     4   ar
     8    39    37    1
     9    37    38    1
    10    37    36    1
    11     2     9    1
    12     2     3   ar
    13    49    42    1
    14     9     8    3
    15    34    35    3
    16    20    19    1
    17     4    15    1
    18     4     3   ar
    19    35    29    1
    20    54    51    1
    21    19    15   ar
    22    19    18   ar
    23    15    16   ar
    24     3    10    1
    25    29    30   ar
    26    29    28   ar
    27    27    24    1
    28    36    30    1
    29    30    31   ar
    30    18    28    1
    31    18    17   ar
    32    28    32   ar
    33    42    41   ar
    34    42    43   ar
    35    52    51    1
    36    16    17   ar
    37    16    22    1
    38    51    50    1
    39    51    53    1
    40    31    32   ar
    41    31    41    1
    42    32    33    1
    43    17    23    1
    44    22    21    3
    45    14    11    1
    46    50    43    1
    47    41    45   ar
    48    13    11    1
    49    24    26    1
    50    24    23    1
    51    24    25    1
    52    43    44   ar
    53    10    11    1
    54    11    12    1
    55    45    44   ar
    56    45    46    1
    57    44    47    1
