@<TRIPOS>MOLECULE
mol_data/opt/b3lyp/geoms/mol2/13ea13ea-13ea-13ea.out
 42 45 0 0 0
SMALL
GASTEIGER

@<TRIPOS>ATOM
      1 C           1.3060   -0.3325   -0.0012 C.ar    1  LIG1        0.0177
      2 C           0.9047    1.0000   -0.0020 C.ar    1  LIG1        0.0426
      3 C          -0.5237    0.9981   -0.0012 C.ar    1  LIG1       -0.0195
      4 C          -0.9470   -0.3238   -0.0001 C.ar    1  LIG1        0.0653
      5 N           0.1886   -1.1117   -0.0001 N.ar    1  LIG1       -0.3584
      6 H           0.1620   -2.1228    0.0006 H       1  LIG1        0.1654
      7 H           2.2975   -0.7574   -0.0014 H       1  LIG1        0.0819
      8 C           1.7576    2.1345   -0.0032 C.1     1  LIG1       -0.0682
      9 C           2.4765    3.1086   -0.0043 C.1     1  LIG1       -0.1139
     10 H           3.1131    3.9623   -0.0063 H       1  LIG1        0.1232
     11 H          -1.1467    1.8811   -0.0015 H       1  LIG1        0.0651
     12 C          -2.2690   -0.8982    0.0009 C.ar    1  LIG1        0.0790
     13 C          -2.7020   -2.2351    0.0019 C.ar    1  LIG1        0.0520
     14 C          -4.1266   -2.2241    0.0025 C.ar    1  LIG1       -0.0189
     15 C          -4.5454   -0.9035    0.0019 C.ar    1  LIG1        0.0658
     16 N          -3.3988   -0.1194    0.0010 N.ar    1  LIG1       -0.3509
     17 H          -3.3719    0.8872   -0.0006 H       1  LIG1        0.1660
     18 C          -1.8695   -3.3827    0.0024 C.1     1  LIG1       -0.0675
     19 C          -1.1506   -4.3601    0.0028 C.1     1  LIG1       -0.1138
     20 H          -0.5505   -5.2404    0.0038 H       1  LIG1        0.1232
     21 H          -4.7725   -3.0871    0.0034 H       1  LIG1        0.0652
     22 C          -5.8717   -0.3406    0.0021 C.ar    1  LIG1        0.0790
     23 C          -7.1321   -0.9683    0.0008 C.ar    1  LIG1        0.0520
     24 C          -8.1169    0.0610    0.0016 C.ar    1  LIG1       -0.0189
     25 C          -7.4618    1.2821    0.0034 C.ar    1  LIG1        0.0657
     26 N          -6.1067    1.0130    0.0036 N.ar    1  LIG1       -0.3509
     27 H          -5.4183    1.7532    0.0057 H       1  LIG1        0.1660
     28 C          -7.3947   -2.3602   -0.0012 C.1     1  LIG1       -0.0675
     29 C          -7.6494   -3.5449   -0.0029 C.1     1  LIG1       -0.1138
     30 H          -7.8724   -4.5863   -0.0044 H       1  LIG1        0.1232
     31 H          -9.1844   -0.1060    0.0010 H       1  LIG1        0.0652
     32 C          -7.9533    2.6369    0.0049 C.ar    1  LIG1        0.0785
     33 C          -7.2718    3.8659    0.0072 C.ar    1  LIG1        0.0513
     34 C          -8.2628    4.9015    0.0079 C.ar    1  LIG1       -0.0283
     35 C          -9.4925    4.2948    0.0060 C.ar    1  LIG1        0.0034
     36 N          -9.2944    2.9315    0.0043 N.ar    1  LIG1       -0.3585
     37 H         -10.0261    2.2395    0.0025 H       1  LIG1        0.1654
     38 H         -10.4873    4.7130    0.0057 H       1  LIG1        0.0807
     39 C          -5.8666    4.0480    0.0087 C.1     1  LIG1       -0.0675
     40 C          -4.6618    4.2023    0.0101 C.1     1  LIG1       -0.1138
     41 H          -3.6148    4.4013    0.0124 H       1  LIG1        0.1232
     42 H          -8.0664    5.9630    0.0096 H       1  LIG1        0.0645
@<TRIPOS>BOND
     1    10     9    1
     2    30    29    1
     3     9     8    3
     4     8     2    1
     5    29    28    3
     6     2     3   ar
     7     2     1   ar
     8    11     3    1
     9     7     1    1
    10    28    23    1
    11     3     4   ar
    12     1     5   ar
    13    17    16    1
    14     5     4   ar
    15     5     6    1
    16     4    12    1
    17    23    24   ar
    18    23    22   ar
    19    12    16   ar
    20    12    13   ar
    21    31    24    1
    22    16    15   ar
    23    24    25   ar
    24    15    22    1
    25    15    14   ar
    26    13    18    1
    27    13    14   ar
    28    22    26   ar
    29    18    19    3
    30    14    21    1
    31    37    36    1
    32    19    20    1
    33    25    26   ar
    34    25    32    1
    35    26    27    1
    36    36    32   ar
    37    36    35   ar
    38    32    33   ar
    39    38    35    1
    40    35    34   ar
    41    33    34   ar
    42    33    39    1
    43    34    42    1
    44    39    40    3
    45    40    41    1
