@<TRIPOS>MOLECULE
mol_data/opt/b3lyp/geoms/mol2/13ea13ea-13ea.out
 32 34 0 0 0
SMALL
GASTEIGER

@<TRIPOS>ATOM
      1 C           1.2384   -0.3137   -0.0006 C.ar    1  LIG1        0.0177
      2 C           0.8311    1.0170   -0.0004 C.ar    1  LIG1        0.0426
      3 C          -0.5973    1.0099    0.0001 C.ar    1  LIG1       -0.0195
      4 C          -1.0141   -0.3135    0.0001 C.ar    1  LIG1        0.0653
      5 N           0.1244   -1.0978   -0.0004 N.ar    1  LIG1       -0.3584
      6 H           0.1033   -2.1087   -0.0005 H       1  LIG1        0.1654
      7 H           2.2319   -0.7344   -0.0009 H       1  LIG1        0.0819
      8 C           1.6809    2.1540   -0.0006 C.1     1  LIG1       -0.0682
      9 C           2.3986    3.1291   -0.0007 C.1     1  LIG1       -0.1139
     10 H           3.0322    3.9850   -0.0001 H       1  LIG1        0.1232
     11 H          -1.2278    1.8873    0.0004 H       1  LIG1        0.0651
     12 C          -2.3358   -0.8910    0.0005 C.ar    1  LIG1        0.0790
     13 C          -2.7612   -2.2322    0.0004 C.ar    1  LIG1        0.0520
     14 C          -4.1874   -2.2228    0.0009 C.ar    1  LIG1       -0.0189
     15 C          -4.6032   -0.9009    0.0013 C.ar    1  LIG1        0.0657
     16 N          -3.4648   -0.1178    0.0011 N.ar    1  LIG1       -0.3509
     17 H          -3.4882    0.8935    0.0013 H       1  LIG1        0.1660
     18 C          -1.9285   -3.3786   -0.0001 C.1     1  LIG1       -0.0675
     19 C          -1.2113   -4.3577   -0.0005 C.1     1  LIG1       -0.1138
     20 H          -0.6083   -5.2360   -0.0001 H       1  LIG1        0.1232
     21 H          -4.8130   -3.1037    0.0010 H       1  LIG1        0.0652
     22 C          -5.9220   -0.3166    0.0019 C.ar    1  LIG1        0.0785
     23 C          -6.3400    1.0241    0.0025 C.ar    1  LIG1        0.0513
     24 C          -7.7730    1.0224    0.0030 C.ar    1  LIG1       -0.0283
     25 C          -8.1840   -0.2861    0.0026 C.ar    1  LIG1        0.0034
     26 N          -7.0616   -1.0840    0.0020 N.ar    1  LIG1       -0.3585
     27 H          -7.0668   -2.0910    0.0016 H       1  LIG1        0.1654
     28 H          -9.1735   -0.7167    0.0027 H       1  LIG1        0.0807
     29 C          -5.4990    2.1647    0.0026 C.1     1  LIG1       -0.0675
     30 C          -4.7754    3.1391    0.0027 C.1     1  LIG1       -0.1138
     31 H          -4.1678    4.0144    0.0024 H       1  LIG1        0.1232
     32 H          -8.4049    1.8978    0.0035 H       1  LIG1        0.0645
@<TRIPOS>BOND
     1     7     1    1
     2     9     8    3
     3     9    10    1
     4     8     2    1
     5     1     2   ar
     6     1     5   ar
     7     6     5    1
     8    19    18    3
     9    19    20    1
    10     2     3   ar
    11     5     4   ar
    12    18    13    1
    13     4     3   ar
    14     4    12    1
    15     3    11    1
    16    13    12   ar
    17    13    14   ar
    18    12    16   ar
    19    14    21    1
    20    14    15   ar
    21    16    17    1
    22    16    15   ar
    23    15    22    1
    24    27    26    1
    25    22    26   ar
    26    22    23   ar
    27    26    25   ar
    28    31    30    1
    29    23    29    1
    30    23    24   ar
    31    25    28    1
    32    25    24   ar
    33    29    30    3
    34    24    32    1
