@<TRIPOS>MOLECULE
mol_data/opt/b3lyp/geoms/mol2/13ea13ea13ea.out
 32 34 0 0 0
SMALL
GASTEIGER

@<TRIPOS>ATOM
      1 C           1.2417   -0.2308    0.1184 C.ar    1  LIG1        0.0177
      2 C           0.8273    1.0387   -0.2624 C.ar    1  LIG1        0.0426
      3 C          -0.6034    1.0240   -0.2816 C.ar    1  LIG1       -0.0195
      4 C          -1.0197   -0.2434    0.0833 C.ar    1  LIG1        0.0653
      5 N           0.1248   -1.0002    0.3055 N.ar    1  LIG1       -0.3584
      6 H           0.1254   -1.9040    0.7510 H       1  LIG1        0.1654
      7 H           2.2358   -0.6238    0.2639 H       1  LIG1        0.0819
      8 C           1.6753    2.1314   -0.5844 C.1     1  LIG1       -0.0682
      9 C           2.3909    3.0679   -0.8599 C.1     1  LIG1       -0.1139
     10 H           3.0202    3.8923   -1.1017 H       1  LIG1        0.1232
     11 H          -1.2492    1.8438   -0.5547 H       1  LIG1        0.0651
     12 C          -2.3394   -0.8135    0.2125 C.ar    1  LIG1        0.0790
     13 C          -3.5733   -0.2222    0.4978 C.ar    1  LIG1        0.0520
     14 C          -4.5578   -1.2605    0.4869 C.ar    1  LIG1       -0.0189
     15 C          -3.9232   -2.4506    0.2014 C.ar    1  LIG1        0.0657
     16 N          -2.5608   -2.1748    0.0703 N.ar    1  LIG1       -0.3509
     17 H          -1.9533   -2.7510   -0.4947 H       1  LIG1        0.1660
     18 C          -3.8025    1.1464    0.7887 C.1     1  LIG1       -0.0675
     19 C          -4.0177    2.3128    1.0334 C.1     1  LIG1       -0.1138
     20 H          -4.2037    3.3378    1.2547 H       1  LIG1        0.1232
     21 H          -5.6092   -1.1423    0.6976 H       1  LIG1        0.0652
     22 C          -4.4332   -3.7943    0.0660 C.ar    1  LIG1        0.0785
     23 C          -5.6976   -4.2676   -0.3063 C.ar    1  LIG1        0.0513
     24 C          -5.6366   -5.6996   -0.2811 C.ar    1  LIG1       -0.0283
     25 C          -4.3678   -6.0581    0.0960 C.ar    1  LIG1        0.0034
     26 N          -3.6400   -4.9024    0.2872 N.ar    1  LIG1       -0.3585
     27 H          -2.7371   -4.8623    0.7325 H       1  LIG1        0.1654
     28 H          -3.9197   -7.0294    0.2400 H       1  LIG1        0.0807
     29 C          -6.8179   -3.4792   -0.6694 C.1     1  LIG1       -0.0675
     30 C          -7.7876   -2.8219   -0.9777 C.1     1  LIG1       -0.1138
     31 H          -8.6359   -2.2413   -1.2562 H       1  LIG1        0.1232
     32 H          -6.4476   -6.3676   -0.5302 H       1  LIG1        0.0645
@<TRIPOS>BOND
     1    31    30    1
     2    10     9    1
     3    30    29    3
     4     9     8    3
     5    29    23    1
     6     8     2    1
     7    11     3    1
     8    32    24    1
     9    17    16    1
    10    23    24   ar
    11    23    22   ar
    12     3     2   ar
    13     3     4   ar
    14    24    25   ar
    15     2     1   ar
    16    22    15    1
    17    22    26   ar
    18    16    15   ar
    19    16    12   ar
    20     4    12    1
    21     4     5   ar
    22    25    28    1
    23    25    26   ar
    24     1     7    1
    25     1     5   ar
    26    15    14   ar
    27    12    13   ar
    28    26    27    1
    29     5     6    1
    30    14    13   ar
    31    14    21    1
    32    13    18    1
    33    18    19    3
    34    19    20    1
