@<TRIPOS>MOLECULE
mol_data/opt/b3lyp/geoms/mol2/13ea13ea-.out
 22 23 0 0 0
SMALL
GASTEIGER

@<TRIPOS>ATOM
      1 C           1.1674   -0.2932   -0.0002 C.ar    1  LIG1        0.0177
      2 C           0.7684    1.0395   -0.0000 C.ar    1  LIG1        0.0426
      3 C          -0.6609    1.0403    0.0002 C.ar    1  LIG1       -0.0195
      4 C          -1.0857   -0.2800    0.0002 C.ar    1  LIG1        0.0653
      5 N           0.0478   -1.0701   -0.0000 N.ar    1  LIG1       -0.3584
      6 H           0.0191   -2.0811   -0.0002 H       1  LIG1        0.1654
      7 H           2.1580   -0.7203   -0.0004 H       1  LIG1        0.0819
      8 C           1.6233    2.1725   -0.0001 C.1     1  LIG1       -0.0682
      9 C           2.3445    3.1450   -0.0001 C.1     1  LIG1       -0.1139
     10 H           2.9817    3.9981   -0.0001 H       1  LIG1        0.1232
     11 H          -1.2821    1.9245    0.0004 H       1  LIG1        0.0651
     12 C          -2.4108   -0.8555    0.0004 C.ar    1  LIG1        0.0785
     13 C          -2.8420   -2.1914    0.0003 C.ar    1  LIG1        0.0513
     14 C          -4.2755   -2.1760    0.0005 C.ar    1  LIG1       -0.0283
     15 C          -4.6733   -0.8638    0.0008 C.ar    1  LIG1        0.0034
     16 N          -3.5420   -0.0776    0.0007 N.ar    1  LIG1       -0.3585
     17 H          -3.5358    0.9294    0.0008 H       1  LIG1        0.1654
     18 H          -5.6582   -0.4227    0.0011 H       1  LIG1        0.0807
     19 C          -2.0120   -3.3401   -0.0000 C.1     1  LIG1       -0.0675
     20 C          -1.2972   -4.3210   -0.0003 C.1     1  LIG1       -0.1138
     21 H          -0.6984   -5.2021   -0.0006 H       1  LIG1        0.1232
     22 H          -4.9159   -3.0452    0.0005 H       1  LIG1        0.0645
@<TRIPOS>BOND
     1    21    20    1
     2     7     1    1
     3    20    19    3
     4     1     5   ar
     5     1     2   ar
     6     6     5    1
     7    10     9    1
     8     9     8    3
     9     8     2    1
    10    19    13    1
    11     5     4   ar
    12     2     3   ar
    13     4     3   ar
    14     4    12    1
    15     3    11    1
    16    13    12   ar
    17    13    14   ar
    18    12    16   ar
    19    22    14    1
    20    14    15   ar
    21    16    17    1
    22    16    15   ar
    23    15    18    1
