@<TRIPOS>MOLECULE
mol_data/opt/b3lyp/geoms/mol2/13ea13ea13ea13ea.out
 42 45 0 0 0
SMALL
GASTEIGER

@<TRIPOS>ATOM
      1 C           0.8343    0.0885   -1.5043 C.ar    1  LIG1        0.0177
      2 C           0.8183    1.0839   -0.5371 C.ar    1  LIG1        0.0426
      3 C          -0.4035    0.9363    0.1946 C.ar    1  LIG1       -0.0195
      4 C          -1.0917   -0.1361   -0.3395 C.ar    1  LIG1        0.0653
      5 N          -0.3081   -0.6546   -1.3656 N.ar    1  LIG1       -0.3584
      6 H          -0.6429   -1.3026   -2.0616 H       1  LIG1        0.1654
      7 H           1.5681   -0.1318   -2.2640 H       1  LIG1        0.0819
      8 C           1.8365    2.0485   -0.3147 C.1     1  LIG1       -0.0682
      9 C           2.6992    2.8744   -0.1185 C.1     1  LIG1       -0.1139
     10 H           3.4573    3.6026    0.0522 H       1  LIG1        0.1232
     11 H          -0.7250    1.5357    1.0319 H       1  LIG1        0.0651
     12 C          -2.3609   -0.7260    0.0240 C.ar    1  LIG1        0.0790
     13 C          -3.5314   -0.1477    0.5338 C.ar    1  LIG1        0.0520
     14 C          -4.4943   -1.1904    0.6796 C.ar    1  LIG1       -0.0189
     15 C          -3.9133   -2.3755    0.2683 C.ar    1  LIG1        0.0658
     16 N          -2.6154   -2.0726   -0.1240 N.ar    1  LIG1       -0.3509
     17 H          -1.9526   -2.7365   -0.4910 H       1  LIG1        0.1660
     18 C          -3.7238    1.2242    0.8368 C.1     1  LIG1       -0.0675
     19 C          -3.9023    2.3912    1.1060 C.1     1  LIG1       -0.1138
     20 H          -4.0604    3.4195    1.3340 H       1  LIG1        0.1232
     21 H          -5.5004   -1.0821    1.0534 H       1  LIG1        0.0652
     22 C          -4.4340   -3.7229    0.2306 C.ar    1  LIG1        0.0790
     23 C          -5.7307   -4.1974   -0.0119 C.ar    1  LIG1        0.0520
     24 C          -5.6809   -5.6224    0.0386 C.ar    1  LIG1       -0.0189
     25 C          -4.3789   -5.9992    0.3091 C.ar    1  LIG1        0.0657
     26 N          -3.6359   -4.8315    0.4215 N.ar    1  LIG1       -0.3509
     27 H          -2.6513   -4.7991    0.6318 H       1  LIG1        0.1660
     28 C          -6.8761   -3.4038   -0.2740 C.1     1  LIG1       -0.0675
     29 C          -7.8647   -2.7398   -0.4938 C.1     1  LIG1       -0.1138
     30 H          -8.7318   -2.1548   -0.6943 H       1  LIG1        0.1232
     31 H          -6.5123   -6.2952   -0.1023 H       1  LIG1        0.0652
     32 C          -3.7838   -7.3051    0.4873 C.ar    1  LIG1        0.0785
     33 C          -4.0883   -8.5380   -0.0997 C.ar    1  LIG1        0.0513
     34 C          -3.1716   -9.5007    0.4379 C.ar    1  LIG1       -0.0283
     35 C          -2.3487   -8.8475    1.3188 C.ar    1  LIG1        0.0034
     36 N          -2.7100   -7.5161    1.3309 N.ar    1  LIG1       -0.3585
     37 H          -2.4089   -6.8563    2.0310 H       1  LIG1        0.1654
     38 H          -1.5383   -9.2101    1.9326 H       1  LIG1        0.0807
     39 C          -5.0928   -8.7816   -1.0699 C.1     1  LIG1       -0.0675
     40 C          -5.9495   -9.0100   -1.8950 C.1     1  LIG1       -0.1138
     41 H          -6.7004   -9.2050   -2.6247 H       1  LIG1        0.1232
     42 H          -3.1351  -10.5479    0.1772 H       1  LIG1        0.0645
@<TRIPOS>BOND
     1    41    40    1
     2     7     1    1
     3     6     5    1
     4    40    39    3
     5     1     5   ar
     6     1     2   ar
     7     5     4   ar
     8    39    33    1
     9    30    29    1
    10     2     8    1
    11     2     3   ar
    12    29    28    3
    13    17    16    1
    14     4    12    1
    15     4     3   ar
    16     8     9    3
    17    28    23    1
    18    16    12   ar
    19    16    15   ar
    20     9    10    1
    21    31    24    1
    22    33    34   ar
    23    33    32   ar
    24    23    24   ar
    25    23    22   ar
    26    12    13   ar
    27    24    25   ar
    28    42    34    1
    29     3    11    1
    30    22    15    1
    31    22    26   ar
    32    15    14   ar
    33    25    26   ar
    34    25    32    1
    35    26    27    1
    36    34    35   ar
    37    32    36   ar
    38    13    14   ar
    39    13    18    1
    40    14    21    1
    41    18    19    3
    42    19    20    1
    43    35    36   ar
    44    35    38    1
    45    36    37    1
