@<TRIPOS>MOLECULE
mol_data/opt/b3lyp/geoms/mol2/13ea13ea-13ea13ea-.out
 42 45 0 0 0
SMALL
GASTEIGER

@<TRIPOS>ATOM
      1 C           1.3130   -0.2983   -0.0010 C.ar    1  LIG1        0.0177
      2 C           0.9109    1.0342   -0.0010 C.ar    1  LIG1        0.0426
      3 C          -0.5175    1.0324   -0.0001 C.ar    1  LIG1       -0.0195
      4 C          -0.9395   -0.2894    0.0000 C.ar    1  LIG1        0.0653
      5 N           0.1961   -1.0779   -0.0006 N.ar    1  LIG1       -0.3584
      6 H           0.1710   -2.0888   -0.0007 H       1  LIG1        0.1654
      7 H           2.3048   -0.7229   -0.0015 H       1  LIG1        0.0819
      8 C           1.7648    2.1680   -0.0014 C.1     1  LIG1       -0.0682
      9 C           2.4855    3.1408   -0.0017 C.1     1  LIG1       -0.1139
     10 H           3.1223    3.9943   -0.0015 H       1  LIG1        0.1232
     11 H          -1.1438    1.9127    0.0003 H       1  LIG1        0.0651
     12 C          -2.2631   -0.8620    0.0007 C.ar    1  LIG1        0.0790
     13 C          -2.6930   -2.2026    0.0007 C.ar    1  LIG1        0.0520
     14 C          -4.1181   -2.1899    0.0015 C.ar    1  LIG1       -0.0189
     15 C          -4.5301   -0.8662    0.0019 C.ar    1  LIG1        0.0658
     16 N          -3.3892   -0.0853    0.0014 N.ar    1  LIG1       -0.3509
     17 H          -3.4083    0.9257    0.0016 H       1  LIG1        0.1660
     18 C          -1.8624   -3.3507    0.0000 C.1     1  LIG1       -0.0675
     19 C          -1.1467   -4.3309   -0.0004 C.1     1  LIG1       -0.1138
     20 H          -0.5458   -5.2106   -0.0005 H       1  LIG1        0.1232
     21 H          -4.7499   -3.0661    0.0017 H       1  LIG1        0.0652
     22 C          -5.8474   -0.2847    0.0027 C.ar    1  LIG1        0.0790
     23 C          -6.2648    1.0597    0.0032 C.ar    1  LIG1        0.0520
     24 C          -7.6904    1.0586    0.0040 C.ar    1  LIG1       -0.0189
     25 C          -8.1145   -0.2612    0.0039 C.ar    1  LIG1        0.0657
     26 N          -6.9818   -1.0517    0.0031 N.ar    1  LIG1       -0.3509
     27 H          -7.0125   -2.0627    0.0029 H       1  LIG1        0.1660
     28 C          -5.4254    2.2011    0.0031 C.1     1  LIG1       -0.0675
     29 C          -4.7032    3.1765    0.0029 C.1     1  LIG1       -0.1138
     30 H          -4.0946    4.0512    0.0021 H       1  LIG1        0.1232
     31 H          -8.3105    1.9433    0.0047 H       1  LIG1        0.0652
     32 C          -9.4370   -0.8364    0.0044 C.ar    1  LIG1        0.0785
     33 C          -9.8637   -2.1745    0.0046 C.ar    1  LIG1        0.0513
     34 C         -11.2965   -2.1636    0.0053 C.ar    1  LIG1       -0.0283
     35 C         -11.6989   -0.8524    0.0053 C.ar    1  LIG1        0.0034
     36 N         -10.5715   -0.0617    0.0049 N.ar    1  LIG1       -0.3585
     37 H         -10.5707    0.9453    0.0048 H       1  LIG1        0.1654
     38 H         -12.6856   -0.4154    0.0056 H       1  LIG1        0.0807
     39 C          -9.0303   -3.3206    0.0042 C.1     1  LIG1       -0.0675
     40 C          -8.3139   -4.3005    0.0040 C.1     1  LIG1       -0.1138
     41 H          -7.7156   -5.1820    0.0038 H       1  LIG1        0.1232
     42 H         -11.9341   -3.0348    0.0057 H       1  LIG1        0.0645
@<TRIPOS>BOND
     1     9    10    1
     2     9     8    3
     3     7     1    1
     4     8     2    1
     5     1     2   ar
     6     1     5   ar
     7     2     3   ar
     8     6     5    1
     9     5     4   ar
    10    20    19    1
    11    19    18    3
    12     3     4   ar
    13     3    11    1
    14    18    13    1
    15     4    12    1
    16    12    13   ar
    17    12    16   ar
    18    13    14   ar
    19    16    17    1
    20    16    15   ar
    21    14    21    1
    22    14    15   ar
    23    15    22    1
    24    30    29    1
    25    22    26   ar
    26    22    23   ar
    27    27    26    1
    28    29    28    3
    29    28    23    1
    30    26    25   ar
    31    23    24   ar
    32    41    40    1
    33    25    24   ar
    34    25    32    1
    35    40    39    3
    36    24    31    1
    37    39    33    1
    38    32    33   ar
    39    32    36   ar
    40    33    34   ar
    41    37    36    1
    42    36    35   ar
    43    35    34   ar
    44    35    38    1
    45    34    42    1
