@<TRIPOS>MOLECULE
mol_data/opt/b3lyp/geoms/mol2/13ea13ea.out
 22 23 0 0 0
SMALL
GASTEIGER

@<TRIPOS>ATOM
      1 C           1.2151   -0.3424   -0.0007 C.ar    1  LIG1        0.0177
      2 C           0.7985    0.9813    0.0002 C.ar    1  LIG1        0.0426
      3 C          -0.6308    0.9693    0.0007 C.ar    1  LIG1       -0.0195
      4 C          -1.0503   -0.3509    0.0002 C.ar    1  LIG1        0.0653
      5 N           0.0981   -1.1335   -0.0006 N.ar    1  LIG1       -0.3584
      6 H           0.1325   -2.1390   -0.0017 H       1  LIG1        0.1654
      7 H           2.2088   -0.7623   -0.0013 H       1  LIG1        0.0819
      8 C           1.6442    2.1221    0.0006 C.1     1  LIG1       -0.0682
      9 C           2.3591    3.0989    0.0007 C.1     1  LIG1       -0.1139
     10 H           2.9872    3.9588   -0.0002 H       1  LIG1        0.1232
     11 H          -1.2779    1.8313    0.0015 H       1  LIG1        0.0651
     12 C          -2.3851   -0.9086    0.0005 C.ar    1  LIG1        0.0785
     13 C          -3.6362   -0.2727    0.0003 C.ar    1  LIG1        0.0513
     14 C          -4.6372   -1.2978    0.0007 C.ar    1  LIG1       -0.0283
     15 C          -3.9953   -2.5083    0.0011 C.ar    1  LIG1        0.0034
     16 N          -2.6381   -2.2649    0.0009 N.ar    1  LIG1       -0.3585
     17 H          -1.9420   -2.9911    0.0013 H       1  LIG1        0.1654
     18 H          -4.3793   -3.5168    0.0015 H       1  LIG1        0.0807
     19 C          -3.8876    1.1217   -0.0001 C.1     1  LIG1       -0.0675
     20 C          -4.1379    2.3073   -0.0005 C.1     1  LIG1       -0.1138
     21 H          -4.3546    3.3500   -0.0011 H       1  LIG1        0.1232
     22 H          -5.7041   -1.1328    0.0007 H       1  LIG1        0.0645
@<TRIPOS>BOND
     1     6     5    1
     2     7     1    1
     3    21    20    1
     4     1     5   ar
     5     1     2   ar
     6     5     4   ar
     7    20    19    3
     8    10     9    1
     9    19    13    1
    10     4    12    1
    11     4     3   ar
    12     2     8    1
    13     2     3   ar
    14    13    12   ar
    15    13    14   ar
    16    12    16   ar
    17     8     9    3
    18    14    22    1
    19    14    15   ar
    20     3    11    1
    21    16    15   ar
    22    16    17    1
    23    15    18    1
