@<TRIPOS>MOLECULE
mol_data/opt/b3lyp/geoms/mol2/13ea13lh-4al4dl.out
 57 60 0 0 0
SMALL
GASTEIGER

@<TRIPOS>ATOM
      1 C           1.4218   -0.1809   -0.1028 C.ar    1  LIG1        0.0176
      2 C           1.0522    1.1459    0.0786 C.ar    1  LIG1        0.0425
      3 C          -0.3756    1.1709    0.1598 C.ar    1  LIG1       -0.0209
      4 C          -0.8400   -0.1256    0.0160 C.ar    1  LIG1        0.0513
      5 N           0.2808   -0.9291   -0.1533 N.ar    1  LIG1       -0.3594
      6 H           0.2578   -1.9358   -0.1586 H       1  LIG1        0.1654
      7 H           2.4010   -0.6263   -0.1869 H       1  LIG1        0.0819
      8 C           1.9338    2.2558    0.1635 C.1     1  LIG1       -0.0682
      9 C           2.6781    3.2080    0.2370 C.1     1  LIG1       -0.1139
     10 H           3.3334    4.0447    0.3024 H       1  LIG1        0.1232
     11 H          -0.9890    2.0465    0.2900 H       1  LIG1        0.0651
     12 C          -3.2891   -0.0877    0.6072 C.ar    1  LIG1        0.1300
     13 C          -4.5433   -0.6980    0.5610 C.ar    1  LIG1       -0.0080
     14 C          -2.1857   -0.6984   -0.0300 C.ar    1  LIG1        0.0434
     15 C          -4.7701   -1.9114   -0.1071 C.ar    1  LIG1        0.0291
     16 H          -5.3869   -0.2374    1.0583 H       1  LIG1        0.0661
     17 C          -2.4169   -1.9055   -0.7148 C.ar    1  LIG1       -0.0067
     18 C          -3.6723   -2.5139   -0.7572 C.ar    1  LIG1        0.1287
     19 H          -1.5955   -2.3475   -1.2650 H       1  LIG1        0.0662
     20 O          -3.0504    1.0916    1.2572 O.3     1  LIG1       -0.4944
     21 C          -4.1163    1.7016    1.9692 C.3     1  LIG1        0.0788
     22 H          -3.6965    2.6021    2.4197 H       1  LIG1        0.0660
     23 H          -4.9431    1.9812    1.3041 H       1  LIG1        0.0660
     24 H          -4.5009    1.0468    2.7611 H       1  LIG1        0.0660
     25 O          -3.9206   -3.6831   -1.4308 O.3     1  LIG1       -0.4945
     26 C          -2.8660   -4.2822   -2.1603 C.3     1  LIG1        0.0788
     27 H          -3.2901   -5.1740   -2.6246 H       1  LIG1        0.0660
     28 H          -2.4824   -3.6174   -2.9456 H       1  LIG1        0.0660
     29 H          -2.0332   -4.5805   -1.5087 H       1  LIG1        0.0660
     30 C          -7.2713   -1.7829   -0.4954 C.ar    1  LIG1        0.0332
     31 C          -8.5258   -2.3987   -0.4194 C.ar    1  LIG1       -0.0309
     32 C          -6.1304   -2.5195   -0.0997 C.ar    1  LIG1        0.0081
     33 C          -8.7087   -3.7089    0.0399 C.ar    1  LIG1        0.0079
     34 H          -9.4063   -1.8254   -0.6982 H       1  LIG1        0.0643
     35 C          -6.3092   -3.8395    0.3307 C.ar    1  LIG1       -0.0309
     36 C          -7.5625   -4.4478    0.4063 C.ar    1  LIG1        0.0332
     37 H          -5.4295   -4.4132    0.6071 H       1  LIG1        0.0643
     38 N          -7.1814   -0.4404   -0.9073 N.pl3   1  LIG1       -0.3575
     39 H          -6.2928   -0.2008   -1.3292 H       1  LIG1        0.1423
     40 H          -7.9516   -0.1524   -1.4972 H       1  LIG1        0.1423
     41 N          -7.6843   -5.7717    0.9009 N.pl3   1  LIG1       -0.3575
     42 H          -8.3894   -6.3088    0.4056 H       1  LIG1        0.1423
     43 H          -6.8032   -6.2722    0.8874 H       1  LIG1        0.1423
     44 C         -10.6861   -4.8154    1.2482 C.ar    1  LIG1        0.1241
     45 C         -10.0865   -4.2738    0.0744 C.ar    1  LIG1        0.0252
     46 C         -10.8842   -4.2023   -1.0714 C.ar    1  LIG1       -0.0285
     47 C         -12.2146   -4.6371   -1.0646 C.ar    1  LIG1        0.0436
     48 C         -12.6927   -5.1446    0.1481 C.ar    1  LIG1        0.0503
     49 N         -11.9587   -5.2399    1.2576 N.ar    1  LIG1       -0.2383
     50 H         -10.4534   -3.7957   -1.9835 H       1  LIG1        0.0644
     51 H         -13.7219   -5.4987    0.2213 H       1  LIG1        0.0849
     52 N         -10.0144   -4.8678    2.4629 N.pl3   1  LIG1       -0.3427
     53 H         -10.5409   -5.4030    3.1420 H       1  LIG1        0.1437
     54 H          -9.0399   -5.1519    2.3966 H       1  LIG1        0.1437
     55 N         -13.0428   -4.5129   -2.1959 N.pl3   1  LIG1       -0.3568
     56 H         -12.5457   -4.5970   -3.0739 H       1  LIG1        0.1424
     57 H         -13.8348   -5.1438   -2.1845 H       1  LIG1        0.1424
@<TRIPOS>BOND
     1    56    55    1
     2    28    26    1
     3    27    26    1
     4    55    57    1
     5    55    47    1
     6    26    29    1
     7    26    25    1
     8    50    46    1
     9    40    38    1
    10    25    18    1
    11    39    38    1
    12    19    17    1
    13    46    47   ar
    14    46    45   ar
    15    47    48   ar
    16    38    30    1
    17    18    17   ar
    18    18    15   ar
    19    17    14   ar
    20    34    31    1
    21    30    31   ar
    22    30    32   ar
    23    31    33   ar
    24     7     1    1
    25     6     5    1
    26     5     1   ar
    27     5     4   ar
    28    15    32    1
    29    15    13   ar
    30     1     2   ar
    31    32    35   ar
    32    14     4    1
    33    14    12   ar
    34     4     3   ar
    35    33    45    1
    36    33    36   ar
    37    45    44   ar
    38     2     3   ar
    39     2     8    1
    40    48    51    1
    41    48    49   ar
    42     3    11    1
    43     8     9    3
    44     9    10    1
    45    35    36   ar
    46    35    37    1
    47    42    41    1
    48    36    41    1
    49    13    12   ar
    50    13    16    1
    51    12    20    1
    52    43    41    1
    53    44    49   ar
    54    44    52    1
    55    20    21    1
    56    23    21    1
    57    21    22    1
    58    21    24    1
    59    54    52    1
    60    52    53    1
