@<TRIPOS>MOLECULE
mol_data/opt/b3lyp/geoms/mol2/13ea13ea13ea13ea-.out
 42 45 0 0 0
SMALL
GASTEIGER

@<TRIPOS>ATOM
      1 C           1.0121    0.0214   -1.1191 C.ar    1  LIG1        0.0177
      2 C           0.8557    1.0647   -0.2170 C.ar    1  LIG1        0.0426
      3 C          -0.4589    0.9453    0.3370 C.ar    1  LIG1       -0.0195
      4 C          -1.0621   -0.1587   -0.2351 C.ar    1  LIG1        0.0653
      5 N          -0.1382   -0.7220   -1.1093 N.ar    1  LIG1       -0.3584
      6 H          -0.3663   -1.4134   -1.8065 H       1  LIG1        0.1654
      7 H           1.8483   -0.2318   -1.7522 H       1  LIG1        0.0819
      8 C           1.8306    2.0476    0.0994 C.1     1  LIG1       -0.0682
      9 C           2.6558    2.8894    0.3743 C.1     1  LIG1       -0.1139
     10 H           3.3811    3.6310    0.6151 H       1  LIG1        0.1232
     11 H          -0.8984    1.5838    1.0872 H       1  LIG1        0.0651
     12 C          -2.3691   -0.7408   -0.0310 C.ar    1  LIG1        0.0790
     13 C          -3.5983   -0.1521    0.2991 C.ar    1  LIG1        0.0520
     14 C          -4.5722   -1.1928    0.3401 C.ar    1  LIG1       -0.0189
     15 C          -3.9398   -2.3873    0.0428 C.ar    1  LIG1        0.0658
     16 N          -2.6023   -2.0899   -0.1829 N.ar    1  LIG1       -0.3509
     17 H          -1.8849   -2.7690   -0.3811 H       1  LIG1        0.1660
     18 C          -3.8304    1.2274    0.5309 C.1     1  LIG1       -0.0675
     19 C          -4.0437    2.4015    0.7366 C.1     1  LIG1       -0.1138
     20 H          -4.2309    3.4355    0.9098 H       1  LIG1        0.1232
     21 H          -5.6202   -1.0773    0.5671 H       1  LIG1        0.0652
     22 C          -4.4435   -3.7366   -0.0322 C.ar    1  LIG1        0.0790
     23 C          -5.7377   -4.2227   -0.2812 C.ar    1  LIG1        0.0520
     24 C          -5.6608   -5.6465   -0.2735 C.ar    1  LIG1       -0.0189
     25 C          -4.3450   -6.0045   -0.0252 C.ar    1  LIG1        0.0657
     26 N          -3.6254   -4.8318    0.1096 N.ar    1  LIG1       -0.3509
     27 H          -2.6671   -4.8223    0.4335 H       1  LIG1        0.1660
     28 C          -6.8982   -3.4479   -0.5274 C.1     1  LIG1       -0.0675
     29 C          -7.9015   -2.8018   -0.7352 C.1     1  LIG1       -0.1138
     30 H          -8.7800   -2.2301   -0.9248 H       1  LIG1        0.1232
     31 H          -6.4949   -6.3111   -0.4471 H       1  LIG1        0.0652
     32 C          -3.7054   -7.2907    0.0976 C.ar    1  LIG1        0.0785
     33 C          -2.3699   -7.6345    0.3679 C.ar    1  LIG1        0.0513
     34 C          -2.2923   -9.0658    0.3747 C.ar    1  LIG1       -0.0283
     35 C          -3.5498   -9.5475    0.1158 C.ar    1  LIG1        0.0034
     36 N          -4.3926   -8.4703   -0.0489 N.ar    1  LIG1       -0.3585
     37 H          -5.3772   -8.5308   -0.2520 H       1  LIG1        0.1654
     38 H          -3.9168  -10.5591    0.0351 H       1  LIG1        0.0807
     39 C          -1.3028   -6.7325    0.6036 C.1     1  LIG1       -0.0675
     40 C          -0.3922   -5.9552    0.8077 C.1     1  LIG1       -0.1138
     41 H           0.4333   -5.3149    1.0178 H       1  LIG1        0.1232
     42 H          -1.4018   -9.6490    0.5545 H       1  LIG1        0.0645
@<TRIPOS>BOND
     1     6     5    1
     2     7     1    1
     3     1     5   ar
     4     1     2   ar
     5     5     4   ar
     6    30    29    1
     7    29    28    3
     8    28    23    1
     9    31    24    1
    10    17    16    1
    11    23    24   ar
    12    23    22   ar
    13    24    25   ar
    14    37    36    1
    15     4    12    1
    16     4     3   ar
    17     2     8    1
    18     2     3   ar
    19    16    12   ar
    20    16    15   ar
    21    36    32   ar
    22    36    35   ar
    23    22    15    1
    24    22    26   ar
    25    12    13   ar
    26    25    32    1
    27    25    26   ar
    28    38    35    1
    29    15    14   ar
    30    32    33   ar
    31     8     9    3
    32    26    27    1
    33    35    34   ar
    34    13    14   ar
    35    13    18    1
    36     3    11    1
    37    14    21    1
    38    33    34   ar
    39    33    39    1
    40     9    10    1
    41    34    42    1
    42    18    19    3
    43    39    40    3
    44    19    20    1
    45    40    41    1
