@<TRIPOS>MOLECULE
mol_data/opt/b3lyp/geoms/mol2/13ea13af4ef-4ff-.out
 46 49 0 0 0
SMALL
GASTEIGER

@<TRIPOS>ATOM
      1 C           1.2761   -0.1723   -0.2964 C.ar    1  LIG1        0.0177
      2 C           0.9155    1.0801    0.1838 C.ar    1  LIG1        0.0426
      3 C          -0.5137    1.0980    0.2689 C.ar    1  LIG1       -0.0196
      4 C          -0.9804   -0.1303   -0.1597 C.ar    1  LIG1        0.0642
      5 N           0.1302   -0.8963   -0.4845 N.ar    1  LIG1       -0.3584
      6 H           0.0798   -1.7817   -0.9630 H       1  LIG1        0.1654
      7 H           2.2517   -0.5812   -0.5090 H       1  LIG1        0.0819
      8 C           1.8067    2.1274    0.5374 C.1     1  LIG1       -0.0682
      9 C           2.5587    3.0264    0.8402 C.1     1  LIG1       -0.1139
     10 H           3.2207    3.8171    1.1060 H       1  LIG1        0.1232
     11 H          -1.1192    1.9114    0.6394 H       1  LIG1        0.0651
     12 C          -2.3240   -0.6532   -0.2817 C.ar    1  LIG1        0.0669
     13 C          -3.5193   -0.0125   -0.5442 C.ar    1  LIG1        0.0072
     14 C          -4.5504   -0.9875   -0.4965 C.ar    1  LIG1        0.1427
     15 C          -3.9732   -2.2323   -0.2157 C.ar    1  LIG1        0.0902
     16 N          -2.5898   -2.0033   -0.1352 N.ar    1  LIG1       -0.3501
     17 H          -2.0084   -2.5883    0.4490 H       1  LIG1        0.1661
     18 H          -3.6503    1.0282   -0.8007 H       1  LIG1        0.0676
     19 O          -5.8298   -0.6810   -0.8104 O.3     1  LIG1       -0.5046
     20 H          -6.4317   -1.3049   -0.3669 H       1  LIG1        0.2922
     21 C          -5.7677   -3.9476    0.3354 C.ar    1  LIG1        0.0347
     22 C          -6.1710   -5.2940    0.3291 C.ar    1  LIG1       -0.0344
     23 C          -4.4828   -3.5937   -0.1632 C.ar    1  LIG1        0.0207
     24 C          -5.3597   -6.3383   -0.1162 C.ar    1  LIG1        0.0283
     25 H          -7.1590   -5.5294    0.7039 H       1  LIG1        0.0637
     26 C          -3.6657   -4.6477   -0.6128 C.ar    1  LIG1       -0.0092
     27 C          -4.0770   -5.9779   -0.5911 C.ar    1  LIG1        0.1253
     28 H          -2.6966   -4.4079   -1.0441 H       1  LIG1        0.0661
     29 C          -6.6527   -2.9875    0.9095 C.1     1  LIG1       -0.0690
     30 C          -7.4251   -2.1873    1.3957 C.1     1  LIG1       -0.1139
     31 H          -8.0801   -1.4915    1.8675 H       1  LIG1        0.1232
     32 O          -3.2592   -6.9685   -1.0584 O.3     1  LIG1       -0.5061
     33 H          -2.4611   -6.5652   -1.4251 H       1  LIG1        0.2922
     34 C          -7.1148   -8.1152   -0.5139 C.ar    1  LIG1        0.1249
     35 C          -7.5307   -9.4474   -0.4390 C.ar    1  LIG1       -0.0161
     36 C          -5.8264   -7.7493   -0.0727 C.ar    1  LIG1        0.0305
     37 C          -6.6937  -10.4368    0.0665 C.ar    1  LIG1       -0.0167
     38 H          -8.5269   -9.7141   -0.7863 H       1  LIG1        0.0655
     39 C          -4.9969   -8.7624    0.4346 C.ar    1  LIG1       -0.0089
     40 C          -5.4151  -10.0903    0.5064 C.ar    1  LIG1        0.1177
     41 H          -4.0000   -8.4967    0.7729 H       1  LIG1        0.0661
     42 H          -7.0166  -11.4705    0.1238 H       1  LIG1        0.0655
     43 O          -7.9359   -7.1382   -1.0225 O.3     1  LIG1       -0.5062
     44 H          -8.7554   -7.5505   -1.3241 H       1  LIG1        0.2922
     45 O          -4.6193  -11.0917    1.0023 O.3     1  LIG1       -0.5067
     46 H          -3.7649  -10.7160    1.2504 H       1  LIG1        0.2921
@<TRIPOS>BOND
     1    33    32    1
     2    44    43    1
     3    32    27    1
     4    28    26    1
     5    43    34    1
     6     6     5    1
     7    19    14    1
     8    19    20    1
     9    18    13    1
    10    38    35    1
    11    26    27   ar
    12    26    23   ar
    13    27    24   ar
    14    13    14   ar
    15    13    12   ar
    16    34    35   ar
    17    34    36   ar
    18     7     1    1
    19    14    15   ar
    20     5     1   ar
    21     5     4   ar
    22    35    37   ar
    23     1     2   ar
    24    12     4    1
    25    12    16   ar
    26    15    23    1
    27    15    16   ar
    28    23    21   ar
    29     4     3   ar
    30    16    17    1
    31    24    36    1
    32    24    22   ar
    33    36    39   ar
    34    37    42    1
    35    37    40   ar
    36     2     3   ar
    37     2     8    1
    38     3    11    1
    39    22    21   ar
    40    22    25    1
    41    21    29    1
    42    39    40   ar
    43    39    41    1
    44    40    45    1
    45     8     9    3
    46     9    10    1
    47    29    30    3
    48    45    46    1
    49    30    31    1
