@<TRIPOS>MOLECULE
mol_data/opt/b3lyp/geoms/mol2/13ea13ea-4ea13ea.out
 44 47 0 0 0
SMALL
GASTEIGER

@<TRIPOS>ATOM
      1 C           1.4241   -0.4980   -0.0531 C.ar    1  LIG1        0.0177
      2 C           1.0812    0.8507   -0.0165 C.ar    1  LIG1        0.0426
      3 C          -0.3455    0.9117   -0.0048 C.ar    1  LIG1       -0.0195
      4 C          -0.8257   -0.3899   -0.0341 C.ar    1  LIG1        0.0653
      5 N           0.2740   -1.2274   -0.0633 N.ar    1  LIG1       -0.3584
      6 H           0.2038   -2.2359   -0.0887 H       1  LIG1        0.1654
      7 H           2.3962   -0.9655   -0.0717 H       1  LIG1        0.0819
      8 C           1.9843    1.9456    0.0049 C.1     1  LIG1       -0.0682
      9 C           2.7469    2.8857    0.0237 C.1     1  LIG1       -0.1139
     10 H           3.4206    3.7102    0.0393 H       1  LIG1        0.1232
     11 H          -0.9332    1.8179    0.0205 H       1  LIG1        0.0651
     12 C          -2.1729   -0.9042   -0.0369 C.ar    1  LIG1        0.0789
     13 C          -2.6609   -2.2252   -0.0703 C.ar    1  LIG1        0.0519
     14 C          -4.0799   -2.1462   -0.0532 C.ar    1  LIG1       -0.0203
     15 C          -4.4425   -0.8052   -0.0110 C.ar    1  LIG1        0.0493
     16 N          -3.2624   -0.0821   -0.0024 N.ar    1  LIG1       -0.3520
     17 H          -3.2282    0.9264    0.0514 H       1  LIG1        0.1660
     18 C          -1.8822   -3.4089   -0.1084 C.1     1  LIG1       -0.0675
     19 C          -1.2101   -4.4188   -0.1408 C.1     1  LIG1       -0.1138
     20 H          -0.6493   -5.3242   -0.1697 H       1  LIG1        0.1232
     21 H          -4.7447   -2.9961   -0.0552 H       1  LIG1        0.0651
     22 C          -6.0467    1.1728    0.2494 C.ar    1  LIG1        0.0344
     23 C          -7.3713    1.6428    0.2626 C.ar    1  LIG1       -0.0365
     24 C          -5.7726   -0.2057    0.0114 C.ar    1  LIG1        0.0137
     25 C          -8.4637    0.7976    0.0406 C.ar    1  LIG1        0.0007
     26 H          -7.5393    2.6944    0.4580 H       1  LIG1        0.0636
     27 C          -6.8863   -1.0379   -0.2222 C.ar    1  LIG1       -0.0508
     28 C          -8.1852   -0.5622   -0.2103 C.ar    1  LIG1       -0.0519
     29 H          -6.7188   -2.0852   -0.4462 H       1  LIG1        0.0625
     30 C          -5.0321    2.1496    0.5097 C.1     1  LIG1       -0.0690
     31 C          -4.2184    3.0214    0.7294 C.1     1  LIG1       -0.1139
     32 H          -3.5173    3.7952    0.9440 H       1  LIG1        0.1232
     33 H          -8.9932   -1.2505   -0.4423 H       1  LIG1        0.0624
     34 C          -9.8348    1.2984    0.0749 C.ar    1  LIG1        0.0621
     35 C         -10.3809    2.5688   -0.1663 C.ar    1  LIG1        0.0499
     36 C         -11.7995    2.4617   -0.0032 C.ar    1  LIG1       -0.0284
     37 C         -12.0820    1.1604    0.3299 C.ar    1  LIG1        0.0034
     38 N         -10.8960    0.4674    0.3619 N.ar    1  LIG1       -0.3597
     39 H         -10.7939   -0.4840    0.6765 H       1  LIG1        0.1654
     40 H         -13.0200    0.6734    0.5491 H       1  LIG1        0.0807
     41 C          -9.6881    3.7460   -0.5482 C.1     1  LIG1       -0.0675
     42 C          -9.1283    4.7705   -0.8720 C.1     1  LIG1       -0.1138
     43 H          -8.6317    5.6653   -1.1670 H       1  LIG1        0.1232
     44 H         -12.5098    3.2648   -0.1306 H       1  LIG1        0.0645
@<TRIPOS>BOND
     1    43    42    1
     2    42    41    3
     3    41    35    1
     4    29    27    1
     5    33    28    1
     6    27    28   ar
     7    27    24   ar
     8    28    25   ar
     9    20    19    1
    10    35    36   ar
    11    35    34   ar
    12    19    18    3
    13    44    36    1
    14    18    13    1
    15     6     5    1
    16     7     1    1
    17    13    14   ar
    18    13    12   ar
    19     5     1   ar
    20     5     4   ar
    21    21    14    1
    22    14    15   ar
    23     1     2   ar
    24    12     4    1
    25    12    16   ar
    26     4     3   ar
    27     2     3   ar
    28     2     8    1
    29    15    16   ar
    30    15    24    1
    31     3    11    1
    32    36    37   ar
    33    16    17    1
    34     8     9    3
    35    24    22   ar
    36     9    10    1
    37    25    34    1
    38    25    23   ar
    39    34    38   ar
    40    22    23   ar
    41    22    30    1
    42    23    26    1
    43    37    38   ar
    44    37    40    1
    45    38    39    1
    46    30    31    3
    47    31    32    1
