@<TRIPOS>MOLECULE
mol_data/opt/b3lyp/geoms/mol2/13ea13ea13ea-13ea.out
 42 45 0 0 0
SMALL
GASTEIGER

@<TRIPOS>ATOM
      1 C           1.3054   -0.2269   -0.0014 C.ar    1  LIG1        0.0177
      2 C           0.8960    1.1004   -0.0009 C.ar    1  LIG1        0.0426
      3 C          -0.5325    1.0959   -0.0000 C.ar    1  LIG1       -0.0195
      4 C          -0.9574   -0.2237   -0.0001 C.ar    1  LIG1        0.0653
      5 N           0.1865   -1.0123   -0.0009 N.ar    1  LIG1       -0.3584
      6 H           0.2105   -2.0188   -0.0015 H       1  LIG1        0.1654
      7 H           2.2976   -0.6504   -0.0021 H       1  LIG1        0.0819
      8 C           1.7482    2.2363   -0.0011 C.1     1  LIG1       -0.0682
      9 C           2.4687    3.2090   -0.0013 C.1     1  LIG1       -0.1139
     10 H           3.1021    4.0650   -0.0010 H       1  LIG1        0.1232
     11 H          -1.1752    1.9612    0.0006 H       1  LIG1        0.0651
     12 C          -2.2879   -0.7831    0.0006 C.ar    1  LIG1        0.0790
     13 C          -3.5465   -0.1518    0.0008 C.ar    1  LIG1        0.0520
     14 C          -4.5347   -1.1772    0.0015 C.ar    1  LIG1       -0.0189
     15 C          -3.8835   -2.4005    0.0017 C.ar    1  LIG1        0.0658
     16 N          -2.5264   -2.1350    0.0012 N.ar    1  LIG1       -0.3509
     17 H          -1.8388   -2.8751    0.0014 H       1  LIG1        0.1660
     18 C          -3.8046    1.2413    0.0004 C.1     1  LIG1       -0.0675
     19 C          -4.0566    2.4264    0.0001 C.1     1  LIG1       -0.1138
     20 H          -4.2746    3.4689   -0.0004 H       1  LIG1        0.1232
     21 H          -5.6021   -1.0107    0.0019 H       1  LIG1        0.0652
     22 C          -4.3830   -3.7499    0.0024 C.ar    1  LIG1        0.0790
     23 C          -3.7054   -4.9848    0.0026 C.ar    1  LIG1        0.0520
     24 C          -4.6964   -6.0106    0.0033 C.ar    1  LIG1       -0.0189
     25 C          -5.9399   -5.3990    0.0035 C.ar    1  LIG1        0.0657
     26 N          -5.7217   -4.0343    0.0029 N.ar    1  LIG1       -0.3509
     27 H          -6.4703   -3.3538    0.0029 H       1  LIG1        0.1660
     28 C          -2.3018   -5.1761    0.0022 C.1     1  LIG1       -0.0675
     29 C          -1.0979   -5.3371    0.0020 C.1     1  LIG1       -0.1138
     30 H          -0.0515   -5.5381    0.0024 H       1  LIG1        0.1232
     31 H          -4.4911   -7.0712    0.0037 H       1  LIG1        0.0652
     32 C          -7.2727   -5.9501    0.0041 C.ar    1  LIG1        0.0785
     33 C          -8.5309   -5.3262    0.0046 C.ar    1  LIG1        0.0513
     34 C          -9.5194   -6.3634    0.0052 C.ar    1  LIG1       -0.0283
     35 C          -8.8571   -7.5644    0.0049 C.ar    1  LIG1        0.0034
     36 N          -7.5049   -7.3043    0.0043 N.ar    1  LIG1       -0.3585
     37 H          -6.7811   -8.0044    0.0039 H       1  LIG1        0.1654
     38 H          -9.2293   -8.5773    0.0051 H       1  LIG1        0.0807
     39 C          -8.7749   -3.9302    0.0046 C.1     1  LIG1       -0.0675
     40 C          -8.9806   -2.7340    0.0046 C.1     1  LIG1       -0.1138
     41 H          -9.1960   -1.6905    0.0046 H       1  LIG1        0.1232
     42 H         -10.5888   -6.2156    0.0057 H       1  LIG1        0.0645
@<TRIPOS>BOND
     1     7     1    1
     2     6     5    1
     3     1     5   ar
     4     1     2   ar
     5     9     8    3
     6     9    10    1
     7     8     2    1
     8     5     4   ar
     9     2     3   ar
    10    20    19    1
    11     4     3   ar
    12     4    12    1
    13     3    11    1
    14    19    18    3
    15    18    13    1
    16    12    13   ar
    17    12    16   ar
    18    13    14   ar
    19    16    17    1
    20    16    15   ar
    21    14    15   ar
    22    14    21    1
    23    15    22    1
    24    29    28    3
    25    29    30    1
    26    28    23    1
    27    22    23   ar
    28    22    26   ar
    29    23    24   ar
    30    26    27    1
    31    26    25   ar
    32    24    25   ar
    33    24    31    1
    34    25    32    1
    35    37    36    1
    36    32    36   ar
    37    32    33   ar
    38    36    35   ar
    39    41    40    1
    40    33    39    1
    41    33    34   ar
    42    39    40    3
    43    35    38    1
    44    35    34   ar
    45    34    42    1
