@<TRIPOS>MOLECULE
mol_data/opt/b3lyp/geoms/mol2/13ea13ea-13ea-13ea-.out
 42 45 0 0 0
SMALL
GASTEIGER

@<TRIPOS>ATOM
      1 C           1.2820   -0.3619   -0.3983 C.ar    1  LIG1        0.0177
      2 C           0.8605    0.9436   -0.6319 C.ar    1  LIG1        0.0426
      3 C          -0.5576    0.9539   -0.4606 C.ar    1  LIG1       -0.0195
      4 C          -0.9549   -0.3352   -0.1336 C.ar    1  LIG1        0.0653
      5 N           0.1857   -1.1152   -0.1036 N.ar    1  LIG1       -0.3584
      6 H           0.1786   -2.1001    0.1257 H       1  LIG1        0.1654
      7 H           2.2741   -0.7848   -0.4247 H       1  LIG1        0.0819
      8 C           1.6886    2.0457   -0.9700 C.1     1  LIG1       -0.0682
      9 C           2.3865    2.9918   -1.2590 C.1     1  LIG1       -0.1139
     10 H           3.0039    3.8211   -1.5143 H       1  LIG1        0.1232
     11 H          -1.1910    1.8239   -0.5578 H       1  LIG1        0.0651
     12 C          -2.2592   -0.8857    0.1377 C.ar    1  LIG1        0.0790
     13 C          -2.6597   -2.1660    0.5502 C.ar    1  LIG1        0.0520
     14 C          -4.0855   -2.1635    0.6368 C.ar    1  LIG1       -0.0189
     15 C          -4.5305   -0.9050    0.2836 C.ar    1  LIG1        0.0658
     16 N          -3.4048   -0.1352    0.0037 N.ar    1  LIG1       -0.3509
     17 H          -3.4296    0.7309   -0.5122 H       1  LIG1        0.1660
     18 C          -1.8007   -3.2543    0.8463 C.1     1  LIG1       -0.0675
     19 C          -1.0603   -4.1840    1.0904 C.1     1  LIG1       -0.1138
     20 H          -0.4393   -5.0176    1.3240 H       1  LIG1        0.1232
     21 H          -4.7082   -2.9870    0.9488 H       1  LIG1        0.0652
     22 C          -5.8629   -0.3550    0.2188 C.ar    1  LIG1        0.0790
     23 C          -7.0980   -0.9652   -0.0446 C.ar    1  LIG1        0.0520
     24 C          -8.0934    0.0560   -0.0134 C.ar    1  LIG1       -0.0189
     25 C          -7.4700    1.2580    0.2658 C.ar    1  LIG1        0.0657
     26 N          -6.1153    0.9877    0.4036 N.ar    1  LIG1       -0.3509
     27 H          -5.4099    1.6774    0.6072 H       1  LIG1        0.1660
     28 C          -7.3131   -2.3422   -0.3044 C.1     1  LIG1       -0.0675
     29 C          -7.5139   -3.5165   -0.5223 C.1     1  LIG1       -0.1138
     30 H          -7.6910   -4.5472   -0.7238 H       1  LIG1        0.1232
     31 H          -9.1518   -0.0796   -0.1715 H       1  LIG1        0.0652
     32 C          -8.0058    2.5900    0.4344 C.ar    1  LIG1        0.0785
     33 C          -9.1125    3.2129   -0.1533 C.ar    1  LIG1        0.0513
     34 C          -9.1768    4.5452    0.3723 C.ar    1  LIG1       -0.0283
     35 C          -8.1326    4.7001    1.2473 C.ar    1  LIG1        0.0034
     36 N          -7.4163    3.5213    1.2673 N.ar    1  LIG1       -0.3585
     37 H          -6.7237    3.2936    1.9633 H       1  LIG1        0.1654
     38 H          -7.8343    5.5431    1.8518 H       1  LIG1        0.0807
     39 C          -9.9856    2.6437   -1.1141 C.1     1  LIG1       -0.0675
     40 C         -10.7455    2.1723   -1.9310 C.1     1  LIG1       -0.1138
     41 H         -11.4066    1.7569   -2.6553 H       1  LIG1        0.1232
     42 H          -9.9121    5.2905    0.1081 H       1  LIG1        0.0645
@<TRIPOS>BOND
     1    41    40    1
     2    40    39    3
     3    10     9    1
     4     9     8    3
     5    39    33    1
     6     8     2    1
     7    30    29    1
     8     2     3   ar
     9     2     1   ar
    10    11     3    1
    11    29    28    3
    12    17    16    1
    13     3     4   ar
    14     7     1    1
    15     1     5   ar
    16    28    23    1
    17    31    24    1
    18    33    34   ar
    19    33    32   ar
    20     4     5   ar
    21     4    12    1
    22     5     6    1
    23    23    24   ar
    24    23    22   ar
    25    24    25   ar
    26    16    12   ar
    27    16    15   ar
    28    42    34    1
    29    12    13   ar
    30    22    15    1
    31    22    26   ar
    32    25    26   ar
    33    25    32    1
    34    15    14   ar
    35    34    35   ar
    36    26    27    1
    37    32    36   ar
    38    13    14   ar
    39    13    18    1
    40    14    21    1
    41    18    19    3
    42    19    20    1
    43    35    36   ar
    44    35    38    1
    45    36    37    1
