@<TRIPOS>MOLECULE
mol_data/opt/b3lyp/geoms/mol2/13ea13ea13ea-13ea-.out
 42 45 0 0 0
SMALL
GASTEIGER

@<TRIPOS>ATOM
      1 C           1.2519   -0.2048   -0.4466 C.ar    1  LIG1        0.0177
      2 C           0.8995    1.0766   -0.0421 C.ar    1  LIG1        0.0426
      3 C          -0.5174    1.0782    0.1529 C.ar    1  LIG1       -0.0195
      4 C          -0.9865   -0.1914   -0.1337 C.ar    1  LIG1        0.0653
      5 N           0.1142   -0.9630   -0.4845 N.ar    1  LIG1       -0.3584
      6 H           0.0605   -1.8869   -0.8839 H       1  LIG1        0.1654
      7 H           2.2168   -0.6119   -0.7059 H       1  LIG1        0.0819
      8 C           1.7904    2.1657    0.1499 C.1     1  LIG1       -0.0682
      9 C           2.5430    3.0992    0.3149 C.1     1  LIG1       -0.1139
     10 H           3.2054    3.9204    0.4597 H       1  LIG1        0.1232
     11 H          -1.1177    1.9105    0.4849 H       1  LIG1        0.0651
     12 C          -2.3189   -0.7459   -0.0918 C.ar    1  LIG1        0.0790
     13 C          -3.5756   -0.1292   -0.2060 C.ar    1  LIG1        0.0520
     14 C          -4.5579   -1.1581   -0.1154 C.ar    1  LIG1       -0.0189
     15 C          -3.9000   -2.3682    0.0463 C.ar    1  LIG1        0.0658
     16 N          -2.5441   -2.0937    0.0489 N.ar    1  LIG1       -0.3509
     17 H          -1.8510   -2.7876    0.2976 H       1  LIG1        0.1660
     18 C          -3.8253    1.2521   -0.3999 C.1     1  LIG1       -0.0675
     19 C          -4.0597    2.4296   -0.5610 C.1     1  LIG1       -0.1138
     20 H          -4.2595    3.4650   -0.7103 H       1  LIG1        0.1232
     21 H          -5.6257   -1.0009   -0.1657 H       1  LIG1        0.0652
     22 C          -4.3966   -3.7109    0.1918 C.ar    1  LIG1        0.0790
     23 C          -3.7311   -4.9224    0.4429 C.ar    1  LIG1        0.0520
     24 C          -4.7156   -5.9571    0.4658 C.ar    1  LIG1       -0.0189
     25 C          -5.9465   -5.3767    0.2331 C.ar    1  LIG1        0.0657
     26 N          -5.7355   -4.0096    0.0885 N.ar    1  LIG1       -0.3509
     27 H          -6.4124   -3.3744   -0.3048 H       1  LIG1        0.1660
     28 C          -2.3396   -5.0807    0.6618 C.1     1  LIG1       -0.0675
     29 C          -1.1463   -5.2102    0.8432 C.1     1  LIG1       -0.1138
     30 H          -0.1098   -5.3670    1.0335 H       1  LIG1        0.1232
     31 H          -4.5390   -7.0041    0.6556 H       1  LIG1        0.0652
     32 C          -7.2700   -5.9500    0.1617 C.ar    1  LIG1        0.0785
     33 C          -7.6985   -7.2298   -0.2110 C.ar    1  LIG1        0.0513
     34 C          -9.1279   -7.2433   -0.1061 C.ar    1  LIG1       -0.0283
     35 C          -9.5279   -6.0018    0.3175 C.ar    1  LIG1        0.0034
     36 N          -8.4021   -5.2189    0.4610 N.ar    1  LIG1       -0.3585
     37 H          -8.3861   -4.3252    0.9269 H       1  LIG1        0.1654
     38 H         -10.5108   -5.6072    0.5249 H       1  LIG1        0.0807
     39 C          -6.8755   -8.3004   -0.6412 C.1     1  LIG1       -0.0675
     40 C          -6.1877   -9.2287   -1.0055 C.1     1  LIG1       -0.1138
     41 H          -5.5832  -10.0415   -1.3344 H       1  LIG1        0.1232
     42 H          -9.7673   -8.0827   -0.3354 H       1  LIG1        0.0645
@<TRIPOS>BOND
     1    41    40    1
     2    40    39    3
     3     6     5    1
     4    20    19    1
     5     7     1    1
     6    39    33    1
     7    19    18    3
     8     5     1   ar
     9     5     4   ar
    10     1     2   ar
    11    18    13    1
    12    42    34    1
    13    27    26    1
    14    33    34   ar
    15    33    32   ar
    16    13    14   ar
    17    13    12   ar
    18    21    14    1
    19     4    12    1
    20     4     3   ar
    21    14    15   ar
    22    34    35   ar
    23    12    16   ar
    24     2     8    1
    25     2     3   ar
    26    15    16   ar
    27    15    22    1
    28    16    17    1
    29    26    22   ar
    30    26    25   ar
    31     8     9    3
    32     3    11    1
    33    32    25    1
    34    32    36   ar
    35    22    23   ar
    36    25    24   ar
    37     9    10    1
    38    35    36   ar
    39    35    38    1
    40    23    24   ar
    41    23    28    1
    42    36    37    1
    43    24    31    1
    44    28    29    3
    45    29    30    1
