@<TRIPOS>MOLECULE
mol_data/opt/b3lyp/geoms/mol2/13ed13ed.out
 24 25 0 0 0
SMALL
GASTEIGER

@<TRIPOS>ATOM
      1 C           1.0928   -0.2190   -0.7084 C.ar    1  LIG1        0.0190
      2 C           0.8503    0.9907   -0.0844 C.ar    1  LIG1        0.0600
      3 C          -0.5314    0.9672    0.3354 C.ar    1  LIG1        0.0937
      4 C          -1.0746   -0.2543   -0.0575 C.ar    1  LIG1        0.0829
      5 N          -0.0602   -0.9586   -0.6729 N.ar    1  LIG1       -0.3573
      6 H          -0.2035   -1.8210   -1.1758 H       1  LIG1        0.1655
      7 H           1.9951   -0.5914   -1.1672 H       1  LIG1        0.0820
      8 C           1.7801    2.0404    0.1195 C.1     1  LIG1       -0.0669
      9 C           2.5674    2.9409    0.2977 C.1     1  LIG1       -0.1138
     10 H           3.2531    3.7403    0.4587 H       1  LIG1        0.1232
     11 N          -1.6966    2.8229    1.7009 N.1     1  LIG1       -0.1908
     12 C          -1.1850    1.9828    1.0789 C.1     1  LIG1        0.1026
     13 C          -2.3986   -0.8231    0.1063 C.ar    1  LIG1        0.0810
     14 C          -3.6649   -0.2970   -0.1430 C.ar    1  LIG1        0.0687
     15 C          -4.6124   -1.3403    0.1681 C.ar    1  LIG1        0.0850
     16 C          -3.8967   -2.4482    0.5840 C.ar    1  LIG1        0.0209
     17 N          -2.5712   -2.1321    0.5279 N.ar    1  LIG1       -0.3573
     18 H          -1.8302   -2.7038    0.9040 H       1  LIG1        0.1655
     19 H          -4.2438   -3.4154    0.9123 H       1  LIG1        0.0820
     20 C          -3.9692    0.9885   -0.6482 C.1     1  LIG1       -0.0662
     21 C          -4.2426    2.0827   -1.0842 C.1     1  LIG1       -0.1138
     22 H          -4.4819    3.0561   -1.4455 H       1  LIG1        0.1232
     23 N          -7.1837   -1.2134   -0.0468 N.1     1  LIG1       -0.1908
     24 C          -6.0253   -1.2648    0.0503 C.1     1  LIG1        0.1019
@<TRIPOS>BOND
     1    22    21    1
     2     6     5    1
     3     7     1    1
     4    21    20    3
     5     1     5   ar
     6     1     2   ar
     7     5     4   ar
     8    20    14    1
     9    14    13   ar
    10    14    15   ar
    11     2     8    1
    12     2     3   ar
    13     4    13    1
    14     4     3   ar
    15    23    24    3
    16    24    15    1
    17    13    17   ar
    18     8     9    3
    19    15    16   ar
    20     9    10    1
    21     3    12    1
    22    17    16   ar
    23    17    18    1
    24    16    19    1
    25    12    11    3
