@<TRIPOS>MOLECULE
mol_data/opt/b3lyp/geoms/mol2/13ed13ed-.out
 24 25 0 0 0
SMALL
GASTEIGER

@<TRIPOS>ATOM
      1 C           1.1989   -0.3013   -0.0002 C.ar    1  LIG1        0.0190
      2 C           0.8248    1.0314   -0.0001 C.ar    1  LIG1        0.0600
      3 C          -0.6162    1.0424    0.0003 C.ar    1  LIG1        0.0937
      4 C          -1.0563   -0.2881    0.0003 C.ar    1  LIG1        0.0829
      5 N           0.0685   -1.0714   -0.0000 N.ar    1  LIG1       -0.3573
      6 H           0.0346   -2.0835   -0.0001 H       1  LIG1        0.1655
      7 H           2.1842   -0.7398   -0.0005 H       1  LIG1        0.0820
      8 C           1.6811    2.1595   -0.0003 C.1     1  LIG1       -0.0669
      9 C           2.4027    3.1302   -0.0004 C.1     1  LIG1       -0.1138
     10 H           3.0343    3.9883   -0.0005 H       1  LIG1        0.1232
     11 N          -2.2526    3.0347    0.0008 N.1     1  LIG1       -0.1908
     12 C          -1.4719    2.1676    0.0006 C.1     1  LIG1        0.1026
     13 C          -2.3865   -0.8462    0.0006 C.ar    1  LIG1        0.0810
     14 C          -2.8066   -2.1818    0.0005 C.ar    1  LIG1        0.0687
     15 C          -4.2471   -2.1628    0.0010 C.ar    1  LIG1        0.0850
     16 C          -4.6407   -0.8359    0.0012 C.ar    1  LIG1        0.0209
     17 N          -3.5207   -0.0626    0.0011 N.ar    1  LIG1       -0.3573
     18 H          -3.5122    0.9502    0.0012 H       1  LIG1        0.1655
     19 H          -5.6302   -0.4066    0.0015 H       1  LIG1        0.0820
     20 C          -1.9810   -3.3309    0.0001 C.1     1  LIG1       -0.0662
     21 C          -1.2703   -4.3132   -0.0001 C.1     1  LIG1       -0.1138
     22 H          -0.6843   -5.2038   -0.0004 H       1  LIG1        0.1232
     23 N          -5.8078   -4.2205    0.0012 N.1     1  LIG1       -0.1908
     24 C          -5.1059   -3.2922    0.0011 C.1     1  LIG1        0.1019
@<TRIPOS>BOND
     1    10     9    1
     2     7     1    1
     3     9     8    3
     4    22    21    1
     5     8     2    1
     6     1     2   ar
     7     1     5   ar
     8     6     5    1
     9    21    20    3
    10     2     3   ar
    11     5     4   ar
    12    20    14    1
    13     3     4   ar
    14     3    12    1
    15     4    13    1
    16    14    13   ar
    17    14    15   ar
    18    12    11    3
    19    13    17   ar
    20    15    24    1
    21    15    16   ar
    22    17    18    1
    23    17    16   ar
    24    24    23    3
    25    16    19    1
