@<TRIPOS>MOLECULE
mol_data/opt/b3lyp/geoms/mol2/13ed13ed-13ed.out
 35 37 0 0 0
SMALL
GASTEIGER

@<TRIPOS>ATOM
      1 C           1.2803   -0.3764   -0.0007 C.ar    1  LIG1        0.0190
      2 C           0.9568    0.9687   -0.0003 C.ar    1  LIG1        0.0600
      3 C          -0.4834    1.0367    0.0003 C.ar    1  LIG1        0.0937
      4 C          -0.9766   -0.2762    0.0002 C.ar    1  LIG1        0.0829
      5 N           0.1230   -1.1000   -0.0004 N.ar    1  LIG1       -0.3573
      6 H           0.0561   -2.1105   -0.0006 H       1  LIG1        0.1655
      7 H           2.2480   -0.8527   -0.0013 H       1  LIG1        0.0820
      8 C           1.8556    2.0630   -0.0005 C.1     1  LIG1       -0.0669
      9 C           2.6163    3.0032   -0.0006 C.1     1  LIG1       -0.1138
     10 H           3.2811    3.8359   -0.0012 H       1  LIG1        0.1232
     11 N          -1.8577    3.2183    0.0014 N.1     1  LIG1       -0.1908
     12 C          -1.2405    2.2298    0.0009 C.1     1  LIG1        0.1026
     13 C          -2.3133   -0.8214    0.0007 C.ar    1  LIG1        0.0815
     14 C          -2.7114   -2.1643    0.0005 C.ar    1  LIG1        0.0694
     15 C          -4.1450   -2.1721    0.0012 C.ar    1  LIG1        0.0944
     16 C          -4.5847   -0.8416    0.0016 C.ar    1  LIG1        0.0834
     17 N          -3.4605   -0.0543    0.0013 N.ar    1  LIG1       -0.3498
     18 H          -3.4947    0.9612    0.0016 H       1  LIG1        0.1661
     19 C          -1.8874   -3.3141   -0.0001 C.1     1  LIG1       -0.0662
     20 C          -1.1938   -4.3086   -0.0005 C.1     1  LIG1       -0.1138
     21 H          -0.6142   -5.2036   -0.0002 H       1  LIG1        0.1232
     22 N          -5.7312   -4.2049    0.0014 N.1     1  LIG1       -0.1908
     23 C          -4.9812   -3.3112    0.0013 C.1     1  LIG1        0.1026
     24 C          -5.9275   -0.3157    0.0023 C.ar    1  LIG1        0.0810
     25 C          -6.3921    1.0052    0.0027 C.ar    1  LIG1        0.0687
     26 C          -7.8289    0.9386    0.0034 C.ar    1  LIG1        0.0850
     27 C          -8.1800   -0.4015    0.0033 C.ar    1  LIG1        0.0209
     28 N          -7.0388   -1.1381    0.0027 N.ar    1  LIG1       -0.3573
     29 H          -7.0046   -2.1497    0.0025 H       1  LIG1        0.1655
     30 H          -9.1557   -0.8618    0.0036 H       1  LIG1        0.0820
     31 C          -5.6010    2.1758    0.0026 C.1     1  LIG1       -0.0662
     32 C          -4.9250    3.1809    0.0024 C.1     1  LIG1       -0.1138
     33 H          -4.2865    4.0355    0.0021 H       1  LIG1        0.1232
     34 N          -9.4688    2.9339    0.0044 N.1     1  LIG1       -0.1908
     35 C          -8.7277    2.0368    0.0039 C.1     1  LIG1        0.1019
@<TRIPOS>BOND
     1     7     1    1
     2    10     9    1
     3     1     5   ar
     4     1     2   ar
     5     9     8    3
     6     6     5    1
     7    20    21    1
     8    20    19    3
     9     8     2    1
    10     5     4   ar
    11     2     3   ar
    12    19    14    1
    13     4     3   ar
    14     4    13    1
    15     3    12    1
    16    14    13   ar
    17    14    15   ar
    18    13    17   ar
    19    12    11    3
    20    15    23    1
    21    15    16   ar
    22    23    22    3
    23    17    18    1
    24    17    16   ar
    25    16    24    1
    26    33    32    1
    27    24    28   ar
    28    24    25   ar
    29    32    31    3
    30    29    28    1
    31    31    25    1
    32    28    27   ar
    33    25    26   ar
    34    27    26   ar
    35    27    30    1
    36    26    35    1
    37    35    34    3
