@<TRIPOS>MOLECULE
mol_data/opt/b3lyp/geoms/mol2/13ed12fd4ll4fi-.out
 55 58 0 0 0
SMALL
GASTEIGER

@<TRIPOS>ATOM
      1 C           1.2615    0.0490   -0.2595 C.ar    1  LIG1        0.0177
      2 C           0.8569    1.2833    0.2321 C.ar    1  LIG1        0.0426
      3 C          -0.5664    1.2302    0.3747 C.ar    1  LIG1       -0.0194
      4 C          -0.9873   -0.0242   -0.0277 C.ar    1  LIG1        0.0678
      5 N           0.1470   -0.7332   -0.3980 N.ar    1  LIG1       -0.3583
      6 H           0.1212   -1.6207   -0.8745 H       1  LIG1        0.1654
      7 H           2.2469   -0.3110   -0.5108 H       1  LIG1        0.0819
      8 C           1.7067    2.3776    0.5428 C.1     1  LIG1       -0.0682
      9 C           2.4231    3.3161    0.8105 C.1     1  LIG1       -0.1139
     10 H           3.0541    4.1415    1.0438 H       1  LIG1        0.1232
     11 H          -1.1975    2.0226    0.7453 H       1  LIG1        0.0651
     12 C          -2.2986   -0.6247   -0.0930 C.ar    1  LIG1        0.1074
     13 C          -3.5538   -0.0565   -0.2304 C.ar    1  LIG1        0.1678
     14 C          -4.5269   -1.1003   -0.2687 C.ar    1  LIG1        0.0932
     15 C          -3.8471   -2.3070   -0.1383 C.ar    1  LIG1        0.0717
     16 N          -2.4762   -2.0032   -0.0956 N.ar    1  LIG1       -0.3486
     17 H          -1.8540   -2.5926    0.4410 H       1  LIG1        0.1661
     18 O          -3.8351    1.2711   -0.4266 O.3     1  LIG1       -0.4911
     19 C          -4.3867    1.9229    0.7254 C.3     1  LIG1        0.0790
     20 H          -4.5920    2.9533    0.4280 H       1  LIG1        0.0660
     21 H          -5.3166    1.4413    1.0495 H       1  LIG1        0.0660
     22 H          -3.6745    1.9181    1.5594 H       1  LIG1        0.0660
     23 N          -5.8930   -0.8676   -0.4466 N.pl3   1  LIG1       -0.3535
     24 H          -6.0542   -0.0179   -0.9775 H       1  LIG1        0.1425
     25 H          -6.3827   -1.6466   -0.8720 H       1  LIG1        0.1425
     26 C          -5.6356   -3.9761    0.3197 C.ar    1  LIG1       -0.0518
     27 C          -6.0860   -5.2910    0.3192 C.ar    1  LIG1       -0.0499
     28 C          -4.3323   -3.6740   -0.1160 C.ar    1  LIG1        0.0037
     29 C          -5.2789   -6.3612   -0.0870 C.ar    1  LIG1        0.0252
     30 H          -7.0912   -5.5014    0.6693 H       1  LIG1        0.0625
     31 C          -3.5040   -4.7406   -0.5267 C.ar    1  LIG1       -0.0102
     32 C          -3.9599   -6.0580   -0.5076 C.ar    1  LIG1        0.1284
     33 H          -2.5160   -4.5149   -0.9080 H       1  LIG1        0.0661
     34 H          -6.2767   -3.1897    0.7021 H       1  LIG1        0.0624
     35 O          -3.1992   -7.1176   -0.9155 O.3     1  LIG1       -0.4945
     36 C          -1.8973   -6.8720   -1.4208 C.3     1  LIG1        0.0788
     37 H          -1.4949   -7.8479   -1.6958 H       1  LIG1        0.0660
     38 H          -1.9231   -6.2281   -2.3089 H       1  LIG1        0.0660
     39 H          -1.2467   -6.4148   -0.6639 H       1  LIG1        0.0660
     40 C          -7.0514   -8.0864   -0.6519 C.ar    1  LIG1        0.0598
     41 C          -7.5398   -9.3987   -0.5635 C.ar    1  LIG1       -0.0403
     42 C          -5.8011   -7.7521   -0.0622 C.ar    1  LIG1        0.0064
     43 C          -6.8222  -10.3962    0.0860 C.ar    1  LIG1       -0.0187
     44 H          -8.4942   -9.6352   -1.0221 H       1  LIG1        0.0632
     45 C          -5.0910   -8.7667    0.5790 C.ar    1  LIG1       -0.0109
     46 C          -5.5836  -10.0755    0.6580 C.ar    1  LIG1        0.1207
     47 H          -4.1330   -8.5545    1.0368 H       1  LIG1        0.0660
     48 H          -7.2261  -11.3995    0.1354 H       1  LIG1        0.0654
     49 N          -8.4988   -6.3917   -1.9839 N.1     1  LIG1       -0.1909
     50 C          -7.8311   -7.1298   -1.3795 C.1     1  LIG1        0.0998
     51 O          -4.7883  -10.9597    1.3184 O.3     1  LIG1       -0.4951
     52 C          -5.2335  -12.3030    1.4508 C.3     1  LIG1        0.0788
     53 H          -4.4542  -12.8227    2.0092 H       1  LIG1        0.0660
     54 H          -6.1773  -12.3622    2.0068 H       1  LIG1        0.0660
     55 H          -5.3597  -12.7842    0.4731 H       1  LIG1        0.0660
@<TRIPOS>BOND
     1    38    36    1
     2    49    50    3
     3    37    36    1
     4    36    35    1
     5    36    39    1
     6    50    40    1
     7    44    41    1
     8    24    23    1
     9    35    32    1
    10    33    31    1
    11     6     5    1
    12    25    23    1
    13    40    41   ar
    14    40    42   ar
    15    41    43   ar
    16    31    32   ar
    17    31    28   ar
    18     7     1    1
    19    32    29   ar
    20    23    14    1
    21    18    13    1
    22    18    19    1
    23     5     1   ar
    24     5     4   ar
    25    14    13   ar
    26    14    15   ar
    27     1     2   ar
    28    13    12   ar
    29    15    28    1
    30    15    16   ar
    31    28    26   ar
    32    16    12   ar
    33    16    17    1
    34    12     4    1
    35    29    42    1
    36    29    27   ar
    37    42    45   ar
    38     4     3   ar
    39    43    48    1
    40    43    46   ar
    41     2     3   ar
    42     2     8    1
    43    27    26   ar
    44    27    30    1
    45    26    34    1
    46     3    11    1
    47    20    19    1
    48    55    52    1
    49     8     9    3
    50    45    46   ar
    51    45    47    1
    52    46    51    1
    53    19    21    1
    54    19    22    1
    55     9    10    1
    56    51    52    1
    57    52    54    1
    58    52    53    1
