@<TRIPOS>MOLECULE
mol_data/opt/b3lyp/geoms/mol2/13ed13ed-13ed-13ed.out
 46 49 0 0 0
SMALL
GASTEIGER

@<TRIPOS>ATOM
      1 C           1.3367   -0.4449   -0.2005 C.ar    1  LIG1        0.0190
      2 C           0.9856    0.8683   -0.4609 C.ar    1  LIG1        0.0600
      3 C          -0.4533    0.9171   -0.3953 C.ar    1  LIG1        0.0937
      4 C          -0.9160   -0.3733   -0.1003 C.ar    1  LIG1        0.0829
      5 N           0.1955   -1.1683    0.0096 N.ar    1  LIG1       -0.3573
      6 H           0.1479   -2.1531    0.2411 H       1  LIG1        0.1655
      7 H           2.3134   -0.8999   -0.1542 H       1  LIG1        0.0820
      8 C           1.8582    1.9501   -0.7317 C.1     1  LIG1       -0.0669
      9 C           2.5936    2.8817   -0.9641 C.1     1  LIG1       -0.1138
     10 H           3.2384    3.7050   -1.1691 H       1  LIG1        0.1232
     11 N          -2.0151    2.9474   -0.6750 N.1     1  LIG1       -0.1908
     12 C          -1.2778    2.0511   -0.5574 C.1     1  LIG1        0.1026
     13 C          -2.2490   -0.8886    0.0838 C.ar    1  LIG1        0.0815
     14 C          -2.6685   -2.1493    0.5202 C.ar    1  LIG1        0.0694
     15 C          -4.1049   -2.1356    0.5344 C.ar    1  LIG1        0.0944
     16 C          -4.5228   -0.8787    0.0865 C.ar    1  LIG1        0.0834
     17 N          -3.3834   -0.1461   -0.1634 N.ar    1  LIG1       -0.3498
     18 H          -3.3726    0.7765   -0.5794 H       1  LIG1        0.1661
     19 C          -1.8434   -3.2330    0.9044 C.1     1  LIG1       -0.0662
     20 C          -1.1372   -4.1643    1.2251 C.1     1  LIG1       -0.1138
     21 H          -0.5533   -5.0033    1.5289 H       1  LIG1        0.1232
     22 N          -5.5154   -4.0782    1.4803 N.1     1  LIG1       -0.1908
     23 C          -4.9049   -3.1931    1.0348 C.1     1  LIG1        0.1026
     24 C          -5.8454   -0.3239   -0.0911 C.ar    1  LIG1        0.0815
     25 C          -7.0341   -0.9203   -0.5238 C.ar    1  LIG1        0.0694
     26 C          -8.0358    0.1077   -0.5042 C.ar    1  LIG1        0.0944
     27 C          -7.4315    1.2998   -0.0832 C.ar    1  LIG1        0.0834
     28 N          -6.1140    1.0119    0.1477 N.ar    1  LIG1       -0.3498
     29 H          -5.4670    1.6964    0.5239 H       1  LIG1        0.1661
     30 C          -7.2311   -2.2449   -0.9743 C.1     1  LIG1       -0.0662
     31 C          -7.4284   -3.3662   -1.3816 C.1     1  LIG1       -0.1138
     32 H          -7.5940   -4.3661   -1.7111 H       1  LIG1        0.1232
     33 N         -10.5387   -0.0355   -1.1064 N.1     1  LIG1       -0.1908
     34 C          -9.4006   -0.0197   -0.8519 C.1     1  LIG1        0.1026
     35 C          -7.9845    2.6143    0.1216 C.ar    1  LIG1        0.0810
     36 C          -7.3441    3.8217    0.4257 C.ar    1  LIG1        0.0687
     37 C          -8.3743    4.8204    0.5296 C.ar    1  LIG1        0.0850
     38 C          -9.5841    4.1908    0.2842 C.ar    1  LIG1        0.0209
     39 N          -9.3373    2.8759    0.0434 N.ar    1  LIG1       -0.3573
     40 H         -10.0410    2.1835   -0.1818 H       1  LIG1        0.1655
     41 H         -10.5839    4.5957    0.2676 H       1  LIG1        0.0820
     42 C          -5.9484    4.0135    0.5493 C.1     1  LIG1       -0.0662
     43 C          -4.7468    4.1530    0.6313 C.1     1  LIG1       -0.1138
     44 H          -3.6852    4.2721    0.6101 H       1  LIG1        0.1232
     45 N          -8.0468    7.3255    1.0658 N.1     1  LIG1       -0.1908
     46 C          -8.1932    6.1968    0.8235 C.1     1  LIG1        0.1019
@<TRIPOS>BOND
     1    32    31    1
     2    31    30    3
     3    10     9    1
     4    33    34    3
     5    30    25    1
     6     9     8    3
     7    34    26    1
     8     8     2    1
     9    11    12    3
    10    18    17    1
    11    12     3    1
    12    25    26   ar
    13    25    24   ar
    14    26    27   ar
    15     2     3   ar
    16     2     1   ar
    17     3     4   ar
    18     1     7    1
    19     1     5   ar
    20    40    39    1
    21    17    13   ar
    22    17    16   ar
    23     4     5   ar
    24     4    13    1
    25    24    16    1
    26    24    28   ar
    27    27    35    1
    28    27    28   ar
    29     5     6    1
    30    39    35   ar
    31    39    38   ar
    32    13    14   ar
    33    16    15   ar
    34    35    36   ar
    35    28    29    1
    36    41    38    1
    37    38    37   ar
    38    36    37   ar
    39    36    42    1
    40    14    15   ar
    41    14    19    1
    42    37    46    1
    43    15    23    1
    44    42    43    3
    45    44    43    1
    46    46    45    3
    47    19    20    3
    48    23    22    3
    49    20    21    1
