@<TRIPOS>MOLECULE
mol_data/opt/b3lyp/geoms/mol2/13ed13ed13ed-13ed.out
 46 49 0 0 0
SMALL
GASTEIGER

@<TRIPOS>ATOM
      1 C           1.1622   -0.1191   -0.8697 C.ar    1  LIG1        0.0190
      2 C           0.9839    0.9774   -0.0462 C.ar    1  LIG1        0.0600
      3 C          -0.4031    0.9699    0.3544 C.ar    1  LIG1        0.0937
      4 C          -1.0133   -0.1294   -0.2491 C.ar    1  LIG1        0.0829
      5 N          -0.0332   -0.7796   -0.9706 N.ar    1  LIG1       -0.3573
      6 H          -0.2165   -1.5381   -1.6100 H       1  LIG1        0.1655
      7 H           2.0473   -0.4612   -1.3827 H       1  LIG1        0.0820
      8 C           1.9728    1.9144    0.3432 C.1     1  LIG1       -0.0669
      9 C           2.8108    2.7184    0.6801 C.1     1  LIG1       -0.1138
     10 H           3.5423    3.4319    0.9822 H       1  LIG1        0.1232
     11 N          -1.4606    2.6239    2.0310 N.1     1  LIG1       -0.1908
     12 C          -0.9986    1.8769    1.2675 C.1     1  LIG1        0.1026
     13 C          -2.3673   -0.6392   -0.1966 C.ar    1  LIG1        0.0815
     14 C          -3.6014    0.0059   -0.2823 C.ar    1  LIG1        0.0694
     15 C          -4.6053   -1.0226   -0.2280 C.ar    1  LIG1        0.0944
     16 C          -3.9581   -2.2616   -0.1193 C.ar    1  LIG1        0.0834
     17 N          -2.6124   -1.9937   -0.1138 N.ar    1  LIG1       -0.3498
     18 H          -1.9121   -2.7027    0.0697 H       1  LIG1        0.1661
     19 C          -3.8388    1.3889   -0.4504 C.1     1  LIG1       -0.0662
     20 C          -4.0582    2.5684   -0.6007 C.1     1  LIG1       -0.1138
     21 H          -4.2421    3.6128   -0.7073 H       1  LIG1        0.1232
     22 N          -7.1471   -0.6118   -0.3692 N.1     1  LIG1       -0.1908
     23 C          -5.9991   -0.7990   -0.3034 C.1     1  LIG1        0.1026
     24 C          -4.4437   -3.6152   -0.0147 C.ar    1  LIG1        0.0815
     25 C          -3.7061   -4.8014    0.0966 C.ar    1  LIG1        0.0694
     26 C          -4.6538   -5.8738    0.1703 C.ar    1  LIG1        0.0944
     27 C          -5.9398   -5.3198    0.1040 C.ar    1  LIG1        0.0834
     28 N          -5.7798   -3.9615   -0.0069 N.ar    1  LIG1       -0.3498
     29 H          -6.5610   -3.3146   -0.0720 H       1  LIG1        0.1661
     30 C          -2.2999   -4.9488    0.1426 C.1     1  LIG1       -0.0662
     31 C          -1.0967   -5.0925    0.1885 C.1     1  LIG1       -0.1138
     32 H          -0.0453   -5.2611    0.2460 H       1  LIG1        0.1232
     33 N          -4.1869   -8.4005    0.3850 N.1     1  LIG1       -0.1908
     34 C          -4.3586   -7.2507    0.2888 C.1     1  LIG1        0.1026
     35 C          -7.2254   -5.9713    0.1385 C.ar    1  LIG1        0.0810
     36 C          -8.5202   -5.4417    0.0748 C.ar    1  LIG1        0.0687
     37 C          -9.4270   -6.5550    0.1529 C.ar    1  LIG1        0.0850
     38 C          -8.6610   -7.7045    0.2601 C.ar    1  LIG1        0.0209
     39 N          -7.3518   -7.3436    0.2503 N.ar    1  LIG1       -0.3573
     40 H          -6.5750   -7.9890    0.3169 H       1  LIG1        0.1655
     41 H          -8.9674   -8.7357    0.3414 H       1  LIG1        0.0820
     42 C          -8.8673   -4.0772   -0.0426 C.1     1  LIG1       -0.0662
     43 C          -9.1694   -2.9085   -0.1425 C.1     1  LIG1       -0.1138
     44 H          -9.3867   -1.8680   -0.2328 H       1  LIG1        0.1232
     45 N         -12.0072   -6.4519    0.1022 N.1     1  LIG1       -0.1908
     46 C         -10.8446   -6.4958    0.1252 C.1     1  LIG1        0.1019
@<TRIPOS>BOND
     1     6     5    1
     2     7     1    1
     3     5     1   ar
     4     5     4   ar
     5     1     2   ar
     6    21    20    1
     7    20    19    3
     8    19    14    1
     9    22    23    3
    10    23    15    1
    11    14    15   ar
    12    14    13   ar
    13     4    13    1
    14     4     3   ar
    15    44    43    1
    16    15    16   ar
    17    13    17   ar
    18    43    42    3
    19    16    17   ar
    20    16    24    1
    21    17    18    1
    22    29    28    1
    23     2     8    1
    24     2     3   ar
    25    42    36    1
    26    24    28   ar
    27    24    25   ar
    28    28    27   ar
    29    36    35   ar
    30    36    37   ar
    31    25    30    1
    32    25    26   ar
    33    45    46    3
    34    27    35    1
    35    27    26   ar
    36    46    37    1
    37    35    39   ar
    38    30    31    3
    39    37    38   ar
    40    26    34    1
    41    31    32    1
    42    39    38   ar
    43    39    40    1
    44    38    41    1
    45    34    33    3
    46     8     9    3
    47     3    12    1
    48     9    10    1
    49    12    11    3
