@<TRIPOS>MOLECULE
mol_data/opt/b3lyp/geoms/mol2/13ed13ed13ed-13ed-.out
 46 49 0 0 0
SMALL
GASTEIGER

@<TRIPOS>ATOM
      1 C           1.1482   -0.0531   -0.9478 C.ar    1  LIG1        0.0190
      2 C           0.9056    1.0863   -0.2023 C.ar    1  LIG1        0.0600
      3 C          -0.4821    1.0324    0.1911 C.ar    1  LIG1        0.0937
      4 C          -1.0286   -0.1363   -0.3387 C.ar    1  LIG1        0.0829
      5 N          -0.0099   -0.7812   -1.0095 N.ar    1  LIG1       -0.3573
      6 H          -0.1464   -1.5910   -1.5953 H       1  LIG1        0.1655
      7 H           2.0546   -0.3825   -1.4310 H       1  LIG1        0.0820
      8 C           1.8403    2.0991    0.1265 C.1     1  LIG1       -0.0669
      9 C           2.6315    2.9680    0.4114 C.1     1  LIG1       -0.1138
     10 H           3.3219    3.7384    0.6671 H       1  LIG1        0.1232
     11 N          -1.6450    2.7360    1.7437 N.1     1  LIG1       -0.1908
     12 C          -1.1340    1.9659    1.0364 C.1     1  LIG1        0.1026
     13 C          -2.3557   -0.7090   -0.2555 C.ar    1  LIG1        0.0815
     14 C          -3.6188   -0.1306   -0.3948 C.ar    1  LIG1        0.0694
     15 C          -4.5710   -1.1979   -0.2569 C.ar    1  LIG1        0.0944
     16 C          -3.8646   -2.3910   -0.0503 C.ar    1  LIG1        0.0834
     17 N          -2.5350   -2.0666   -0.0653 N.ar    1  LIG1       -0.3498
     18 H          -1.8088   -2.7264    0.1885 H       1  LIG1        0.1661
     19 C          -3.9208    1.2221   -0.6715 C.1     1  LIG1       -0.0662
     20 C          -4.1981    2.3736   -0.9145 C.1     1  LIG1       -0.1138
     21 H          -4.4312    3.3964   -1.1033 H       1  LIG1        0.1232
     22 N          -7.1466   -1.1764   -0.3440 N.1     1  LIG1       -0.1908
     23 C          -5.9815   -1.1193   -0.3152 C.1     1  LIG1        0.1026
     24 C          -4.3339   -3.7339    0.1643 C.ar    1  LIG1        0.0815
     25 C          -3.6331   -4.9022    0.4820 C.ar    1  LIG1        0.0694
     26 C          -4.6031   -5.9582    0.5974 C.ar    1  LIG1        0.0944
     27 C          -5.8605   -5.4079    0.3324 C.ar    1  LIG1        0.0834
     28 N          -5.6668   -4.0699    0.0859 N.ar    1  LIG1       -0.3498
     29 H          -6.3877   -3.4366   -0.2380 H       1  LIG1        0.1661
     30 C          -2.2380   -5.0178    0.6888 C.1     1  LIG1       -0.0662
     31 C          -1.0420   -5.1116    0.8633 C.1     1  LIG1       -0.1138
     32 H           0.0005   -5.2424    1.0458 H       1  LIG1        0.1232
     33 N          -4.0129   -8.3499    1.3659 N.1     1  LIG1       -0.1908
     34 C          -4.3037   -7.2817    1.0069 C.1     1  LIG1        0.1026
     35 C          -7.1924   -5.9703    0.3205 C.ar    1  LIG1        0.0810
     36 C          -7.6801   -7.1983   -0.1312 C.ar    1  LIG1        0.0687
     37 C          -9.1087   -7.1669    0.0600 C.ar    1  LIG1        0.0850
     38 C          -9.4337   -5.9361    0.6023 C.ar    1  LIG1        0.0209
     39 N          -8.2818   -5.2244    0.7431 N.ar    1  LIG1       -0.3573
     40 H          -8.2199   -4.3243    1.1958 H       1  LIG1        0.1655
     41 H         -10.3927   -5.5374    0.8943 H       1  LIG1        0.0820
     42 C          -6.9450   -8.2493   -0.7253 C.1     1  LIG1       -0.0662
     43 C          -6.3363   -9.1553   -1.2456 C.1     1  LIG1       -0.1138
     44 H          -5.7895   -9.9609   -1.6788 H       1  LIG1        0.1232
     45 N         -10.7862   -9.0399   -0.5323 N.1     1  LIG1       -0.1908
     46 C         -10.0276   -8.1988   -0.2661 C.1     1  LIG1        0.1019
@<TRIPOS>BOND
     1    44    43    1
     2     6     5    1
     3     7     1    1
     4    43    42    3
     5    21    20    1
     6     5     1   ar
     7     5     4   ar
     8     1     2   ar
     9    20    19    3
    10    42    36    1
    11    19    14    1
    12    45    46    3
    13    14    15   ar
    14    14    13   ar
    15    22    23    3
    16     4    13    1
    17     4     3   ar
    18    23    15    1
    19    46    37    1
    20    15    16   ar
    21    13    17   ar
    22    29    28    1
    23     2     8    1
    24     2     3   ar
    25    36    37   ar
    26    36    35   ar
    27    17    16   ar
    28    17    18    1
    29    16    24    1
    30    37    38   ar
    31    28    24   ar
    32    28    27   ar
    33     8     9    3
    34    24    25   ar
    35     3    12    1
    36    35    27    1
    37    35    39   ar
    38    27    26   ar
    39     9    10    1
    40    25    26   ar
    41    25    30    1
    42    26    34    1
    43    38    39   ar
    44    38    41    1
    45    30    31    3
    46    39    40    1
    47    31    32    1
    48    34    33    3
    49    12    11    3
