@<TRIPOS>MOLECULE
mol_data/opt/b3lyp/geoms/mol2/13ed13ed13ed13ed-.out
 46 49 0 0 0
SMALL
GASTEIGER

@<TRIPOS>ATOM
      1 C           0.5063    0.3945   -2.0030 C.ar    1  LIG1        0.0190
      2 C           0.7509    1.0771   -0.8255 C.ar    1  LIG1        0.0600
      3 C          -0.3590    0.7916    0.0524 C.ar    1  LIG1        0.0937
      4 C          -1.2359   -0.0492   -0.6297 C.ar    1  LIG1        0.0829
      5 N          -0.6747   -0.2866   -1.8680 N.ar    1  LIG1       -0.3573
      6 H          -1.1584   -0.7456   -2.6250 H       1  LIG1        0.1655
      7 H           1.0868    0.3538   -2.9113 H       1  LIG1        0.0820
      8 C           1.8783    1.8836   -0.5312 C.1     1  LIG1       -0.0669
      9 C           2.8370    2.5733   -0.2718 C.1     1  LIG1       -0.1138
     10 H           3.6775    3.1839   -0.0350 H       1  LIG1        0.1232
     11 N          -0.5674    1.5868    2.5001 N.1     1  LIG1       -0.1908
     12 C          -0.4872    1.2306    1.3951 C.1     1  LIG1        0.1026
     13 C          -2.4917   -0.6577   -0.2336 C.ar    1  LIG1        0.0815
     14 C          -3.6426   -0.1076    0.3297 C.ar    1  LIG1        0.0694
     15 C          -4.5964   -1.1779    0.4605 C.ar    1  LIG1        0.0944
     16 C          -4.0083   -2.3425   -0.0342 C.ar    1  LIG1        0.0834
     17 N          -2.7400   -2.0004   -0.4441 N.ar    1  LIG1       -0.3498
     18 H          -2.0737   -2.6487   -0.8363 H       1  LIG1        0.1661
     19 C          -3.8511    1.2456    0.6845 C.1     1  LIG1       -0.0662
     20 C          -4.0431    2.3997    0.9889 C.1     1  LIG1       -0.1138
     21 H          -4.2023    3.4131    1.2778 H       1  LIG1        0.1232
     22 N          -6.9331   -0.9501    1.5346 N.1     1  LIG1       -0.1908
     23 C          -5.8842   -1.0626    1.0436 C.1     1  LIG1        0.1026
     24 C          -4.4834   -3.7076   -0.1217 C.ar    1  LIG1        0.0815
     25 C          -5.6969   -4.2340   -0.5665 C.ar    1  LIG1        0.0694
     26 C          -5.5731   -5.6638   -0.4857 C.ar    1  LIG1        0.0944
     27 C          -4.2927   -5.9654   -0.0037 C.ar    1  LIG1        0.0834
     28 N          -3.6569   -4.7696    0.1945 N.ar    1  LIG1       -0.3498
     29 H          -2.7586   -4.7003    0.6595 H       1  LIG1        0.1661
     30 C          -6.8141   -3.5221   -1.0593 C.1     1  LIG1       -0.0662
     31 C          -7.7762   -2.9292   -1.4893 C.1     1  LIG1       -0.1138
     32 H          -8.6303   -2.3965   -1.8397 H       1  LIG1        0.1232
     33 N          -7.2660   -7.5030   -1.1170 N.1     1  LIG1       -0.1908
     34 C          -6.5386   -6.6330   -0.8446 C.1     1  LIG1        0.1026
     35 C          -3.6571   -7.2276    0.2769 C.ar    1  LIG1        0.0810
     36 C          -2.3752   -7.4994    0.7717 C.ar    1  LIG1        0.0687
     37 C          -2.2590   -8.9319    0.8547 C.ar    1  LIG1        0.0850
     38 C          -3.4581   -9.4674    0.4156 C.ar    1  LIG1        0.0209
     39 N          -4.2817   -8.4399    0.0746 N.ar    1  LIG1       -0.3573
     40 H          -5.2255   -8.5430   -0.2786 H       1  LIG1        0.1655
     41 H          -3.7654  -10.4977    0.3284 H       1  LIG1        0.0820
     42 C          -1.3880   -6.5528    1.1350 C.1     1  LIG1       -0.0662
     43 C          -0.5465   -5.7387    1.4506 C.1     1  LIG1       -0.1138
     44 H           0.2191   -5.0633    1.7595 H       1  LIG1        0.1232
     45 N          -0.1953  -10.2574    1.6633 N.1     1  LIG1       -0.1908
     46 C          -1.1269   -9.6620    1.3004 C.1     1  LIG1        0.1019
@<TRIPOS>BOND
     1     7     1    1
     2     6     5    1
     3     1     5   ar
     4     1     2   ar
     5     5     4   ar
     6    32    31    1
     7    31    30    3
     8    33    34    3
     9    30    25    1
    10    34    26    1
    11    18    17    1
    12     2     8    1
    13     2     3   ar
    14     4    13    1
    15     4     3   ar
    16    25    26   ar
    17    25    24   ar
    18     8     9    3
    19    26    27   ar
    20    17    13   ar
    21    17    16   ar
    22    40    39    1
    23     9    10    1
    24    13    14   ar
    25    24    16    1
    26    24    28   ar
    27    16    15   ar
    28    27    28   ar
    29    27    35    1
    30     3    12    1
    31    39    35   ar
    32    39    38   ar
    33    28    29    1
    34    35    36   ar
    35    41    38    1
    36    14    15   ar
    37    14    19    1
    38    38    37   ar
    39    15    23    1
    40    19    20    3
    41    36    37   ar
    42    36    42    1
    43    37    46    1
    44    20    21    1
    45    23    22    3
    46    42    43    3
    47    46    45    3
    48    12    11    3
    49    43    44    1
