@<TRIPOS>MOLECULE
mol_data/opt/b3lyp/geoms/mol2/13ed13ed-13ed-13ed-.out
 46 49 0 0 0
SMALL
GASTEIGER

@<TRIPOS>ATOM
      1 C           1.1061    0.0365    0.0288 C.ar    1  LIG1        0.0190
      2 C           0.5293    1.2763    0.2431 C.ar    1  LIG1        0.0600
      3 C          -0.8962    1.0633    0.2228 C.ar    1  LIG1        0.0937
      4 C          -1.1213   -0.3063   -0.0010 C.ar    1  LIG1        0.0829
      5 N           0.1093   -0.8924   -0.1126 N.ar    1  LIG1       -0.3573
      6 H           0.2331   -1.8806   -0.2958 H       1  LIG1        0.1655
      7 H           2.1479   -0.2360   -0.0301 H       1  LIG1        0.0820
      8 C           1.1990    2.5087    0.4386 C.1     1  LIG1       -0.0669
      9 C           1.7589    3.5674    0.6068 C.1     1  LIG1       -0.1138
     10 H           2.2519    4.5007    0.7548 H       1  LIG1        0.1232
     11 N          -2.8737    2.6973    0.4781 N.1     1  LIG1       -0.1908
     12 C          -1.9305    2.0159    0.3711 C.1     1  LIG1        0.1026
     13 C          -2.3597   -1.0287   -0.1169 C.ar    1  LIG1        0.0815
     14 C          -2.6518   -2.3519   -0.4634 C.ar    1  LIG1        0.0694
     15 C          -4.0884   -2.4845   -0.4543 C.ar    1  LIG1        0.0944
     16 C          -4.6223   -1.2430   -0.0907 C.ar    1  LIG1        0.0834
     17 N          -3.5583   -0.3981    0.1003 N.ar    1  LIG1       -0.3498
     18 H          -3.6439    0.5293    0.4933 H       1  LIG1        0.1661
     19 C          -1.7074   -3.3545   -0.7867 C.1     1  LIG1       -0.0662
     20 C          -0.8838   -4.2026   -1.0545 C.1     1  LIG1       -0.1138
     21 H          -0.1981   -4.9798   -1.3050 H       1  LIG1        0.1232
     22 N          -5.3373   -4.6276   -1.1662 N.1     1  LIG1       -0.1908
     23 C          -4.7938   -3.6534   -0.8338 C.1     1  LIG1        0.1026
     24 C          -5.9407   -0.6753    0.0591 C.ar    1  LIG1        0.0815
     25 C          -7.1606   -1.1482    0.5376 C.ar    1  LIG1        0.0694
     26 C          -8.0516   -0.0131    0.6062 C.ar    1  LIG1        0.0944
     27 C          -7.3528    1.1128    0.1652 C.ar    1  LIG1        0.0834
     28 N          -6.0795    0.6911   -0.1400 N.ar    1  LIG1       -0.3498
     29 H          -5.4537    1.2317   -0.7211 H       1  LIG1        0.1661
     30 C          -7.4555   -2.4611    0.9689 C.1     1  LIG1       -0.0662
     31 C          -7.7149   -3.5807    1.3446 C.1     1  LIG1       -0.1138
     32 H          -7.9402   -4.5757    1.6531 H       1  LIG1        0.1232
     33 N         -10.4185   -0.1210    1.6305 N.1     1  LIG1       -0.1908
     34 C          -9.3587   -0.0545    1.1546 C.1     1  LIG1        0.1026
     35 C          -7.6792    2.5153    0.0451 C.ar    1  LIG1        0.0810
     36 C          -8.8484    3.1813   -0.3286 C.ar    1  LIG1        0.0687
     37 C          -8.5378    4.5890   -0.3201 C.ar    1  LIG1        0.0850
     38 C          -7.2087    4.7245    0.0419 C.ar    1  LIG1        0.0209
     39 N          -6.7003    3.4792    0.2474 N.ar    1  LIG1       -0.3573
     40 H          -5.7689    3.2968    0.5979 H       1  LIG1        0.1655
     41 H          -6.6115    5.6139    0.1699 H       1  LIG1        0.0820
     42 C         -10.0808    2.6034   -0.7086 C.1     1  LIG1       -0.0662
     43 C         -11.1383    2.1246   -1.0472 C.1     1  LIG1       -0.1138
     44 H         -12.0736    1.6916   -1.3178 H       1  LIG1        0.1232
     45 N         -10.1371    6.5299   -0.9104 N.1     1  LIG1       -0.1908
     46 C          -9.4208    5.6524   -0.6441 C.1     1  LIG1        0.1019
@<TRIPOS>BOND
     1    44    43    1
     2    21    20    1
     3    22    23    3
     4    20    19    3
     5    43    42    3
     6    45    46    3
     7    23    15    1
     8    19    14    1
     9    29    28    1
    10    42    36    1
    11    46    37    1
    12    14    15   ar
    13    14    13   ar
    14    15    16   ar
    15    36    37   ar
    16    36    35   ar
    17    37    38   ar
    18     6     5    1
    19    28    24   ar
    20    28    27   ar
    21    13     4    1
    22    13    17   ar
    23     5     4   ar
    24     5     1   ar
    25    16    24    1
    26    16    17   ar
    27     7     1    1
    28     4     3   ar
    29     1     2   ar
    30    38    41    1
    31    38    39   ar
    32    35    27    1
    33    35    39   ar
    34    24    25   ar
    35    17    18    1
    36    27    26   ar
    37     3     2   ar
    38     3    12    1
    39     2     8    1
    40    39    40    1
    41    12    11    3
    42     8     9    3
    43    25    26   ar
    44    25    30    1
    45    26    34    1
    46     9    10    1
    47    30    31    3
    48    34    33    3
    49    31    32    1
