@<TRIPOS>MOLECULE
mol_data/opt/b3lyp/geoms/mol2/13ed13ed-13ed13ed-.out
 46 49 0 0 0
SMALL
GASTEIGER

@<TRIPOS>ATOM
      1 C           1.3616   -0.3199   -0.0010 C.ar    1  LIG1        0.0190
      2 C           1.0319    1.0235   -0.0009 C.ar    1  LIG1        0.0600
      3 C          -0.4086    1.0849   -0.0002 C.ar    1  LIG1        0.0937
      4 C          -0.8965   -0.2303    0.0001 C.ar    1  LIG1        0.0829
      5 N           0.2079   -1.0483   -0.0004 N.ar    1  LIG1       -0.3573
      6 H           0.1461   -2.0593   -0.0003 H       1  LIG1        0.1655
      7 H           2.3313   -0.7921   -0.0014 H       1  LIG1        0.0820
      8 C           1.9254    2.1221   -0.0014 C.1     1  LIG1       -0.0669
      9 C           2.6815    3.0660   -0.0018 C.1     1  LIG1       -0.1138
     10 H           3.3428    3.9016   -0.0024 H       1  LIG1        0.1232
     11 N          -1.7692    3.2744    0.0002 N.1     1  LIG1       -0.1908
     12 C          -1.1634    2.2790    0.0000 C.1     1  LIG1        0.1026
     13 C          -2.2280   -0.7898    0.0007 C.ar    1  LIG1        0.0815
     14 C          -2.6052   -2.1381    0.0008 C.ar    1  LIG1        0.0694
     15 C          -4.0388   -2.1717    0.0016 C.ar    1  LIG1        0.0944
     16 C          -4.5035   -0.8497    0.0020 C.ar    1  LIG1        0.0834
     17 N          -3.3871   -0.0441    0.0015 N.ar    1  LIG1       -0.3498
     18 H          -3.4361    0.9708    0.0016 H       1  LIG1        0.1661
     19 C          -1.7662   -3.2771    0.0002 C.1     1  LIG1       -0.0662
     20 C          -1.0613   -4.2634   -0.0003 C.1     1  LIG1       -0.1138
     21 H          -0.4719   -5.1521   -0.0008 H       1  LIG1        0.1232
     22 N          -5.4045   -4.3577    0.0021 N.1     1  LIG1       -0.1908
     23 C          -4.8027   -3.3598    0.0019 C.1     1  LIG1        0.1026
     24 C          -5.8442   -0.3164    0.0029 C.ar    1  LIG1        0.0815
     25 C          -6.2650    1.0188    0.0033 C.ar    1  LIG1        0.0694
     26 C          -7.6955    1.0033    0.0041 C.ar    1  LIG1        0.0944
     27 C          -8.1164   -0.3350    0.0042 C.ar    1  LIG1        0.0834
     28 N          -6.9827   -1.1050    0.0034 N.ar    1  LIG1       -0.3498
     29 H          -7.0047   -2.1204    0.0033 H       1  LIG1        0.1661
     30 C          -5.4581    2.1779    0.0030 C.1     1  LIG1       -0.0662
     31 C          -4.7935    3.1907    0.0027 C.1     1  LIG1       -0.1138
     32 H          -4.1558    4.0460    0.0025 H       1  LIG1        0.1232
     33 N          -9.3150    3.0097    0.0054 N.1     1  LIG1       -0.1908
     34 C          -8.5483    2.1305    0.0048 C.1     1  LIG1        0.1026
     35 C          -9.4542   -0.8738    0.0049 C.ar    1  LIG1        0.0810
     36 C          -9.9117   -2.1973    0.0051 C.ar    1  LIG1        0.0687
     37 C         -11.3487   -2.1394    0.0059 C.ar    1  LIG1        0.0850
     38 C         -11.7077   -0.8014    0.0062 C.ar    1  LIG1        0.0209
     39 N         -10.5712   -0.0585    0.0056 N.ar    1  LIG1       -0.3573
     40 H         -10.5429    0.9535    0.0057 H       1  LIG1        0.1655
     41 H         -12.6859   -0.3465    0.0068 H       1  LIG1        0.0820
     42 C          -9.1193   -3.3667    0.0046 C.1     1  LIG1       -0.0662
     43 C          -8.4522   -4.3775    0.0042 C.1     1  LIG1       -0.1138
     44 H          -7.8250   -5.2398    0.0036 H       1  LIG1        0.1232
     45 N         -12.9734   -4.1470    0.0067 N.1     1  LIG1       -0.1908
     46 C         -12.2398   -3.2438    0.0064 C.1     1  LIG1        0.1019
@<TRIPOS>BOND
     1    10     9    1
     2     9     8    3
     3     7     1    1
     4     8     2    1
     5     1     2   ar
     6     1     5   ar
     7     2     3   ar
     8    21    20    1
     9     5     6    1
    10     5     4   ar
    11    20    19    3
    12     3    12    1
    13     3     4   ar
    14    12    11    3
    15     4    13    1
    16    19    14    1
    17    13    14   ar
    18    13    17   ar
    19    14    15   ar
    20    17    18    1
    21    17    16   ar
    22    15    23    1
    23    15    16   ar
    24    23    22    3
    25    16    24    1
    26    32    31    1
    27    31    30    3
    28    24    25   ar
    29    24    28   ar
    30    30    25    1
    31    25    26   ar
    32    29    28    1
    33    28    27   ar
    34    44    43    1
    35    26    27   ar
    36    26    34    1
    37    43    42    3
    38    27    35    1
    39    42    36    1
    40    34    33    3
    41    35    36   ar
    42    35    39   ar
    43    36    37   ar
    44    39    40    1
    45    39    38   ar
    46    37    38   ar
    47    37    46    1
    48    38    41    1
    49    46    45    3
