@<TRIPOS>MOLECULE
mol_data/opt/b3lyp/geoms/mol2/13ed6ll-6ed12fe-.out
 52 55 0 0 0
SMALL
GASTEIGER

@<TRIPOS>ATOM
      1 C           1.3326   -0.2980   -0.8096 C.ar    1  LIG1        0.0189
      2 C           1.0531    0.9938   -0.3968 C.ar    1  LIG1        0.0599
      3 C          -0.3501    1.0189   -0.0716 C.ar    1  LIG1        0.0924
      4 C          -0.8715   -0.2670   -0.3012 C.ar    1  LIG1        0.0705
      5 N           0.1830   -1.0261   -0.7456 N.ar    1  LIG1       -0.3583
      6 H           0.0601   -2.0024   -0.9814 H       1  LIG1        0.1654
      7 H           2.2646   -0.7304   -1.1381 H       1  LIG1        0.0820
      8 C           1.9635    2.0757   -0.3112 C.1     1  LIG1       -0.0669
      9 C           2.7352    3.0043   -0.2358 C.1     1  LIG1       -0.1138
     10 H           3.4084    3.8270   -0.1666 H       1  LIG1        0.1232
     11 N          -1.6223    3.0976    0.7797 N.1     1  LIG1       -0.1908
     12 C          -1.0434    2.1616    0.3950 C.1     1  LIG1        0.1025
     13 C          -2.5603   -2.1624   -0.4253 C.ar    1  LIG1        0.2246
     14 C          -2.2172   -0.8132   -0.1442 C.ar    1  LIG1        0.0646
     15 C          -3.2775   -0.0113    0.3037 C.ar    1  LIG1       -0.0036
     16 C          -4.5654   -0.5262    0.4525 C.ar    1  LIG1        0.1469
     17 C          -4.7869   -1.8850    0.1425 C.ar    1  LIG1        0.1190
     18 N          -3.7738   -2.6522   -0.2887 N.ar    1  LIG1       -0.2086
     19 H          -3.0884    1.0249    0.5424 H       1  LIG1        0.0663
     20 O          -1.5777   -3.0070   -0.8673 O.3     1  LIG1       -0.4792
     21 C          -1.9625   -4.3637   -1.1444 C.3     1  LIG1        0.0804
     22 H          -1.0406   -4.8687   -1.4349 H       1  LIG1        0.0660
     23 H          -2.4007   -4.8312   -0.2603 H       1  LIG1        0.0660
     24 H          -2.6909   -4.4005   -1.9580 H       1  LIG1        0.0660
     25 O          -5.6263    0.2042    0.8918 O.3     1  LIG1       -0.4929
     26 C          -5.4052    1.5613    1.2765 C.3     1  LIG1        0.0789
     27 H          -6.3728    1.9318    1.6149 H       1  LIG1        0.0660
     28 H          -4.6791    1.6309    2.0941 H       1  LIG1        0.0660
     29 H          -5.0559    2.1675    0.4331 H       1  LIG1        0.0660
     30 C          -6.2781   -3.8276    0.8323 C.ar    1  LIG1        0.1233
     31 C          -6.1121   -2.5375    0.2590 C.ar    1  LIG1        0.0391
     32 C          -7.2693   -1.9142   -0.2076 C.ar    1  LIG1       -0.0302
     33 C          -8.5057   -2.5676   -0.1663 C.ar    1  LIG1        0.0815
     34 C          -8.5432   -3.9034    0.3168 C.ar    1  LIG1        0.1284
     35 N          -7.4496   -4.4802    0.8322 N.ar    1  LIG1       -0.2332
     36 H          -7.2195   -0.9030   -0.5906 H       1  LIG1        0.0638
     37 C          -5.2100   -4.5106    1.5057 C.1     1  LIG1       -0.0491
     38 C          -4.3657   -5.1112    2.1291 C.1     1  LIG1       -0.1124
     39 H          -3.6252   -5.6377    2.6860 H       1  LIG1        0.1232
     40 N         -10.6026   -1.1810   -0.8011 N.1     1  LIG1       -0.1908
     41 C          -9.6765   -1.8325   -0.5331 C.1     1  LIG1        0.1014
     42 C          -9.7484   -4.7171    0.2996 C.ar    1  LIG1        0.1966
     43 C         -10.8122   -4.8463   -0.5653 C.ar    1  LIG1        0.1799
     44 C         -11.6461   -5.9091   -0.0627 C.ar    1  LIG1        0.1045
     45 C         -11.0109   -6.3575    1.0689 C.ar    1  LIG1        0.1117
     46 O          -9.8793   -5.6719    1.2921 O.2     1  LIG1       -0.4563
     47 H         -11.2599   -7.1285    1.7812 H       1  LIG1        0.1043
     48 O         -11.0049   -4.1581   -1.7048 O.3     1  LIG1       -0.5024
     49 H         -11.8698   -4.3995   -2.0699 H       1  LIG1        0.2923
     50 C         -12.8461   -6.3461   -0.6735 C.1     1  LIG1       -0.0628
     51 C         -13.8604   -6.6618   -1.2550 C.1     1  LIG1       -0.1137
     52 H         -14.7595   -6.9605   -1.7430 H       1  LIG1        0.1232
@<TRIPOS>BOND
     1    49    48    1
     2    24    21    1
     3    52    51    1
     4    48    43    1
     5    22    21    1
     6    51    50    3
     7    21    20    1
     8    21    23    1
     9     7     1    1
    10     6     5    1
    11    20    13    1
    12     1     5   ar
    13     1     2   ar
    14    40    41    3
    15     5     4   ar
    16    50    44    1
    17    36    32    1
    18    43    44   ar
    19    43    42   ar
    20    41    33    1
    21    13    18   ar
    22    13    14   ar
    23     2     8    1
    24     2     3   ar
    25     8     9    3
    26     4    14    1
    27     4     3   ar
    28    18    17   ar
    29     9    10    1
    30    32    33   ar
    31    32    31   ar
    32    33    34   ar
    33    14    15   ar
    34     3    12    1
    35    44    45   ar
    36    17    31    1
    37    17    16   ar
    38    31    30   ar
    39    42    34    1
    40    42    46   ar
    41    15    16   ar
    42    15    19    1
    43    34    35   ar
    44    12    11    3
    45    29    26    1
    46    16    25    1
    47    35    30   ar
    48    30    37    1
    49    25    26    1
    50    45    46   ar
    51    45    47    1
    52    26    27    1
    53    26    28    1
    54    37    38    3
    55    38    39    1
