@<TRIPOS>MOLECULE
mol_data/opt/b3lyp/geoms/mol2/13ed13ed13ed.out
 35 37 0 0 0
SMALL
GASTEIGER

@<TRIPOS>ATOM
      1 C           0.8018    0.0244   -1.4804 C.ar    1  LIG1        0.0190
      2 C           0.8370    0.9788   -0.4802 C.ar    1  LIG1        0.0600
      3 C          -0.4137    0.8715    0.2330 C.ar    1  LIG1        0.0937
      4 C          -1.1604   -0.1403   -0.3664 C.ar    1  LIG1        0.0829
      5 N          -0.3891   -0.6472   -1.3924 N.ar    1  LIG1       -0.3573
      6 H          -0.7332   -1.2931   -2.0867 H       1  LIG1        0.1655
      7 H           1.5349   -0.2121   -2.2355 H       1  LIG1        0.0820
      8 C           1.8989    1.8740   -0.1994 C.1     1  LIG1       -0.0669
      9 C           2.8002    2.6415    0.0471 C.1     1  LIG1       -0.1138
     10 H           3.5886    3.3226    0.2704 H       1  LIG1        0.1232
     11 N          -1.0561    2.2239    2.3366 N.1     1  LIG1       -0.1908
     12 C          -0.7792    1.6160    1.3838 C.1     1  LIG1        0.1026
     13 C          -2.4728   -0.6787   -0.0606 C.ar    1  LIG1        0.0815
     14 C          -3.7041   -0.0493    0.1168 C.ar    1  LIG1        0.0694
     15 C          -4.6733   -1.0881    0.3502 C.ar    1  LIG1        0.0944
     16 C          -4.0126   -2.3145    0.3000 C.ar    1  LIG1        0.0834
     17 N          -2.6880   -2.0390    0.0519 N.ar    1  LIG1       -0.3498
     18 H          -1.9681   -2.7403   -0.0362 H       1  LIG1        0.1661
     19 C          -3.9634    1.3400    0.0568 C.1     1  LIG1       -0.0662
     20 C          -4.1983    2.5248    0.0051 C.1     1  LIG1       -0.1138
     21 H          -4.4006    3.5708   -0.0191 H       1  LIG1        0.1232
     22 N          -7.1761   -0.7046    0.8567 N.1     1  LIG1       -0.1908
     23 C          -6.0507   -0.8871    0.6242 C.1     1  LIG1        0.1026
     24 C          -4.4862   -3.6732    0.4891 C.ar    1  LIG1        0.0810
     25 C          -5.5413   -4.3652   -0.1015 C.ar    1  LIG1        0.0687
     26 C          -5.5100   -5.7025    0.4396 C.ar    1  LIG1        0.0850
     27 C          -4.4496   -5.7727    1.3248 C.ar    1  LIG1        0.0209
     28 N          -3.8327   -4.5566    1.3340 N.ar    1  LIG1       -0.3573
     29 H          -3.1231   -4.2822    1.9968 H       1  LIG1        0.1655
     30 H          -4.1106   -6.5935    1.9375 H       1  LIG1        0.0820
     31 C          -6.4418   -3.8736   -1.0756 C.1     1  LIG1       -0.0662
     32 C          -7.2152   -3.4665   -1.9109 C.1     1  LIG1       -0.1138
     33 H          -7.9134   -3.0993   -2.6274 H       1  LIG1        0.1232
     34 N          -7.0989   -7.6506   -0.1556 N.1     1  LIG1       -0.1908
     35 C          -6.3875   -6.7696    0.1119 C.1     1  LIG1        0.1019
@<TRIPOS>BOND
     1    33    32    1
     2     7     1    1
     3     6     5    1
     4    32    31    3
     5     1     5   ar
     6     1     2   ar
     7     5     4   ar
     8    31    25    1
     9     2     8    1
    10     2     3   ar
    11     4    13    1
    12     4     3   ar
    13     8     9    3
    14    34    35    3
    15    25    26   ar
    16    25    24   ar
    17    13    17   ar
    18    13    14   ar
    19    18    17    1
    20    21    20    1
    21    20    19    3
    22     9    10    1
    23    17    16   ar
    24    19    14    1
    25    35    26    1
    26    14    15   ar
    27     3    12    1
    28    16    15   ar
    29    16    24    1
    30    15    23    1
    31    26    27   ar
    32    24    28   ar
    33    23    22    3
    34    27    28   ar
    35    27    30    1
    36    28    29    1
    37    12    11    3
