@<TRIPOS>MOLECULE
mol_data/opt/b3lyp/geoms/mol2/13ed13ed13ed13ed.out
 46 49 0 0 0
SMALL
GASTEIGER

@<TRIPOS>ATOM
      1 C           0.2985    0.3323   -2.2779 C.ar    1  LIG1        0.0190
      2 C           0.6969    0.9731   -1.1186 C.ar    1  LIG1        0.0600
      3 C          -0.3187    0.6999   -0.1302 C.ar    1  LIG1        0.0937
      4 C          -1.2952   -0.0915   -0.7303 C.ar    1  LIG1        0.0829
      5 N          -0.8844   -0.3121   -2.0287 N.ar    1  LIG1       -0.3573
      6 H          -1.4637   -0.7370   -2.7371 H       1  LIG1        0.1655
      7 H           0.7730    0.2979   -3.2460 H       1  LIG1        0.0820
      8 C           1.8782    1.7332   -0.9326 C.1     1  LIG1       -0.0669
      9 C           2.8839    2.3832   -0.7650 C.1     1  LIG1       -0.1138
     10 H           3.7669    2.9592   -0.6093 H       1  LIG1        0.1232
     11 N          -0.2390    1.4260    2.3465 N.1     1  LIG1       -0.1908
     12 C          -0.2866    1.1033    1.2295 C.1     1  LIG1        0.1026
     13 C          -2.5209   -0.6658   -0.2057 C.ar    1  LIG1        0.0815
     14 C          -3.5924   -0.0796    0.4670 C.ar    1  LIG1        0.0694
     15 C          -4.5523   -1.1241    0.7105 C.ar    1  LIG1        0.0944
     16 C          -4.0474   -2.3081    0.1766 C.ar    1  LIG1        0.0834
     17 N          -2.8211   -2.0045   -0.3682 N.ar    1  LIG1       -0.3498
     18 H          -2.2244   -2.6697   -0.8367 H       1  LIG1        0.1661
     19 C          -3.7270    1.2822    0.8255 C.1     1  LIG1       -0.0662
     20 C          -3.8555    2.4436    1.1354 C.1     1  LIG1       -0.1138
     21 H          -3.9591    3.4638    1.4260 H       1  LIG1        0.1232
     22 N          -6.7743   -0.8499    1.9972 N.1     1  LIG1       -0.1908
     23 C          -5.7776   -0.9789    1.4112 C.1     1  LIG1        0.1026
     24 C          -4.5784   -3.6595    0.1654 C.ar    1  LIG1        0.0815
     25 C          -5.7995   -4.1578   -0.2847 C.ar    1  LIG1        0.0694
     26 C          -5.7636   -5.5841   -0.0931 C.ar    1  LIG1        0.0944
     27 C          -4.5262   -5.9145    0.4582 C.ar    1  LIG1        0.0834
     28 N          -3.8308   -4.7367    0.6021 N.ar    1  LIG1       -0.3498
     29 H          -2.9024   -4.6694    0.9916 H       1  LIG1        0.1661
     30 C          -6.8648   -3.4126   -0.8431 C.1     1  LIG1       -0.0662
     31 C          -7.7807   -2.7869   -1.3238 C.1     1  LIG1       -0.1138
     32 H          -8.5987   -2.2340   -1.7251 H       1  LIG1        0.1232
     33 N          -7.7061   -7.2035   -0.6138 N.1     1  LIG1       -0.1908
     34 C          -6.8235   -6.4825   -0.3798 C.1     1  LIG1        0.1026
     35 C          -3.9655   -7.1862    0.8759 C.ar    1  LIG1        0.0810
     36 C          -3.8476   -8.3989    0.2004 C.ar    1  LIG1        0.0687
     37 C          -3.1612   -9.3012    1.0927 C.ar    1  LIG1        0.0850
     38 C          -2.8895   -8.6113    2.2603 C.ar    1  LIG1        0.0209
     39 N          -3.3602   -7.3400    2.1133 N.ar    1  LIG1       -0.3573
     40 H          -3.4274   -6.6674    2.8626 H       1  LIG1        0.1655
     41 H          -2.4070   -8.9436    3.1663 H       1  LIG1        0.0820
     42 C          -4.2722   -8.6833   -1.1187 C.1     1  LIG1       -0.0662
     43 C          -4.6270   -8.9386   -2.2460 C.1     1  LIG1       -0.1138
     44 H          -4.9650   -9.1731   -3.2291 H       1  LIG1        0.1232
     45 N          -2.4989  -11.7502    0.6050 N.1     1  LIG1       -0.1908
     46 C          -2.8017  -10.6480    0.8224 C.1     1  LIG1        0.1019
@<TRIPOS>BOND
     1     7     1    1
     2    44    43    1
     3     6     5    1
     4     1     5   ar
     5     1     2   ar
     6    43    42    3
     7     5     4   ar
     8    32    31    1
     9    31    30    3
    10    42    36    1
    11     2     8    1
    12     2     3   ar
    13     8     9    3
    14    30    25    1
    15    18    17    1
    16     9    10    1
    17     4    13    1
    18     4     3   ar
    19    33    34    3
    20    34    26    1
    21    17    13   ar
    22    17    16   ar
    23    25    26   ar
    24    25    24   ar
    25    13    14   ar
    26     3    12    1
    27    26    27   ar
    28    24    16    1
    29    24    28   ar
    30    16    15   ar
    31    36    35   ar
    32    36    37   ar
    33    27    28   ar
    34    27    35    1
    35    14    15   ar
    36    14    19    1
    37    28    29    1
    38    45    46    3
    39    15    23    1
    40    46    37    1
    41    19    20    3
    42    35    39   ar
    43    37    38   ar
    44    20    21    1
    45    12    11    3
    46    23    22    3
    47    39    38   ar
    48    39    40    1
    49    38    41    1
