@<TRIPOS>MOLECULE
mol_data/opt/b3lyp/geoms/mol2/13ed13ed-4ed13ed.out
 48 51 0 0 0
SMALL
GASTEIGER

@<TRIPOS>ATOM
      1 C           1.4306   -0.4773   -0.1823 C.ar    1  LIG1        0.0190
      2 C           1.1170    0.8626   -0.3280 C.ar    1  LIG1        0.0600
      3 C          -0.3206    0.9477   -0.2672 C.ar    1  LIG1        0.0937
      4 C          -0.8213   -0.3496   -0.0853 C.ar    1  LIG1        0.0829
      5 N           0.2694   -1.1819   -0.0397 N.ar    1  LIG1       -0.3573
      6 H           0.1936   -2.1842    0.0857 H       1  LIG1        0.1655
      7 H           2.3939   -0.9624   -0.1723 H       1  LIG1        0.0820
      8 C           2.0224    1.9376   -0.5022 C.1     1  LIG1       -0.0669
      9 C           2.7879    2.8620   -0.6511 C.1     1  LIG1       -0.1138
     10 H           3.4582    3.6796   -0.7839 H       1  LIG1        0.1232
     11 N          -1.7387    3.0947   -0.4416 N.1     1  LIG1       -0.1908
     12 C          -1.0864    2.1307   -0.3669 C.1     1  LIG1        0.1026
     13 C          -2.1640   -0.8613    0.0423 C.ar    1  LIG1        0.0815
     14 C          -2.5943   -2.1823    0.2246 C.ar    1  LIG1        0.0693
     15 C          -4.0254   -2.1486    0.2822 C.ar    1  LIG1        0.0930
     16 C          -4.4355   -0.8161    0.1310 C.ar    1  LIG1        0.0670
     17 N          -3.2887   -0.0726   -0.0060 N.ar    1  LIG1       -0.3509
     18 H          -3.2837    0.9376   -0.0952 H       1  LIG1        0.1660
     19 C          -1.7905   -3.3410    0.3410 C.1     1  LIG1       -0.0662
     20 C          -1.1082   -4.3381    0.4398 C.1     1  LIG1       -0.1138
     21 H          -0.5442   -5.2382    0.5331 H       1  LIG1        0.1232
     22 N          -5.4927   -4.2348    0.6825 N.1     1  LIG1       -0.1908
     23 C          -4.8395   -3.2874    0.5029 C.1     1  LIG1        0.1025
     24 C          -6.1143    1.0797    0.4542 C.ar    1  LIG1        0.0345
     25 C          -7.4427    1.5213    0.3971 C.ar    1  LIG1       -0.0353
     26 C          -5.7890   -0.2581    0.0876 C.ar    1  LIG1        0.0162
     27 C          -8.5066    0.7110   -0.0232 C.ar    1  LIG1        0.0181
     28 H          -7.6437    2.5390    0.7012 H       1  LIG1        0.0637
     29 C          -6.8447   -1.0745   -0.3348 C.ar    1  LIG1       -0.0334
     30 C          -8.1676   -0.6231   -0.3913 C.ar    1  LIG1        0.0616
     31 H          -6.6483   -2.0928   -0.6442 H       1  LIG1        0.0637
     32 C          -5.1377    2.0203    0.8996 C.1     1  LIG1       -0.0690
     33 C          -4.3470    2.8618    1.2636 C.1     1  LIG1       -0.1139
     34 H          -3.6186    3.5922    1.5345 H       1  LIG1        0.1232
     35 N          -9.9645   -2.3121   -1.2025 N.1     1  LIG1       -0.1908
     36 C          -9.1471   -1.5597   -0.8520 C.1     1  LIG1        0.0998
     37 C          -9.8606    1.2620   -0.0573 C.ar    1  LIG1        0.0646
     38 C         -10.2969    2.5991   -0.0521 C.ar    1  LIG1        0.0673
     39 C         -11.7344    2.5722   -0.0822 C.ar    1  LIG1        0.0850
     40 C         -12.1229    1.2438   -0.1066 C.ar    1  LIG1        0.0209
     41 N         -11.0023    0.4806   -0.0910 N.ar    1  LIG1       -0.3585
     42 H         -11.0067   -0.5291   -0.1397 H       1  LIG1        0.1654
     43 H         -13.1097    0.8086   -0.1344 H       1  LIG1        0.0820
     44 C          -9.5329    3.7905   -0.0568 C.1     1  LIG1       -0.0662
     45 C          -8.9309    4.8408   -0.0653 C.1     1  LIG1       -0.1138
     46 H          -8.4035    5.7668   -0.0820 H       1  LIG1        0.1232
     47 N         -13.3131    4.6163   -0.0979 N.1     1  LIG1       -0.1908
     48 C         -12.6001    3.6966   -0.0913 C.1     1  LIG1        0.1019
@<TRIPOS>BOND
     1    35    36    3
     2    36    30    1
     3    10     9    1
     4     9     8    3
     5    31    29    1
     6     8     2    1
     7    11    12    3
     8    30    29   ar
     9    30    27   ar
    10    12     3    1
    11    29    26   ar
    12     2     3   ar
    13     2     1   ar
    14     3     4   ar
    15     1     7    1
    16     1     5   ar
    17    42    41    1
    18    43    40    1
    19    40    41   ar
    20    40    39   ar
    21    47    48    3
    22    18    17    1
    23    48    39    1
    24    41    37   ar
    25     4     5   ar
    26     4    13    1
    27    39    38   ar
    28    46    45    1
    29    45    44    3
    30    37    38   ar
    31    37    27    1
    32    44    38    1
    33     5     6    1
    34    27    25   ar
    35    17    13   ar
    36    17    16   ar
    37    13    14   ar
    38    26    16    1
    39    26    24   ar
    40    16    15   ar
    41    14    15   ar
    42    14    19    1
    43    15    23    1
    44    19    20    3
    45    25    24   ar
    46    25    28    1
    47    20    21    1
    48    24    32    1
    49    23    22    3
    50    32    33    3
    51    33    34    1
