@<TRIPOS>MOLECULE
mol_data/opt/b3lyp/geoms/mol2/13ee13ee13ee13ee.out
 50 53 0 0 0
SMALL
GASTEIGER

@<TRIPOS>ATOM
      1 C           0.2471    0.1793   -2.4860 C.ar    1  LIG1        0.0189
      2 C           0.6192    0.9008   -1.3657 C.ar    1  LIG1        0.0580
      3 C          -0.4273    0.7243   -0.3822 C.ar    1  LIG1        0.0667
      4 C          -1.3966   -0.0963   -0.9570 C.ar    1  LIG1        0.0809
      5 N          -0.9504   -0.4287   -2.2247 N.ar    1  LIG1       -0.3574
      6 H          -1.5223   -0.8885   -2.9164 H       1  LIG1        0.1654
      7 H           0.7501    0.0650   -3.4336 H       1  LIG1        0.0820
      8 C           1.8108    1.6526   -1.2093 C.1     1  LIG1       -0.0669
      9 C           2.8276    2.2945   -1.0755 C.1     1  LIG1       -0.1138
     10 H           3.7197    2.8633   -0.9530 H       1  LIG1        0.1232
     11 C          -0.4269    1.2396    0.9362 C.1     1  LIG1       -0.0663
     12 C          -0.4071    1.6755    2.0645 C.1     1  LIG1       -0.1138
     13 H          -0.4024    2.0679    3.0545 H       1  LIG1        0.1232
     14 C          -2.6413   -0.6311   -0.4360 C.ar    1  LIG1        0.0814
     15 C          -3.7395   -0.0133    0.1633 C.ar    1  LIG1        0.0674
     16 C          -4.7149   -1.0407    0.4382 C.ar    1  LIG1        0.0674
     17 C          -4.1867   -2.2491   -0.0161 C.ar    1  LIG1        0.0814
     18 N          -2.9369   -1.9752   -0.5330 N.ar    1  LIG1       -0.3499
     19 H          -2.3243   -2.6640   -0.9421 H       1  LIG1        0.1661
     20 C          -3.8944    1.3698    0.4216 C.1     1  LIG1       -0.0662
     21 C          -4.0452    2.5505    0.6370 C.1     1  LIG1       -0.1138
     22 H          -4.1669    3.5909    0.8292 H       1  LIG1        0.1232
     23 C          -5.9597   -0.8539    1.0859 C.1     1  LIG1       -0.0662
     24 C          -7.0150   -0.6826    1.6518 C.1     1  LIG1       -0.1138
     25 H          -7.9504   -0.5374    2.1399 H       1  LIG1        0.1232
     26 C          -4.7008   -3.6059    0.0335 C.ar    1  LIG1        0.0814
     27 C          -5.9020   -4.1588   -0.4104 C.ar    1  LIG1        0.0674
     28 C          -5.8501   -5.5757   -0.1415 C.ar    1  LIG1        0.0674
     29 C          -4.6121   -5.8434    0.4438 C.ar    1  LIG1        0.0814
     30 N          -3.9414   -4.6416    0.5386 N.ar    1  LIG1       -0.3499
     31 H          -3.0220   -4.5336    0.9387 H       1  LIG1        0.1661
     32 C          -6.9644   -3.4709   -1.0447 C.1     1  LIG1       -0.0662
     33 C          -7.8739   -2.8974   -1.5989 C.1     1  LIG1       -0.1138
     34 H          -8.6755   -2.3841   -2.0765 H       1  LIG1        0.1232
     35 C          -6.8855   -6.5075   -0.3927 C.1     1  LIG1       -0.0662
     36 C          -7.7834   -7.2907   -0.6018 C.1     1  LIG1       -0.1138
     37 H          -8.5663   -7.9881   -0.7885 H       1  LIG1        0.1232
     38 C          -4.0296   -7.0710    0.9544 C.ar    1  LIG1        0.0809
     39 C          -3.8534   -8.3255    0.3728 C.ar    1  LIG1        0.0667
     40 C          -3.1771   -9.1552    1.3462 C.ar    1  LIG1        0.0580
     41 C          -2.9660   -8.3727    2.4675 C.ar    1  LIG1        0.0189
     42 N          -3.4623   -7.1227    2.2161 N.ar    1  LIG1       -0.3574
     43 H          -3.5791   -6.4022    2.9119 H       1  LIG1        0.1654
     44 H          -2.5041   -8.6242    3.4095 H       1  LIG1        0.0820
     45 C          -4.2080   -8.7063   -0.9437 C.1     1  LIG1       -0.0663
     46 C          -4.4935   -9.0414   -2.0705 C.1     1  LIG1       -0.1138
     47 H          -4.7596   -9.3341   -3.0592 H       1  LIG1        0.1232
     48 C          -2.7849  -10.5074    1.1806 C.1     1  LIG1       -0.0669
     49 C          -2.4505  -11.6614    1.0389 C.1     1  LIG1       -0.1138
     50 H          -2.1606  -12.6781    0.9095 H       1  LIG1        0.1232
@<TRIPOS>BOND
     1     7     1    1
     2    47    46    1
     3     6     5    1
     4     1     5   ar
     5     1     2   ar
     6     5     4   ar
     7    34    33    1
     8    46    45    3
     9    33    32    3
    10     2     8    1
    11     2     3   ar
    12     8     9    3
    13     9    10    1
    14    32    27    1
    15     4    14    1
    16     4     3   ar
    17    45    39    1
    18    19    18    1
    19    37    36    1
    20    36    35    3
    21    18    14   ar
    22    18    17   ar
    23    14    15   ar
    24    27    28   ar
    25    27    26   ar
    26    35    28    1
    27     3    11    1
    28    28    29   ar
    29    17    26    1
    30    17    16   ar
    31    26    30   ar
    32    15    20    1
    33    15    16   ar
    34    39    38   ar
    35    39    40   ar
    36    20    21    3
    37    16    23    1
    38    29    30   ar
    39    29    38    1
    40    30    31    1
    41    21    22    1
    42    50    49    1
    43    11    12    3
    44    38    42   ar
    45    49    48    3
    46    23    24    3
    47    48    40    1
    48    40    41   ar
    49    24    25    1
    50    12    13    1
    51    42    41   ar
    52    42    43    1
    53    41    44    1
