@<TRIPOS>MOLECULE
mol_data/opt/b3lyp/geoms/mol2/13ee13ee-.out
 26 27 0 0 0
SMALL
GASTEIGER

@<TRIPOS>ATOM
      1 C           1.1943   -0.2941   -0.0004 C.ar    1  LIG1        0.0189
      2 C           0.8073    1.0356   -0.0002 C.ar    1  LIG1        0.0580
      3 C          -0.6371    1.0465    0.0003 C.ar    1  LIG1        0.0667
      4 C          -1.0595   -0.2899    0.0004 C.ar    1  LIG1        0.0809
      5 N           0.0713   -1.0710   -0.0000 N.ar    1  LIG1       -0.3574
      6 H           0.0408   -2.0826   -0.0001 H       1  LIG1        0.1654
      7 H           2.1835   -0.7243   -0.0008 H       1  LIG1        0.0820
      8 C           1.6634    2.1646   -0.0004 C.1     1  LIG1       -0.0669
      9 C           2.3917    3.1310   -0.0007 C.1     1  LIG1       -0.1138
     10 H           3.0309    3.9829   -0.0009 H       1  LIG1        0.1232
     11 C          -1.4681    2.1916    0.0007 C.1     1  LIG1       -0.0663
     12 C          -2.1924    3.1649    0.0010 C.1     1  LIG1       -0.1138
     13 H          -2.7918    4.0458    0.0013 H       1  LIG1        0.1232
     14 C          -2.3824   -0.8623    0.0009 C.ar    1  LIG1        0.0809
     15 C          -2.8048   -2.1988    0.0009 C.ar    1  LIG1        0.0667
     16 C          -4.2492   -2.1878    0.0014 C.ar    1  LIG1        0.0580
     17 C          -4.6363   -0.8581    0.0017 C.ar    1  LIG1        0.0189
     18 N          -3.5132   -0.0813    0.0014 N.ar    1  LIG1       -0.3574
     19 H          -3.4827    0.9304    0.0015 H       1  LIG1        0.1654
     20 H          -5.6254   -0.4279    0.0022 H       1  LIG1        0.0820
     21 C          -1.9739   -3.3439    0.0004 C.1     1  LIG1       -0.0663
     22 C          -1.2495   -4.3172    0.0000 C.1     1  LIG1       -0.1138
     23 H          -0.6500   -5.1980   -0.0003 H       1  LIG1        0.1232
     24 C          -5.1053   -3.3169    0.0016 C.1     1  LIG1       -0.0669
     25 C          -5.8336   -4.2833    0.0018 C.1     1  LIG1       -0.1138
     26 H          -6.4727   -5.1353    0.0019 H       1  LIG1        0.1232
@<TRIPOS>BOND
     1    10     9    1
     2     7     1    1
     3     9     8    3
     4     8     2    1
     5     1     2   ar
     6     1     5   ar
     7    23    22    1
     8     2     3   ar
     9     6     5    1
    10     5     4   ar
    11    22    21    3
    12     3     4   ar
    13     3    11    1
    14     4    14    1
    15    21    15    1
    16    11    12    3
    17    14    15   ar
    18    14    18   ar
    19    15    16   ar
    20    12    13    1
    21    18    19    1
    22    18    17   ar
    23    16    24    1
    24    16    17   ar
    25    24    25    3
    26    17    20    1
    27    25    26    1
