@<TRIPOS>MOLECULE
mol_data/opt/b3lyp/geoms/mol2/13ee13ee-13ee13ee-.out
 50 53 0 0 0
SMALL
GASTEIGER

@<TRIPOS>ATOM
      1 C           1.3327   -0.2711   -0.0460 C.ar    1  LIG1        0.0189
      2 C           0.9339    0.9987   -0.4303 C.ar    1  LIG1        0.0580
      3 C          -0.5097    1.0014   -0.4192 C.ar    1  LIG1        0.0667
      4 C          -0.9212   -0.2780   -0.0194 C.ar    1  LIG1        0.0809
      5 N           0.2181   -1.0194    0.1962 N.ar    1  LIG1       -0.3574
      6 H           0.1993   -1.9922    0.4736 H       1  LIG1        0.1654
      7 H           2.3258   -0.6769    0.0672 H       1  LIG1        0.0820
      8 C           1.7811    2.0814   -0.7735 C.1     1  LIG1       -0.0669
      9 C           2.5027    3.0075   -1.0667 C.1     1  LIG1       -0.1138
     10 H           3.1352    3.8242   -1.3259 H       1  LIG1        0.1232
     11 C          -1.3489    2.0785   -0.7857 C.1     1  LIG1       -0.0663
     12 C          -2.0740    2.9943   -1.1113 C.1     1  LIG1       -0.1138
     13 H          -2.7056    3.7920   -1.4261 H       1  LIG1        0.1232
     14 C          -2.2354   -0.8375    0.1662 C.ar    1  LIG1        0.0814
     15 C          -2.6296   -2.1615    0.4130 C.ar    1  LIG1        0.0674
     16 C          -4.0642   -2.1685    0.5032 C.ar    1  LIG1        0.0674
     17 C          -4.4963   -0.8485    0.3115 C.ar    1  LIG1        0.0814
     18 N          -3.3757   -0.0772    0.1140 N.ar    1  LIG1       -0.3499
     19 H          -3.3845    0.9244   -0.0443 H       1  LIG1        0.1661
     20 C          -1.7823   -3.2852    0.5560 C.1     1  LIG1       -0.0662
     21 C          -1.0493   -4.2432    0.6855 C.1     1  LIG1       -0.1138
     22 H          -0.4375   -5.1089    0.7924 H       1  LIG1        0.1232
     23 C          -4.8781   -3.2903    0.7820 C.1     1  LIG1       -0.0662
     24 C          -5.5789   -4.2482    1.0277 C.1     1  LIG1       -0.1138
     25 H          -6.1969   -5.0799    1.2742 H       1  LIG1        0.1232
     26 C          -5.8247   -0.2924    0.3132 C.ar    1  LIG1        0.0814
     27 C          -6.2562    1.0281    0.5039 C.ar    1  LIG1        0.0674
     28 C          -7.6911    1.0209    0.4183 C.ar    1  LIG1        0.0674
     29 C          -8.0861   -0.3035    0.1752 C.ar    1  LIG1        0.0814
     30 N          -6.9460   -1.0640    0.1207 N.ar    1  LIG1       -0.3499
     31 H          -6.9377   -2.0658   -0.0356 H       1  LIG1        0.1661
     32 C          -5.4414    2.1503    0.7782 C.1     1  LIG1       -0.0662
     33 C          -4.7397    3.1086    1.0199 C.1     1  LIG1       -0.1138
     34 H          -4.1209    3.9407    1.2631 H       1  LIG1        0.1232
     35 C          -8.5379    2.1449    0.5622 C.1     1  LIG1       -0.0662
     36 C          -9.2704    3.1031    0.6923 C.1     1  LIG1       -0.1138
     37 H          -9.8819    3.9691    0.7996 H       1  LIG1        0.1232
     38 C          -9.4009   -0.8633   -0.0050 C.ar    1  LIG1        0.0809
     39 C          -9.8138   -2.1435   -0.4012 C.ar    1  LIG1        0.0667
     40 C         -11.2574   -2.1407   -0.4075 C.ar    1  LIG1        0.0580
     41 C         -11.6549   -0.8702   -0.0240 C.ar    1  LIG1        0.0189
     42 N         -10.5395   -0.1215    0.2131 N.ar    1  LIG1       -0.3574
     43 H         -10.5198    0.8517    0.4889 H       1  LIG1        0.1654
     44 H         -12.6476   -0.4642    0.0917 H       1  LIG1        0.0820
     45 C          -8.9758   -3.2212   -0.7685 C.1     1  LIG1       -0.0663
     46 C          -8.2518   -4.1376   -1.0948 C.1     1  LIG1       -0.1138
     47 H          -7.6214   -4.9360   -1.4103 H       1  LIG1        0.1232
     48 C         -12.1057   -3.2240   -0.7460 C.1     1  LIG1       -0.0669
     49 C         -12.8284   -4.1506   -1.0352 C.1     1  LIG1       -0.1138
     50 H         -13.4618   -4.9677   -1.2909 H       1  LIG1        0.1232
@<TRIPOS>BOND
     1    13    12    1
     2    47    46    1
     3    10     9    1
     4    50    49    1
     5    12    11    3
     6    46    45    3
     7     9     8    3
     8    49    48    3
     9    11     3    1
    10     8     2    1
    11    45    39    1
    12    48    40    1
    13     2     3   ar
    14     2     1   ar
    15     3     4   ar
    16    40    39   ar
    17    40    41   ar
    18    39    38   ar
    19     1     7    1
    20     1     5   ar
    21    19    18    1
    22    31    30    1
    23    41    44    1
    24    41    42   ar
    25     4    14    1
    26     4     5   ar
    27    38    29    1
    28    38    42   ar
    29    18    14   ar
    30    18    17   ar
    31    30    29   ar
    32    30    26   ar
    33    14    15   ar
    34    29    28   ar
    35     5     6    1
    36    42    43    1
    37    17    26    1
    38    17    16   ar
    39    26    27   ar
    40    15    16   ar
    41    15    20    1
    42    28    27   ar
    43    28    35    1
    44    16    23    1
    45    27    32    1
    46    20    21    3
    47    35    36    3
    48    21    22    1
    49    36    37    1
    50    32    33    3
    51    23    24    3
    52    33    34    1
    53    24    25    1
