@<TRIPOS>MOLECULE
mol_data/opt/b3lyp/geoms/mol2/13ee13ee-13ee-13ee-.out
 50 53 0 0 0
SMALL
GASTEIGER

@<TRIPOS>ATOM
      1 C           1.1895   -0.1175   -0.5580 C.ar    1  LIG1        0.0189
      2 C           0.6718    1.1035   -0.9585 C.ar    1  LIG1        0.0580
      3 C          -0.7616    1.0138   -0.8103 C.ar    1  LIG1        0.0667
      4 C          -1.0460   -0.2694   -0.3217 C.ar    1  LIG1        0.0809
      5 N           0.1545   -0.9241   -0.1819 N.ar    1  LIG1       -0.3574
      6 H           0.2266   -1.8750    0.1572 H       1  LIG1        0.1654
      7 H           2.2143   -0.4521   -0.5200 H       1  LIG1        0.0820
      8 C           1.4076    2.2215   -1.4235 C.1     1  LIG1       -0.0669
      9 C           2.0329    3.1784   -1.8204 C.1     1  LIG1       -0.1138
     10 H           2.5811    4.0214   -2.1716 H       1  LIG1        0.1232
     11 C          -1.7031    2.0266   -1.1105 C.1     1  LIG1       -0.0663
     12 C          -2.5224    2.8844   -1.3663 C.1     1  LIG1       -0.1138
     13 H          -3.2080    3.6612   -1.6166 H       1  LIG1        0.1232
     14 C          -2.3014   -0.8928    0.0074 C.ar    1  LIG1        0.0814
     15 C          -2.5941   -2.1747    0.4912 C.ar    1  LIG1        0.0674
     16 C          -4.0261   -2.2664    0.6304 C.ar    1  LIG1        0.0674
     17 C          -4.5565   -1.0432    0.2151 C.ar    1  LIG1        0.0814
     18 N          -3.4962   -0.2334   -0.1366 N.ar    1  LIG1       -0.3499
     19 H          -3.5707    0.6693   -0.5901 H       1  LIG1        0.1661
     20 C          -1.6566   -3.1858    0.8091 C.1     1  LIG1       -0.0662
     21 C          -0.8419   -4.0439    1.0767 C.1     1  LIG1       -0.1138
     22 H          -0.1603   -4.8247    1.3241 H       1  LIG1        0.1232
     23 C          -4.7332   -3.3685    1.1658 C.1     1  LIG1       -0.0662
     24 C          -5.3167   -4.3149    1.6429 C.1     1  LIG1       -0.1138
     25 H          -5.8452   -5.1445    2.0509 H       1  LIG1        0.1232
     26 C          -5.9136   -0.5380    0.1802 C.ar    1  LIG1        0.0814
     27 C          -7.1059   -1.0840   -0.2992 C.ar    1  LIG1        0.0674
     28 C          -8.1379   -0.0922   -0.1147 C.ar    1  LIG1        0.0674
     29 C          -7.5388    1.0330    0.4528 C.ar    1  LIG1        0.0814
     30 N          -6.2025    0.7369    0.6229 N.ar    1  LIG1       -0.3499
     31 H          -5.5216    1.3767    1.0029 H       1  LIG1        0.1661
     32 C          -7.2773   -2.3505   -0.9068 C.1     1  LIG1       -0.0662
     33 C          -7.4400   -3.4221   -1.4440 C.1     1  LIG1       -0.1138
     34 H          -7.5745   -4.3690   -1.9123 H       1  LIG1        0.1232
     35 C          -9.5103   -0.2566   -0.4190 C.1     1  LIG1       -0.0662
     36 C         -10.6825   -0.4158   -0.6716 C.1     1  LIG1       -0.1138
     37 H         -11.7150   -0.5442   -0.8986 H       1  LIG1        0.1232
     38 C          -8.0860    2.3033    0.8913 C.ar    1  LIG1        0.0809
     39 C          -8.8916    3.2406    0.2459 C.ar    1  LIG1        0.0667
     40 C          -9.0912    4.3375    1.1681 C.ar    1  LIG1        0.0580
     41 C          -8.3971    4.0261    2.3237 C.ar    1  LIG1        0.0189
     42 N          -7.7839    2.8168    2.1410 N.ar    1  LIG1       -0.3574
     43 H          -7.3404    2.2829    2.8724 H       1  LIG1        0.1654
     44 H          -8.3053    4.5789    3.2457 H       1  LIG1        0.0820
     45 C          -9.3726    3.1727   -1.0836 C.1     1  LIG1       -0.0663
     46 C          -9.7785    3.1348   -2.2225 C.1     1  LIG1       -0.1138
     47 H         -10.1412    3.0880   -3.2227 H       1  LIG1        0.1232
     48 C          -9.8380    5.5188    0.9307 C.1     1  LIG1       -0.0669
     49 C         -10.4757    6.5269    0.7278 C.1     1  LIG1       -0.1138
     50 H         -11.0403    7.4110    0.5440 H       1  LIG1        0.1232
@<TRIPOS>BOND
     1    47    46    1
     2    46    45    3
     3    10     9    1
     4    34    33    1
     5     9     8    3
     6    13    12    1
     7    33    32    3
     8     8     2    1
     9    12    11    3
    10    11     3    1
    11    45    39    1
    12     2     3   ar
    13     2     1   ar
    14    32    27    1
    15    37    36    1
    16     3     4   ar
    17    36    35    3
    18    19    18    1
    19     1     7    1
    20     1     5   ar
    21    35    28    1
    22     4     5   ar
    23     4    14    1
    24    27    28   ar
    25    27    26   ar
    26     5     6    1
    27    18    14   ar
    28    18    17   ar
    29    28    29   ar
    30    14    15   ar
    31    26    17    1
    32    26    30   ar
    33    17    16   ar
    34    39    38   ar
    35    39    40   ar
    36    29    30   ar
    37    29    38    1
    38    15    16   ar
    39    15    20    1
    40    50    49    1
    41    30    31    1
    42    16    23    1
    43    49    48    3
    44    20    21    3
    45    38    42   ar
    46    48    40    1
    47    21    22    1
    48    23    24    3
    49    40    41   ar
    50    24    25    1
    51    42    41   ar
    52    42    43    1
    53    41    44    1
