@<TRIPOS>MOLECULE
mol_data/opt/b3lyp/geoms/mol2/13ee13ee13ee13ee-.out
 50 53 0 0 0
SMALL
GASTEIGER

@<TRIPOS>ATOM
      1 C           0.3358    0.3577   -2.3566 C.ar    1  LIG1        0.0189
      2 C           0.6220    1.0727   -1.2072 C.ar    1  LIG1        0.0580
      3 C          -0.4614    0.8327   -0.2786 C.ar    1  LIG1        0.0667
      4 C          -1.3659   -0.0168   -0.9141 C.ar    1  LIG1        0.0809
      5 N          -0.8453   -0.3056   -2.1641 N.ar    1  LIG1       -0.3574
      6 H          -1.3630   -0.7763   -2.8901 H       1  LIG1        0.1654
      7 H           0.8880    0.2831   -3.2804 H       1  LIG1        0.0820
      8 C           1.7712    1.8711   -0.9803 C.1     1  LIG1       -0.0669
      9 C           2.7519    2.5526   -0.7864 C.1     1  LIG1       -0.1138
     10 H           3.6123    3.1552   -0.6102 H       1  LIG1        0.1232
     11 C          -0.5441    1.3197    1.0478 C.1     1  LIG1       -0.0663
     12 C          -0.5944    1.7316    2.1842 C.1     1  LIG1       -0.1138
     13 H          -0.6525    2.0990    3.1821 H       1  LIG1        0.1232
     14 C          -2.6097   -0.6150   -0.4662 C.ar    1  LIG1        0.0814
     15 C          -3.7570   -0.0610    0.1029 C.ar    1  LIG1        0.0674
     16 C          -4.7029   -1.1333    0.2986 C.ar    1  LIG1        0.0674
     17 C          -4.1083   -2.3041   -0.1760 C.ar    1  LIG1        0.0814
     18 N          -2.8491   -1.9638   -0.6266 N.ar    1  LIG1       -0.3499
     19 H          -2.1822   -2.6191   -1.0050 H       1  LIG1        0.1661
     20 C          -3.9788    1.3051    0.3992 C.1     1  LIG1       -0.0662
     21 C          -4.1871    2.4710    0.6452 C.1     1  LIG1       -0.1138
     22 H          -4.3587    3.4986    0.8661 H       1  LIG1        0.1232
     23 C          -5.9728   -1.0124    0.9110 C.1     1  LIG1       -0.0662
     24 C          -7.0481   -0.8924    1.4521 C.1     1  LIG1       -0.1138
     25 H          -7.9977   -0.7956    1.9241 H       1  LIG1        0.1232
     26 C          -4.5551   -3.6818   -0.1998 C.ar    1  LIG1        0.0814
     27 C          -5.7563   -4.2666   -0.6065 C.ar    1  LIG1        0.0674
     28 C          -5.6029   -5.6925   -0.4584 C.ar    1  LIG1        0.0674
     29 C          -4.3078   -5.9270    0.0220 C.ar    1  LIG1        0.0814
     30 N          -3.6995   -4.7042    0.1555 N.ar    1  LIG1       -0.3499
     31 H          -2.7990   -4.5882    0.6048 H       1  LIG1        0.1661
     32 C          -6.8895   -3.6107   -1.1419 C.1     1  LIG1       -0.0662
     33 C          -7.8617   -3.0712   -1.6187 C.1     1  LIG1       -0.1138
     34 H          -8.7147   -2.5810   -2.0266 H       1  LIG1        0.1232
     35 C          -6.5742   -6.6745   -0.7659 C.1     1  LIG1       -0.0662
     36 C          -7.3978   -7.5268   -1.0245 C.1     1  LIG1       -0.1138
     37 H          -8.1502   -8.2426   -1.2633 H       1  LIG1        0.1232
     38 C          -3.6301   -7.1524    0.3568 C.ar    1  LIG1        0.0809
     39 C          -2.3342   -7.3785    0.8422 C.ar    1  LIG1        0.0667
     40 C          -2.1828   -8.8057    0.9995 C.ar    1  LIG1        0.0580
     41 C          -3.3820   -9.3778    0.6071 C.ar    1  LIG1        0.0189
     42 N          -4.2335   -8.3807    0.2275 N.ar    1  LIG1       -0.3574
     43 H          -5.1817   -8.4955   -0.1074 H       1  LIG1        0.1654
     44 H          -3.6728  -10.4161    0.5771 H       1  LIG1        0.0820
     45 C          -1.3615   -6.3927    1.1323 C.1     1  LIG1       -0.0663
     46 C          -0.5385   -5.5357    1.3791 C.1     1  LIG1       -0.1138
     47 H           0.2091   -4.8158    1.6219 H       1  LIG1        0.1232
     48 C          -1.0327   -9.4900    1.4648 C.1     1  LIG1       -0.0669
     49 C          -0.0486  -10.0712    1.8620 C.1     1  LIG1       -0.1138
     50 H           0.8186  -10.5808    2.2124 H       1  LIG1        0.1232
@<TRIPOS>BOND
     1     7     1    1
     2     6     5    1
     3     1     5   ar
     4     1     2   ar
     5     5     4   ar
     6    34    33    1
     7    33    32    3
     8    37    36    1
     9     2     8    1
    10     2     3   ar
    11    32    27    1
    12    36    35    3
    13    19    18    1
    14     8     9    3
    15     4    14    1
    16     4     3   ar
    17     9    10    1
    18    35    28    1
    19    18    14   ar
    20    18    17   ar
    21    27    28   ar
    22    27    26   ar
    23    14    15   ar
    24    28    29   ar
    25     3    11    1
    26    26    17    1
    27    26    30   ar
    28    17    16   ar
    29    43    42    1
    30    29    30   ar
    31    29    38    1
    32    15    16   ar
    33    15    20    1
    34    30    31    1
    35    42    38   ar
    36    42    41   ar
    37    16    23    1
    38    38    39   ar
    39    20    21    3
    40    44    41    1
    41    41    40   ar
    42    21    22    1
    43    39    40   ar
    44    39    45    1
    45    23    24    3
    46    40    48    1
    47    11    12    3
    48    45    46    3
    49    46    47    1
    50    24    25    1
    51    48    49    3
    52    49    50    1
    53    12    13    1
