@<TRIPOS>MOLECULE
mol_data/opt/b3lyp/geoms/mol2/13ee4eh12de-12fh-.out
 54 57 0 0 0
SMALL
GASTEIGER

@<TRIPOS>ATOM
      1 C           1.1967   -0.1520   -0.6695 C.ar    1  LIG1        0.0190
      2 C           0.9378    1.1201   -0.1952 C.ar    1  LIG1        0.0600
      3 C          -0.4727    1.1688    0.1180 C.ar    1  LIG1        0.0954
      4 C          -1.0131   -0.0834   -0.1933 C.ar    1  LIG1        0.1046
      5 N           0.0235   -0.8577   -0.6609 N.ar    1  LIG1       -0.3560
      6 H          -0.0972   -1.8074   -0.9761 H       1  LIG1        0.1655
      7 H           2.1235   -0.5903   -1.0042 H       1  LIG1        0.0820
      8 C           1.8768    2.1688   -0.0331 C.1     1  LIG1       -0.0669
      9 C           2.6736    3.0680    0.1072 C.1     1  LIG1       -0.1138
     10 H           3.3665    3.8668    0.2353 H       1  LIG1        0.1232
     11 N          -1.6397    3.2025    1.1964 N.1     1  LIG1       -0.1908
     12 C          -1.1352    2.2780    0.6997 C.1     1  LIG1        0.1026
     13 C          -2.3376   -0.6314   -0.1087 C.ar    1  LIG1        0.1955
     14 C          -3.6106   -0.1221   -0.0747 C.ar    1  LIG1        0.1826
     15 C          -4.5146   -1.2432   -0.0625 C.ar    1  LIG1        0.1396
     16 C          -3.7352   -2.3944   -0.1019 C.ar    1  LIG1        0.1604
     17 O          -2.4266   -2.0149   -0.1334 O.2     1  LIG1       -0.4481
     18 O          -3.9386    1.1799   -0.0851 O.3     1  LIG1       -0.5023
     19 H          -4.8985    1.2761    0.0124 H       1  LIG1        0.2923
     20 N          -7.0108   -0.6504    0.1276 N.1     1  LIG1       -0.1906
     21 C          -5.9105   -1.0245    0.0332 C.1     1  LIG1        0.1067
     22 C          -5.2173   -4.3974   -0.4009 C.ar    1  LIG1        0.1316
     23 C          -5.3847   -5.7807   -0.3403 C.ar    1  LIG1       -0.0079
     24 C          -3.9722   -3.8266   -0.0629 C.ar    1  LIG1        0.0638
     25 C          -4.3512   -6.6420    0.0448 C.ar    1  LIG1        0.0308
     26 H          -6.3406   -6.2157   -0.5964 H       1  LIG1        0.0661
     27 C          -2.9250   -4.6893    0.3181 C.ar    1  LIG1       -0.0051
     28 C          -3.0991   -6.0682    0.3775 C.ar    1  LIG1        0.1288
     29 H          -1.9788   -4.2461    0.5949 H       1  LIG1        0.0662
     30 O          -6.1865   -3.5329   -0.7998 O.3     1  LIG1       -0.4944
     31 C          -7.5191   -4.0008   -0.9714 C.3     1  LIG1        0.0788
     32 H          -8.1215   -3.1073   -1.1354 H       1  LIG1        0.0660
     33 H          -7.5981   -4.6670   -1.8391 H       1  LIG1        0.0660
     34 H          -7.8748   -4.5231   -0.0761 H       1  LIG1        0.0660
     35 O          -2.1135   -6.9321    0.7723 O.3     1  LIG1       -0.4945
     36 C          -0.8793   -6.3951    1.2167 C.3     1  LIG1        0.0788
     37 H          -0.2717   -7.2500    1.5165 H       1  LIG1        0.0660
     38 H          -0.3603   -5.8486    0.4180 H       1  LIG1        0.0660
     39 H          -1.0139   -5.7279    2.0776 H       1  LIG1        0.0660
     40 C          -5.7115   -8.6643    0.7164 C.ar    1  LIG1        0.1247
     41 C          -5.9095  -10.0474    0.7188 C.ar    1  LIG1       -0.0193
     42 C          -4.5799   -8.1112    0.0816 C.ar    1  LIG1        0.0274
     43 C          -5.0012  -10.8939    0.0900 C.ar    1  LIG1       -0.0554
     44 H          -6.7809  -10.4611    1.2229 H       1  LIG1        0.0654
     45 C          -3.6848   -8.9960   -0.5391 C.ar    1  LIG1       -0.0475
     46 C          -3.8717  -10.3806   -0.5570 C.ar    1  LIG1       -0.0496
     47 H          -2.8094   -8.5767   -1.0234 H       1  LIG1        0.0627
     48 H          -5.1759  -11.9666    0.1057 H       1  LIG1        0.0621
     49 O          -6.5941   -7.8182    1.3367 O.3     1  LIG1       -0.5062
     50 H          -7.2723   -8.3482    1.7758 H       1  LIG1        0.2922
     51 C          -2.9000  -11.2886   -1.2746 C.3     1  LIG1       -0.0397
     52 H          -1.8977  -10.8516   -1.3106 H       1  LIG1        0.0278
     53 H          -3.2117  -11.4737   -2.3103 H       1  LIG1        0.0278
     54 H          -2.8236  -12.2626   -0.7814 H       1  LIG1        0.0278
@<TRIPOS>BOND
     1    53    51    1
     2    33    31    1
     3    52    51    1
     4    51    54    1
     5    51    46    1
     6    32    31    1
     7    47    45    1
     8     7     1    1
     9     6     5    1
    10    31    30    1
    11    31    34    1
    12    30    22    1
    13     1     5   ar
    14     1     2   ar
    15     5     4   ar
    16    26    23    1
    17    46    45   ar
    18    46    43   ar
    19    45    42   ar
    20    22    23   ar
    21    22    24   ar
    22    23    25   ar
    23     2     8    1
    24     2     3   ar
    25     4    13    1
    26     4     3   ar
    27    17    13   ar
    28    17    16   ar
    29    13    14   ar
    30    16    24    1
    31    16    15   ar
    32    18    14    1
    33    18    19    1
    34    14    15   ar
    35    24    27   ar
    36    15    21    1
    37     8     9    3
    38    21    20    3
    39    25    42    1
    40    25    28   ar
    41    42    40   ar
    42    43    48    1
    43    43    41   ar
    44     9    10    1
    45     3    12    1
    46    27    28   ar
    47    27    29    1
    48    28    35    1
    49    38    36    1
    50    12    11    3
    51    40    41   ar
    52    40    49    1
    53    41    44    1
    54    35    36    1
    55    36    37    1
    56    36    39    1
    57    49    50    1
