@<TRIPOS>MOLECULE
mol_data/opt/b3lyp/geoms/mol2/13ee13ee13ee-13ee-.out
 50 53 0 0 0
SMALL
GASTEIGER

@<TRIPOS>ATOM
      1 C           1.1249   -0.0588   -0.9817 C.ar    1  LIG1        0.0189
      2 C           0.8670    1.0997   -0.2704 C.ar    1  LIG1        0.0580
      3 C          -0.5326    1.0705    0.0939 C.ar    1  LIG1        0.0667
      4 C          -1.0666   -0.1094   -0.4261 C.ar    1  LIG1        0.0809
      5 N          -0.0331   -0.7824   -1.0539 N.ar    1  LIG1       -0.3574
      6 H          -0.1640   -1.6041   -1.6234 H       1  LIG1        0.1654
      7 H           2.0421   -0.4035   -1.4334 H       1  LIG1        0.0820
      8 C           1.8059    2.1108    0.0544 C.1     1  LIG1       -0.0669
      9 C           2.6072    2.9741    0.3310 C.1     1  LIG1       -0.1138
     10 H           3.3076    3.7379    0.5766 H       1  LIG1        0.1232
     11 C          -1.1994    2.0279    0.8945 C.1     1  LIG1       -0.0663
     12 C          -1.7478    2.8486    1.5941 C.1     1  LIG1       -0.1138
     13 H          -2.2401    3.5692    2.2043 H       1  LIG1        0.1232
     14 C          -2.3919   -0.6896   -0.3586 C.ar    1  LIG1        0.0814
     15 C          -3.6607   -0.1440   -0.5683 C.ar    1  LIG1        0.0674
     16 C          -4.6118   -1.2158   -0.4131 C.ar    1  LIG1        0.0674
     17 C          -3.8874   -2.3809   -0.1255 C.ar    1  LIG1        0.0814
     18 N          -2.5588   -2.0360   -0.1114 N.ar    1  LIG1       -0.3499
     19 H          -1.8300   -2.6731    0.1862 H       1  LIG1        0.1661
     20 C          -3.9706    1.1847   -0.9416 C.1     1  LIG1       -0.0662
     21 C          -4.2565    2.3112   -1.2775 C.1     1  LIG1       -0.1138
     22 H          -4.4921    3.3090   -1.5659 H       1  LIG1        0.1232
     23 C          -6.0156   -1.1150   -0.5592 C.1     1  LIG1       -0.0662
     24 C          -7.2202   -1.0421   -0.6837 C.1     1  LIG1       -0.1138
     25 H          -8.2720   -0.9335   -0.8157 H       1  LIG1        0.1232
     26 C          -4.3290   -3.7254    0.1309 C.ar    1  LIG1        0.0814
     27 C          -3.6046   -4.8904    0.4184 C.ar    1  LIG1        0.0674
     28 C          -4.5556   -5.9622    0.5736 C.ar    1  LIG1        0.0674
     29 C          -5.8244   -5.4166    0.3638 C.ar    1  LIG1        0.0814
     30 N          -5.6575   -4.0702    0.1166 N.ar    1  LIG1       -0.3499
     31 H          -6.3864   -3.4331   -0.1808 H       1  LIG1        0.1661
     32 C          -2.2008   -4.9912    0.5646 C.1     1  LIG1       -0.0662
     33 C          -0.9962   -5.0641    0.6893 C.1     1  LIG1       -0.1138
     34 H           0.0557   -5.1725    0.8215 H       1  LIG1        0.1232
     35 C          -4.2458   -7.2909    0.9469 C.1     1  LIG1       -0.0662
     36 C          -3.9600   -8.4175    1.2827 C.1     1  LIG1       -0.1138
     37 H          -3.7245   -9.4153    1.5711 H       1  LIG1        0.1232
     38 C          -7.1497   -5.9968    0.4313 C.ar    1  LIG1        0.0809
     39 C          -7.6837   -7.1767   -0.0890 C.ar    1  LIG1        0.0667
     40 C          -9.0834   -7.2059    0.2753 C.ar    1  LIG1        0.0580
     41 C          -9.3413   -6.0476    0.9868 C.ar    1  LIG1        0.0189
     42 N          -8.1833   -5.3239    1.0591 N.ar    1  LIG1       -0.3574
     43 H          -8.0523   -4.5024    1.6289 H       1  LIG1        0.1654
     44 H         -10.2584   -5.7030    1.4386 H       1  LIG1        0.0820
     45 C          -7.0169   -8.1339   -0.8898 C.1     1  LIG1       -0.0663
     46 C          -6.4684   -8.9543   -1.5896 C.1     1  LIG1       -0.1138
     47 H          -5.9761   -9.6748   -2.2000 H       1  LIG1        0.1232
     48 C         -10.0223   -8.2169   -0.0498 C.1     1  LIG1       -0.0669
     49 C         -10.8235   -9.0802   -0.3266 C.1     1  LIG1       -0.1138
     50 H         -11.5239   -9.8440   -0.5723 H       1  LIG1        0.1232
@<TRIPOS>BOND
     1    47    46    1
     2     6     5    1
     3    46    45    3
     4    22    21    1
     5     7     1    1
     6    21    20    3
     7     5     1   ar
     8     5     4   ar
     9     1     2   ar
    10    20    15    1
    11    45    39    1
    12    25    24    1
    13    24    23    3
    14    50    49    1
    15    15    16   ar
    16    15    14   ar
    17    23    16    1
    18     4    14    1
    19     4     3   ar
    20    16    17   ar
    21    14    18   ar
    22    49    48    3
    23     2     8    1
    24     2     3   ar
    25    31    30    1
    26    17    18   ar
    27    17    26    1
    28    18    19    1
    29    39    40   ar
    30    39    38   ar
    31    48    40    1
    32     8     9    3
    33     3    11    1
    34    30    26   ar
    35    30    29   ar
    36    26    27   ar
    37    40    41   ar
    38     9    10    1
    39    29    38    1
    40    29    28   ar
    41    27    32    1
    42    27    28   ar
    43    38    42   ar
    44    32    33    3
    45    28    35    1
    46    33    34    1
    47    11    12    3
    48    35    36    3
    49    41    42   ar
    50    41    44    1
    51    42    43    1
    52    36    37    1
    53    12    13    1
