@<TRIPOS>MOLECULE
mol_data/opt/b3lyp/geoms/mol2/13ee12ld-12ea6ld-.out
 49 52 0 0 0
SMALL
GASTEIGER

@<TRIPOS>ATOM
      1 C           1.4039   -0.1449    0.7285 C.ar    1  LIG1        0.0189
      2 C           1.0388    1.1857    0.8469 C.ar    1  LIG1        0.0580
      3 C          -0.3812    1.2626    0.5854 C.ar    1  LIG1        0.0684
      4 C          -0.8107   -0.0407    0.3063 C.ar    1  LIG1        0.1026
      5 N           0.2914   -0.8647    0.4064 N.ar    1  LIG1       -0.3560
      6 H           0.2487   -1.8626    0.2688 H       1  LIG1        0.1655
      7 H           2.3692   -0.6103    0.8524 H       1  LIG1        0.0820
      8 C           1.8975    2.2643    1.1746 C.1     1  LIG1       -0.0669
      9 C           2.6315    3.1846    1.4543 C.1     1  LIG1       -0.1138
     10 H           3.2737    3.9981    1.6997 H       1  LIG1        0.1232
     11 C          -1.1496    2.4471    0.6675 C.1     1  LIG1       -0.0662
     12 C          -1.7513    3.4918    0.7793 C.1     1  LIG1       -0.1138
     13 H          -2.2740    4.4162    0.8596 H       1  LIG1        0.1232
     14 C          -2.0886   -0.6208   -0.0057 C.ar    1  LIG1        0.1958
     15 C          -3.2946   -0.1700   -0.4924 C.ar    1  LIG1        0.1853
     16 C          -4.1532   -1.3244   -0.6171 C.ar    1  LIG1        0.1428
     17 C          -3.4041   -2.4150   -0.2038 C.ar    1  LIG1        0.1929
     18 O          -2.1607   -1.9894    0.1558 O.2     1  LIG1       -0.4450
     19 O          -3.5602    1.0850   -0.9061 O.3     1  LIG1       -0.4901
     20 C          -4.6273    1.7706   -0.2293 C.3     1  LIG1        0.0790
     21 H          -4.7329    2.7277   -0.7399 H       1  LIG1        0.0660
     22 H          -5.5667    1.2146   -0.3009 H       1  LIG1        0.0660
     23 H          -4.3625    1.9413    0.8190 H       1  LIG1        0.0660
     24 N          -6.4876   -1.2428   -1.7127 N.1     1  LIG1       -0.1906
     25 C          -5.4423   -1.3120   -1.2047 C.1     1  LIG1        0.1068
     26 C          -3.6449   -3.8229   -0.0866 C.ar    1  LIG1        0.1873
     27 C          -4.7804   -4.6009    0.1051 C.ar    1  LIG1        0.0741
     28 C          -4.3156   -5.9548    0.1430 C.ar    1  LIG1        0.0005
     29 C          -2.9548   -5.9209   -0.0069 C.ar    1  LIG1        0.1422
     30 O          -2.5408   -4.6249   -0.1459 O.2     1  LIG1       -0.4502
     31 C          -6.1147   -4.1685    0.2867 C.1     1  LIG1       -0.0657
     32 C          -7.2603   -3.8221    0.4608 C.1     1  LIG1       -0.1138
     33 H          -8.2647   -3.4886    0.5861 H       1  LIG1        0.1232
     34 H          -4.9362   -6.8310    0.2556 H       1  LIG1        0.0668
     35 C          -0.7577   -6.9570   -0.7727 C.ar    1  LIG1        0.2255
     36 C          -1.9611   -6.9893   -0.0070 C.ar    1  LIG1        0.0799
     37 C          -2.1878   -8.1440    0.7369 C.ar    1  LIG1       -0.0271
     38 C          -1.2642   -9.2030    0.7074 C.ar    1  LIG1        0.0707
     39 C          -0.1146   -9.0469   -0.0753 C.ar    1  LIG1        0.0488
     40 N           0.1269   -7.9493   -0.7941 N.ar    1  LIG1       -0.2194
     41 H          -3.0758   -8.2210    1.3546 H       1  LIG1        0.0640
     42 H           0.6319   -9.8355   -0.1200 H       1  LIG1        0.0844
     43 O          -0.5269   -5.8677   -1.5169 O.3     1  LIG1       -0.4792
     44 C           0.6558   -5.8571   -2.3316 C.3     1  LIG1        0.0804
     45 H           0.6271   -4.9029   -2.8572 H       1  LIG1        0.0660
     46 H           1.5548   -5.9320   -1.7151 H       1  LIG1        0.0660
     47 H           0.6467   -6.6868   -3.0424 H       1  LIG1        0.0660
     48 N          -1.6495  -11.3703    2.0785 N.1     1  LIG1       -0.1908
     49 C          -1.4780  -10.3969    1.4646 C.1     1  LIG1        0.1007
@<TRIPOS>BOND
     1    47    44    1
     2    45    44    1
     3    44    46    1
     4    44    43    1
     5    24    25    3
     6    43    35    1
     7    25    16    1
     8    19    15    1
     9    19    20    1
    10    40    35   ar
    11    40    39   ar
    12    35    36   ar
    13    21    20    1
    14    16    15   ar
    15    16    17   ar
    16    15    14   ar
    17    22    20    1
    18    20    23    1
    19    17    26    1
    20    17    18   ar
    21    30    26   ar
    22    30    29   ar
    23    42    39    1
    24    26    27   ar
    25    39    38   ar
    26    36    29    1
    27    36    37   ar
    28    29    28   ar
    29    14    18   ar
    30    14     4    1
    31    27    28   ar
    32    27    31    1
    33    28    34    1
    34     6     5    1
    35    31    32    3
    36     4     5   ar
    37     4     3   ar
    38     5     1   ar
    39    32    33    1
    40     3    11    1
    41     3     2   ar
    42    11    12    3
    43    38    37   ar
    44    38    49    1
    45     1     2   ar
    46     1     7    1
    47    37    41    1
    48    12    13    1
    49     2     8    1
    50     8     9    3
    51     9    10    1
    52    49    48    3
