@<TRIPOS>MOLECULE
mol_data/opt/b3lyp/geoms/mol2/13ee13ee.out
 26 27 0 0 0
SMALL
GASTEIGER

@<TRIPOS>ATOM
      1 C           1.0794   -0.2454   -0.7321 C.ar    1  LIG1        0.0189
      2 C           0.8352    1.0075   -0.1991 C.ar    1  LIG1        0.0580
      3 C          -0.5521    1.0299    0.2122 C.ar    1  LIG1        0.0667
      4 C          -1.0930   -0.2167   -0.1001 C.ar    1  LIG1        0.0809
      5 N          -0.0751   -0.9756   -0.6515 N.ar    1  LIG1       -0.3574
      6 H          -0.2239   -1.8671   -1.0980 H       1  LIG1        0.1654
      7 H           1.9844   -0.6530   -1.1550 H       1  LIG1        0.0820
      8 C           1.7761    2.0593   -0.0646 C.1     1  LIG1       -0.0669
      9 C           2.5791    2.9572    0.0497 C.1     1  LIG1       -0.1138
     10 H           3.2803    3.7523    0.1516 H       1  LIG1        0.1232
     11 C          -1.2085    2.0994    0.8669 C.1     1  LIG1       -0.0663
     12 C          -1.7526    3.0169    1.4376 C.1     1  LIG1       -0.1138
     13 H          -2.2427    3.8228    1.9319 H       1  LIG1        0.1232
     14 C          -2.4159   -0.7778    0.1010 C.ar    1  LIG1        0.0809
     15 C          -3.6881   -0.2999   -0.2108 C.ar    1  LIG1        0.0667
     16 C          -4.6363   -1.3129    0.2002 C.ar    1  LIG1        0.0580
     17 C          -3.9052   -2.3597    0.7325 C.ar    1  LIG1        0.0189
     18 N          -2.5778   -2.0373    0.6518 N.ar    1  LIG1       -0.3574
     19 H          -1.8334   -2.5503    1.0979 H       1  LIG1        0.1654
     20 H          -4.2412   -3.2938    1.1550 H       1  LIG1        0.0820
     21 C          -4.0008    0.9157   -0.8649 C.1     1  LIG1       -0.0663
     22 C          -4.2822    1.9450   -1.4350 C.1     1  LIG1       -0.1138
     23 H          -4.5210    2.8577   -1.9288 H       1  LIG1        0.1232
     24 C          -6.0465   -1.2581    0.0662 C.1     1  LIG1       -0.0669
     25 C          -7.2502   -1.2111   -0.0479 C.1     1  LIG1       -0.1138
     26 H          -8.3092   -1.1623   -0.1495 H       1  LIG1        0.1232
@<TRIPOS>BOND
     1    23    22    1
     2    22    21    3
     3     7     1    1
     4     6     5    1
     5    21    15    1
     6     1     5   ar
     7     1     2   ar
     8     5     4   ar
     9    15    14   ar
    10    15    16   ar
    11     2     8    1
    12     2     3   ar
    13    26    25    1
    14     4    14    1
    15     4     3   ar
    16     8     9    3
    17    25    24    3
    18     9    10    1
    19    24    16    1
    20    14    18   ar
    21    16    17   ar
    22     3    11    1
    23    18    17   ar
    24    18    19    1
    25    17    20    1
    26    11    12    3
    27    12    13    1
