@<TRIPOS>MOLECULE
mol_data/opt/b3lyp/geoms/mol2/13ee13ee-13ee-13ee.out
 50 53 0 0 0
SMALL
GASTEIGER

@<TRIPOS>ATOM
      1 C           1.2633   -0.2755   -0.1683 C.ar    1  LIG1        0.0189
      2 C           0.8281    0.9728   -0.5823 C.ar    1  LIG1        0.0580
      3 C          -0.6150    0.9380   -0.5557 C.ar    1  LIG1        0.0667
      4 C          -0.9883   -0.3427   -0.1221 C.ar    1  LIG1        0.0809
      5 N           0.1704   -1.0478    0.1011 N.ar    1  LIG1       -0.3574
      6 H           0.1773   -2.0050    0.4300 H       1  LIG1        0.1654
      7 H           2.2677   -0.6513   -0.0522 H       1  LIG1        0.0820
      8 C           1.6427    2.0698   -0.9575 C.1     1  LIG1       -0.0669
      9 C           2.3352    3.0090   -1.2779 C.1     1  LIG1       -0.1138
     10 H           2.9426    3.8365   -1.5619 H       1  LIG1        0.1232
     11 C          -1.4916    1.9946   -0.8969 C.1     1  LIG1       -0.0663
     12 C          -2.2597    2.8880   -1.1892 C.1     1  LIG1       -0.1138
     13 H          -2.9202    3.6865   -1.4389 H       1  LIG1        0.1232
     14 C          -2.2898   -0.9201    0.0886 C.ar    1  LIG1        0.0814
     15 C          -2.6724   -2.1844    0.5566 C.ar    1  LIG1        0.0674
     16 C          -4.1131   -2.2236    0.5673 C.ar    1  LIG1        0.0674
     17 C          -4.5590   -0.9875    0.0884 C.ar    1  LIG1        0.0814
     18 N          -3.4411   -0.2232   -0.1745 N.ar    1  LIG1       -0.3499
     19 H          -3.4415    0.6858   -0.6213 H       1  LIG1        0.1661
     20 C          -1.8047   -3.2230    0.9696 C.1     1  LIG1       -0.0662
     21 C          -1.0482   -4.1056    1.3165 C.1     1  LIG1       -0.1138
     22 H          -0.4198   -4.9047    1.6357 H       1  LIG1        0.1232
     23 C          -4.8973   -3.2897    1.0657 C.1     1  LIG1       -0.0662
     24 C          -5.5421   -4.2075    1.5191 C.1     1  LIG1       -0.1138
     25 H          -6.1254   -5.0079    1.9108 H       1  LIG1        0.1232
     26 C          -5.8784   -0.4229   -0.0831 C.ar    1  LIG1        0.0814
     27 C          -7.0804   -0.9537   -0.5621 C.ar    1  LIG1        0.0674
     28 C          -8.0468    0.1156   -0.5513 C.ar    1  LIG1        0.0674
     29 C          -7.3964    1.2652   -0.0831 C.ar    1  LIG1        0.0814
     30 N          -6.0973    0.9135    0.1801 N.ar    1  LIG1       -0.3499
     31 H          -5.4395    1.5408    0.6270 H       1  LIG1        0.1661
     32 C          -7.3101   -2.2569   -1.0607 C.1     1  LIG1       -0.0662
     33 C          -7.5288   -3.3571   -1.5144 C.1     1  LIG1       -0.1138
     34 H          -7.7051   -4.3315   -1.9062 H       1  LIG1        0.1232
     35 C          -9.3972    0.0262   -0.9644 C.1     1  LIG1       -0.0662
     36 C         -10.5579   -0.0359   -1.3114 C.1     1  LIG1       -0.1138
     37 H         -11.5698   -0.1329   -1.6308 H       1  LIG1        0.1232
     38 C          -7.8772    2.6053    0.1278 C.ar    1  LIG1        0.0809
     39 C          -7.2086    3.7595    0.5616 C.ar    1  LIG1        0.0667
     40 C          -8.1798    4.8275    0.5883 C.ar    1  LIG1        0.0580
     41 C          -9.3833    4.2805    0.1742 C.ar    1  LIG1        0.0189
     42 N          -9.1874    2.9567   -0.0954 N.ar    1  LIG1       -0.3574
     43 H          -9.8845    2.3009   -0.4245 H       1  LIG1        0.1654
     44 H         -10.3486    4.7476    0.0581 H       1  LIG1        0.0820
     45 C          -5.8390    3.8548    0.9029 C.1     1  LIG1       -0.0663
     46 C          -4.6625    3.9159    1.1953 C.1     1  LIG1       -0.1138
     47 H          -3.6288    3.9894    1.4451 H       1  LIG1        0.1232
     48 C          -7.9487    6.1741    0.9638 C.1     1  LIG1       -0.0669
     49 C          -7.7474    7.3234    1.2844 C.1     1  LIG1       -0.1138
     50 H          -7.5682    8.3341    1.5686 H       1  LIG1        0.1232
@<TRIPOS>BOND
     1    34    33    1
     2    37    36    1
     3    10     9    1
     4    33    32    3
     5    13    12    1
     6    36    35    3
     7     9     8    3
     8    12    11    3
     9    32    27    1
    10    35    28    1
    11     8     2    1
    12    11     3    1
    13    19    18    1
    14     2     3   ar
    15     2     1   ar
    16    27    28   ar
    17    27    26   ar
    18     3     4   ar
    19    28    29   ar
    20    43    42    1
    21    18    17   ar
    22    18    14   ar
    23     1     7    1
    24     1     5   ar
    25     4    14    1
    26     4     5   ar
    27    42    38   ar
    28    42    41   ar
    29    26    17    1
    30    26    30   ar
    31    29    38    1
    32    29    30   ar
    33    44    41    1
    34    17    16   ar
    35    14    15   ar
    36     5     6    1
    37    38    39   ar
    38    41    40   ar
    39    30    31    1
    40    15    16   ar
    41    15    20    1
    42    39    40   ar
    43    39    45    1
    44    16    23    1
    45    40    48    1
    46    45    46    3
    47    48    49    3
    48    20    21    3
    49    23    24    3
    50    46    47    1
    51    49    50    1
    52    21    22    1
    53    24    25    1
