@<TRIPOS>MOLECULE
mol_data/opt/b3lyp/geoms/mol2/13ee13ee-4ee13ee.out
 52 55 0 0 0
SMALL
GASTEIGER

@<TRIPOS>ATOM
      1 C           1.3887   -0.4065   -0.1041 C.ar    1  LIG1        0.0189
      2 C           1.0216    0.9023   -0.3709 C.ar    1  LIG1        0.0580
      3 C          -0.4214    0.9423   -0.3420 C.ar    1  LIG1        0.0667
      4 C          -0.8644   -0.3565   -0.0531 C.ar    1  LIG1        0.0809
      5 N           0.2560   -1.1435    0.0829 N.ar    1  LIG1       -0.3574
      6 H           0.2125   -2.1345    0.2836 H       1  LIG1        0.1654
      7 H           2.3712   -0.8471   -0.0380 H       1  LIG1        0.0820
      8 C           1.8948    1.9887   -0.6256 C.1     1  LIG1       -0.0669
      9 C           2.6387    2.9181   -0.8430 C.1     1  LIG1       -0.1138
     10 H           3.2911    3.7375   -1.0358 H       1  LIG1        0.1232
     11 C          -1.2323    2.0748   -0.5838 C.1     1  LIG1       -0.0663
     12 C          -1.9342    3.0412   -0.7942 C.1     1  LIG1       -0.1138
     13 H          -2.5394    3.8922   -1.0045 H       1  LIG1        0.1232
     14 C          -2.1916   -0.8965    0.0964 C.ar    1  LIG1        0.0813
     15 C          -2.6167   -2.2174    0.3040 C.ar    1  LIG1        0.0673
     16 C          -4.0524   -2.1972    0.3673 C.ar    1  LIG1        0.0659
     17 C          -4.4592   -0.8640    0.2026 C.ar    1  LIG1        0.0650
     18 N          -3.3156   -0.1165    0.0455 N.ar    1  LIG1       -0.3510
     19 H          -3.2933    0.8893   -0.0731 H       1  LIG1        0.1660
     20 C          -1.7938   -3.3609    0.4339 C.1     1  LIG1       -0.0662
     21 C          -1.0798   -4.3351    0.5473 C.1     1  LIG1       -0.1138
     22 H          -0.4870   -5.2150    0.6457 H       1  LIG1        0.1232
     23 C          -4.8618   -3.3351    0.6002 C.1     1  LIG1       -0.0663
     24 C          -5.5244   -4.3286    0.8011 C.1     1  LIG1       -0.1138
     25 H          -6.1085   -5.1993    0.9889 H       1  LIG1        0.1232
     26 C          -6.1152    1.0333    0.5887 C.ar    1  LIG1        0.0345
     27 C          -7.4326    1.5017    0.5023 C.ar    1  LIG1       -0.0354
     28 C          -5.8034   -0.2895    0.1621 C.ar    1  LIG1        0.0161
     29 C          -8.4925    0.7315    0.0039 C.ar    1  LIG1        0.0161
     30 H          -7.6326    2.5056    0.8511 H       1  LIG1        0.0637
     31 C          -6.8603   -1.0652   -0.3270 C.ar    1  LIG1       -0.0354
     32 C          -8.1792   -0.5975   -0.4119 C.ar    1  LIG1        0.0345
     33 H          -6.6585   -2.0719   -0.6689 H       1  LIG1        0.0637
     34 C          -5.1415    1.9121    1.1555 C.1     1  LIG1       -0.0690
     35 C          -4.3428    2.6837    1.6390 C.1     1  LIG1       -0.1139
     36 H          -3.6247    3.3397    2.0743 H       1  LIG1        0.1232
     37 C          -9.1364   -1.5087   -0.9607 C.1     1  LIG1       -0.0690
     38 C          -9.9054   -2.3263   -1.4188 C.1     1  LIG1       -0.1139
     39 H         -10.5659   -3.0405   -1.8546 H       1  LIG1        0.1232
     40 C          -9.8339    1.3129   -0.0436 C.ar    1  LIG1        0.0645
     41 C         -10.2616    2.6527   -0.0057 C.ar    1  LIG1        0.0653
     42 C         -11.7030    2.6465   -0.0590 C.ar    1  LIG1        0.0579
     43 C         -12.0943    1.3196   -0.1275 C.ar    1  LIG1        0.0188
     44 N         -10.9763    0.5444   -0.1162 N.ar    1  LIG1       -0.3585
     45 H         -10.9614   -0.4621   -0.2024 H       1  LIG1        0.1654
     46 H         -13.0835    0.8924   -0.1821 H       1  LIG1        0.0820
     47 C          -9.4803    3.8324    0.0381 C.1     1  LIG1       -0.0663
     48 C          -8.8522    4.8676    0.0728 C.1     1  LIG1       -0.1138
     49 H          -8.3008    5.7785    0.0950 H       1  LIG1        0.1232
     50 C         -12.5581    3.7764   -0.0498 C.1     1  LIG1       -0.0669
     51 C         -13.2897    4.7403   -0.0417 C.1     1  LIG1       -0.1138
     52 H         -13.9292    5.5919   -0.0345 H       1  LIG1        0.1232
@<TRIPOS>BOND
     1    39    38    1
     2    38    37    3
     3    10     9    1
     4    13    12    1
     5    37    32    1
     6     9     8    3
     7    12    11    3
     8    33    31    1
     9     8     2    1
    10    11     3    1
    11    32    31   ar
    12    32    29   ar
    13     2     3   ar
    14     2     1   ar
    15     3     4   ar
    16    31    28   ar
    17    45    44    1
    18    46    43    1
    19    43    44   ar
    20    43    42   ar
    21    44    40   ar
    22     1     7    1
    23     1     5   ar
    24    19    18    1
    25    42    50    1
    26    42    41   ar
    27     4     5   ar
    28     4    14    1
    29    50    51    3
    30    40    41   ar
    31    40    29    1
    32    51    52    1
    33    41    47    1
    34    29    27   ar
    35    47    48    3
    36    18    14   ar
    37    18    17   ar
    38    48    49    1
    39     5     6    1
    40    14    15   ar
    41    28    17    1
    42    28    26   ar
    43    17    16   ar
    44    15    16   ar
    45    15    20    1
    46    16    23    1
    47    20    21    3
    48    27    26   ar
    49    27    30    1
    50    21    22    1
    51    26    34    1
    52    23    24    3
    53    24    25    1
    54    34    35    3
    55    35    36    1
