@<TRIPOS>MOLECULE
mol_data/opt/b3lyp/geoms/mol2/13ee13ee-13ee.out
 38 40 0 0 0
SMALL
GASTEIGER

@<TRIPOS>ATOM
      1 C           1.2623   -0.3215    0.2778 C.ar    1  LIG1        0.0189
      2 C           0.9144    0.9869   -0.0155 C.ar    1  LIG1        0.0580
      3 C          -0.5212    1.0110   -0.1667 C.ar    1  LIG1        0.0667
      4 C          -0.9804   -0.2954    0.0514 C.ar    1  LIG1        0.0809
      5 N           0.1243   -1.0729    0.3160 N.ar    1  LIG1       -0.3574
      6 H           0.0723   -2.0697    0.4788 H       1  LIG1        0.1654
      7 H           2.2346   -0.7524    0.4589 H       1  LIG1        0.0820
      8 C           1.7996    2.0853   -0.1489 C.1     1  LIG1       -0.0669
      9 C           2.5541    3.0245   -0.2629 C.1     1  LIG1       -0.1138
     10 H           3.2153    3.8532   -0.3644 H       1  LIG1        0.1232
     11 C          -1.3072    2.1296   -0.5266 C.1     1  LIG1       -0.0663
     12 C          -1.9821    3.0821   -0.8534 C.1     1  LIG1       -0.1138
     13 H          -2.5686    3.9110   -1.1748 H       1  LIG1        0.1232
     14 C          -2.3088   -0.8529    0.0280 C.ar    1  LIG1        0.0814
     15 C          -2.7250   -2.1919    0.0221 C.ar    1  LIG1        0.0674
     16 C          -4.1625   -2.1894   -0.0196 C.ar    1  LIG1        0.0674
     17 C          -4.5742   -0.8490   -0.0253 C.ar    1  LIG1        0.0814
     18 N          -3.4402   -0.0751    0.0014 N.ar    1  LIG1       -0.3499
     19 H          -3.4385    0.9394    0.0016 H       1  LIG1        0.1661
     20 C          -1.8963   -3.3379    0.0510 C.1     1  LIG1       -0.0662
     21 C          -1.1815   -4.3173    0.0882 C.1     1  LIG1       -0.1138
     22 H          -0.5819   -5.1980    0.1004 H       1  LIG1        0.1232
     23 C          -4.9952   -3.3327   -0.0487 C.1     1  LIG1       -0.0662
     24 C          -5.7133   -4.3096   -0.0862 C.1     1  LIG1       -0.1138
     25 H          -6.3158   -5.1883   -0.0985 H       1  LIG1        0.1232
     26 C          -5.9007   -0.2871   -0.0486 C.ar    1  LIG1        0.0809
     27 C          -6.3555    1.0208    0.1700 C.ar    1  LIG1        0.0667
     28 C          -7.7912    1.0016    0.0187 C.ar    1  LIG1        0.0580
     29 C          -8.1435   -0.3056   -0.2751 C.ar    1  LIG1        0.0189
     30 N          -7.0081   -1.0607   -0.3135 N.ar    1  LIG1       -0.3574
     31 H          -6.9595   -2.0577   -0.4766 H       1  LIG1        0.1654
     32 H          -9.1172   -0.7331   -0.4564 H       1  LIG1        0.0820
     33 C          -5.5658    2.1366    0.5303 C.1     1  LIG1       -0.0663
     34 C          -4.8877    3.0867    0.8575 C.1     1  LIG1       -0.1138
     35 H          -4.2984    3.9134    1.1792 H       1  LIG1        0.1232
     36 C          -8.6727    2.1029    0.1525 C.1     1  LIG1       -0.0669
     37 C          -9.4240    3.0446    0.2668 C.1     1  LIG1       -0.1138
     38 H         -10.0824    3.8755    0.3685 H       1  LIG1        0.1232
@<TRIPOS>BOND
     1    13    12    1
     2    12    11    3
     3    11     3    1
     4    31    30    1
     5    32    29    1
     6    10     9    1
     7    30    29   ar
     8    30    26   ar
     9    29    28   ar
    10     9     8    3
    11     3     2   ar
    12     3     4   ar
    13     8     2    1
    14    25    24    1
    15    24    23    3
    16    23    16    1
    17    26    17    1
    18    26    27   ar
    19    17    16   ar
    20    17    18   ar
    21    16    15   ar
    22     2     1   ar
    23    18    19    1
    24    18    14   ar
    25    28    36    1
    26    28    27   ar
    27    15    14   ar
    28    15    20    1
    29    14     4    1
    30    20    21    3
    31     4     5   ar
    32    21    22    1
    33    36    37    3
    34    27    33    1
    35    37    38    1
    36     1     5   ar
    37     1     7    1
    38     5     6    1
    39    33    34    3
    40    34    35    1
