@<TRIPOS>MOLECULE
mol_data/opt/b3lyp/geoms/mol2/13ee13ee13ee-13ee.out
 50 53 0 0 0
SMALL
GASTEIGER

@<TRIPOS>ATOM
      1 C           0.9573   -0.0058   -1.4396 C.ar    1  LIG1        0.0189
      2 C           0.9077    1.0280   -0.5213 C.ar    1  LIG1        0.0580
      3 C          -0.4036    0.9908    0.0886 C.ar    1  LIG1        0.0667
      4 C          -1.0990   -0.0665   -0.4998 C.ar    1  LIG1        0.0809
      5 N          -0.2406   -0.6644   -1.4059 N.ar    1  LIG1       -0.3574
      6 H          -0.5264   -1.3741   -2.0626 H       1  LIG1        0.1654
      7 H           1.7545   -0.3048   -2.1022 H       1  LIG1        0.0820
      8 C           1.9549    1.9359   -0.2236 C.1     1  LIG1       -0.0669
      9 C           2.8485    2.7111    0.0303 C.1     1  LIG1       -0.1138
     10 H           3.6303    3.3976    0.2576 H       1  LIG1        0.1232
     11 C          -0.8528    1.8271    1.1379 C.1     1  LIG1       -0.0663
     12 C          -1.2133    2.5404    2.0461 C.1     1  LIG1       -0.1138
     13 H          -1.5432    3.1664    2.8418 H       1  LIG1        0.1232
     14 C          -2.4272   -0.6007   -0.2777 C.ar    1  LIG1        0.0814
     15 C          -3.6744    0.0181   -0.1647 C.ar    1  LIG1        0.0674
     16 C          -4.6515   -1.0274    0.0064 C.ar    1  LIG1        0.0674
     17 C          -3.9674   -2.2497   -0.0278 C.ar    1  LIG1        0.0814
     18 N          -2.6354   -1.9616   -0.2112 N.ar    1  LIG1       -0.3499
     19 H          -1.9060   -2.6579   -0.1193 H       1  LIG1        0.1661
     20 C          -3.9556    1.4008   -0.2661 C.1     1  LIG1       -0.0662
     21 C          -4.2191    2.5771   -0.3675 C.1     1  LIG1       -0.1138
     22 H          -4.4349    3.6168   -0.4492 H       1  LIG1        0.1232
     23 C          -6.0392   -0.8473    0.2077 C.1     1  LIG1       -0.0662
     24 C          -7.2264   -0.6958    0.4003 C.1     1  LIG1       -0.1138
     25 H          -8.2625   -0.5586    0.6050 H       1  LIG1        0.1232
     26 C          -4.4339   -3.6050    0.1065 C.ar    1  LIG1        0.0814
     27 C          -3.7114   -4.7902    0.3090 C.ar    1  LIG1        0.0674
     28 C          -4.6668   -5.8615    0.3888 C.ar    1  LIG1        0.0674
     29 C          -5.9389   -5.2951    0.2206 C.ar    1  LIG1        0.0814
     30 N          -5.7643   -3.9432    0.0569 N.ar    1  LIG1       -0.3499
     31 H          -6.5192   -3.2799   -0.0825 H       1  LIG1        0.1661
     32 C          -2.3073   -4.9179    0.4251 C.1     1  LIG1       -0.0662
     33 C          -1.1021   -5.0231    0.5154 C.1     1  LIG1       -0.1138
     34 H          -0.0493   -5.1458    0.6260 H       1  LIG1        0.1232
     35 C          -4.3679   -7.2282    0.5989 C.1     1  LIG1       -0.0662
     36 C          -4.1168   -8.3993    0.7906 C.1     1  LIG1       -0.1138
     37 H          -3.8612   -9.4226    0.9421 H       1  LIG1        0.1232
     38 C          -7.2364   -5.9210    0.2016 C.ar    1  LIG1        0.0809
     39 C          -8.4920   -5.4357   -0.1895 C.ar    1  LIG1        0.0667
     40 C          -9.4402   -6.5067    0.0046 C.ar    1  LIG1        0.0580
     41 C          -8.7254   -7.5880    0.4938 C.ar    1  LIG1        0.0189
     42 N          -7.4157   -7.2243    0.6072 N.ar    1  LIG1       -0.3574
     43 H          -6.6557   -7.8178    0.9122 H       1  LIG1        0.1654
     44 H          -9.0669   -8.5752    0.7631 H       1  LIG1        0.0820
     45 C          -8.7696   -4.1592   -0.7299 C.1     1  LIG1       -0.0663
     46 C          -9.0016   -3.0706   -1.2104 C.1     1  LIG1       -0.1138
     47 H          -9.2022   -2.1287   -1.6651 H       1  LIG1        0.1232
     48 C         -10.8314   -6.4660   -0.2612 C.1     1  LIG1       -0.0669
     49 C         -12.0194   -6.4293   -0.4887 C.1     1  LIG1       -0.1138
     50 H         -13.0647   -6.3932   -0.6892 H       1  LIG1        0.1232
@<TRIPOS>BOND
     1     7     1    1
     2     6     5    1
     3    47    46    1
     4     1     5   ar
     5     1     2   ar
     6     5     4   ar
     7    46    45    3
     8    45    39    1
     9    50    49    1
    10     2     8    1
    11     2     3   ar
    12     4    14    1
    13     4     3   ar
    14    49    48    3
    15    22    21    1
    16    21    20    3
    17    14    18   ar
    18    14    15   ar
    19    20    15    1
    20    48    40    1
    21     8     9    3
    22    18    19    1
    23    18    17   ar
    24    39    40   ar
    25    39    38   ar
    26    15    16   ar
    27    31    30    1
    28    17    16   ar
    29    17    26    1
    30    40    41   ar
    31    16    23    1
    32     9    10    1
    33    30    26   ar
    34    30    29   ar
    35     3    11    1
    36    26    27   ar
    37    38    29    1
    38    38    42   ar
    39    23    24    3
    40    29    28   ar
    41    27    28   ar
    42    27    32    1
    43    28    35    1
    44    24    25    1
    45    32    33    3
    46    41    42   ar
    47    41    44    1
    48    33    34    1
    49    35    36    3
    50    42    43    1
    51    36    37    1
    52    11    12    3
    53    12    13    1
