@<TRIPOS>MOLECULE
mol_data/opt/b3lyp/geoms/mol2/13ee13ee13ee.out
 38 40 0 0 0
SMALL
GASTEIGER

@<TRIPOS>ATOM
      1 C           0.7928   -0.0718   -1.5546 C.ar    1  LIG1        0.0189
      2 C           0.8048    0.9549   -0.6274 C.ar    1  LIG1        0.0580
      3 C          -0.4744    0.9298    0.0483 C.ar    1  LIG1        0.0667
      4 C          -1.2125   -0.1135   -0.5086 C.ar    1  LIG1        0.0809
      5 N          -0.4105   -0.7166   -1.4625 N.ar    1  LIG1       -0.3574
      6 H          -0.7465   -1.4000   -2.1236 H       1  LIG1        0.1654
      7 H           1.5502   -0.3753   -2.2603 H       1  LIG1        0.0820
      8 C           1.8781    1.8467   -0.3771 C.1     1  LIG1       -0.0669
      9 C           2.7939    2.6079   -0.1633 C.1     1  LIG1       -0.1138
     10 H           3.5954    3.2828    0.0275 H       1  LIG1        0.1232
     11 C          -0.8694    1.7704    1.1165 C.1     1  LIG1       -0.0663
     12 C          -1.1887    2.4871    2.0373 C.1     1  LIG1       -0.1138
     13 H          -1.4820    3.1226    2.8399 H       1  LIG1        0.1232
     14 C          -2.5385   -0.6243   -0.2130 C.ar    1  LIG1        0.0814
     15 C          -3.7809    0.0055   -0.1342 C.ar    1  LIG1        0.0674
     16 C          -4.7635   -1.0133    0.1480 C.ar    1  LIG1        0.0674
     17 C          -4.0907   -2.2335    0.2165 C.ar    1  LIG1        0.0814
     18 N          -2.7539   -1.9705   -0.0012 N.ar    1  LIG1       -0.3499
     19 H          -2.0287   -2.6711   -0.0055 H       1  LIG1        0.1661
     20 C          -4.0440    1.3822   -0.3318 C.1     1  LIG1       -0.0662
     21 C          -4.2844    2.5542   -0.5103 C.1     1  LIG1       -0.1138
     22 H          -4.4867    3.5888   -0.6615 H       1  LIG1        0.1232
     23 C          -6.1474   -0.7991    0.3547 C.1     1  LIG1       -0.0662
     24 C          -7.3259   -0.6004    0.5411 C.1     1  LIG1       -0.1138
     25 H          -8.3660   -0.4349    0.6991 H       1  LIG1        0.1232
     26 C          -4.5536   -3.5781    0.5072 C.ar    1  LIG1        0.0809
     27 C          -5.5743   -4.3484   -0.0479 C.ar    1  LIG1        0.0667
     28 C          -5.5513   -5.6316    0.6203 C.ar    1  LIG1        0.0580
     29 C          -4.5200   -5.5895    1.5415 C.ar    1  LIG1        0.0189
     30 N          -3.9174   -4.3643    1.4527 N.ar    1  LIG1       -0.3574
     31 H          -3.2420   -4.0088    2.1117 H       1  LIG1        0.1654
     32 H          -4.1863   -6.3402    2.2409 H       1  LIG1        0.0820
     33 C          -6.4344   -3.9765   -1.1089 C.1     1  LIG1       -0.0663
     34 C          -7.1671   -3.6767   -2.0236 C.1     1  LIG1       -0.1138
     35 H          -7.8170   -3.4007   -2.8208 H       1  LIG1        0.1232
     36 C          -6.4072   -6.7335    0.3690 C.1     1  LIG1       -0.0669
     37 C          -7.1378   -7.6737    0.1544 C.1     1  LIG1       -0.1138
     38 H          -7.7859   -8.4969   -0.0370 H       1  LIG1        0.1232
@<TRIPOS>BOND
     1    35    34    1
     2     7     1    1
     3     6     5    1
     4    34    33    3
     5     1     5   ar
     6     1     2   ar
     7     5     4   ar
     8    33    27    1
     9    22    21    1
    10     2     8    1
    11     2     3   ar
    12    21    20    3
    13     4    14    1
    14     4     3   ar
    15     8     9    3
    16    20    15    1
    17    14    15   ar
    18    14    18   ar
    19     9    10    1
    20    15    16   ar
    21    27    26   ar
    22    27    28   ar
    23    38    37    1
    24    19    18    1
    25    18    17   ar
    26     3    11    1
    27    16    17   ar
    28    16    23    1
    29    37    36    3
    30    17    26    1
    31    23    24    3
    32    36    28    1
    33    26    30   ar
    34    24    25    1
    35    28    29   ar
    36    11    12    3
    37    30    29   ar
    38    30    31    1
    39    29    32    1
    40    12    13    1
