@<TRIPOS>MOLECULE
mol_data/opt/b3lyp/geoms/mol2/13ee6ee-13he12lf-12hf-6hf-13da6al-.out
 95 102 0 0 0
SMALL
GASTEIGER

@<TRIPOS>ATOM
      1 C           1.3509   -0.7343    0.0635 C.ar    1  LIG1        0.0188
      2 C           1.0967    0.5955    0.3617 C.ar    1  LIG1        0.0579
      3 C          -0.3374    0.7448    0.4249 C.ar    1  LIG1        0.0653
      4 C          -0.9013   -0.5147    0.1604 C.ar    1  LIG1        0.0660
      5 N           0.1553   -1.3746   -0.0509 N.ar    1  LIG1       -0.3585
      6 H           0.0485   -2.3593   -0.2407 H       1  LIG1        0.1654
      7 H           2.2782   -1.2706   -0.0795 H       1  LIG1        0.0820
      8 C           2.0630    1.6114    0.5694 C.1     1  LIG1       -0.0669
      9 C           2.8872    2.4799    0.7460 C.1     1  LIG1       -0.1138
     10 H           3.6092    3.2465    0.9038 H       1  LIG1        0.1232
     11 C          -1.0088    1.9516    0.7361 C.1     1  LIG1       -0.0663
     12 C          -1.5560    2.9986    1.0048 C.1     1  LIG1       -0.1138
     13 H          -2.0320    3.9177    1.2558 H       1  LIG1        0.1232
     14 C          -2.7673   -2.2636    0.2097 C.ar    1  LIG1        0.1231
     15 C          -2.2974   -0.9280    0.0624 C.ar    1  LIG1        0.0345
     16 C          -3.2877    0.0137   -0.2574 C.ar    1  LIG1       -0.0324
     17 C          -4.6366   -0.3299   -0.3780 C.ar    1  LIG1        0.0528
     18 C          -5.0171   -1.6832   -0.1145 C.ar    1  LIG1        0.1057
     19 N          -4.0587   -2.6033    0.1212 N.ar    1  LIG1       -0.2350
     20 H          -2.9983    1.0375   -0.4567 H       1  LIG1        0.0638
     21 C          -1.9033   -3.3760    0.5063 C.1     1  LIG1       -0.0491
     22 C          -1.2211   -4.3432    0.7703 C.1     1  LIG1       -0.1124
     23 H          -0.6725   -5.2204    1.0354 H       1  LIG1        0.1232
     24 C          -5.5256    0.6577   -0.8934 C.1     1  LIG1       -0.0674
     25 C          -6.2264    1.5251   -1.3692 C.1     1  LIG1       -0.1138
     26 H          -6.8313    2.2758   -1.8237 H       1  LIG1        0.1232
     27 C          -6.3607   -2.2253   -0.1160 C.ar    1  LIG1        0.0889
     28 C          -7.6677   -1.7438    0.1040 C.ar    1  LIG1        0.0680
     29 C          -8.5559   -2.8708    0.0586 C.ar    1  LIG1        0.0743
     30 C          -7.7647   -4.0173   -0.1636 C.ar    1  LIG1        0.1038
     31 N          -6.4767   -3.6011   -0.2581 N.ar    1  LIG1       -0.3480
     32 H          -5.6635   -4.1936   -0.3256 H       1  LIG1        0.1661
     33 N          -8.0906   -0.4825    0.4522 N.pl3   1  LIG1       -0.3553
     34 H          -7.5719    0.2970    0.0701 H       1  LIG1        0.1424
     35 H          -9.0958   -0.3715    0.4193 H       1  LIG1        0.1424
     36 C          -9.9477   -2.7514    0.2723 C.1     1  LIG1       -0.0656
     37 C         -11.1206   -2.5221    0.4821 C.1     1  LIG1       -0.1138
     38 H         -12.1599   -2.3636    0.6516 H       1  LIG1        0.1232
     39 C          -8.0528   -5.4179   -0.2791 C.ar    1  LIG1        0.1984
     40 C          -9.1832   -6.1932   -0.4628 C.ar    1  LIG1        0.2099
     41 C          -8.7475   -7.5558   -0.5367 C.ar    1  LIG1        0.2093
     42 C          -7.3700   -7.5298   -0.4044 C.ar    1  LIG1        0.2176
     43 O          -6.9437   -6.2302   -0.2588 O.2     1  LIG1       -0.4425
     44 O         -10.4389   -5.7243   -0.6503 O.3     1  LIG1       -0.4884
     45 C         -11.4313   -6.2309    0.2531 C.3     1  LIG1        0.0791
     46 H         -12.3790   -5.8011   -0.0735 H       1  LIG1        0.0660
     47 H         -11.4842   -7.3224    0.2096 H       1  LIG1        0.0660
     48 H         -11.2195   -5.9055    1.2780 H       1  LIG1        0.0660
     49 O          -9.5605   -8.6091   -0.7152 O.3     1  LIG1       -0.5007
     50 H          -9.0026   -9.4317   -0.7797 H       1  LIG1        0.2924
     51 C          -6.3827   -8.5555   -0.4221 C.ar    1  LIG1        0.1986
     52 C          -6.4520   -9.9208   -0.6159 C.ar    1  LIG1        0.1170
     53 C          -5.1109  -10.3997   -0.5525 C.ar    1  LIG1        0.1847
     54 C          -4.2842   -9.3202   -0.3107 C.ar    1  LIG1        0.1823
     55 O          -5.0864   -8.1885   -0.2370 O.2     1  LIG1       -0.4458
     56 N          -7.6574  -10.6530   -0.8582 N.pl3   1  LIG1       -0.3521
     57 H          -7.6212  -11.1165   -1.7653 H       1  LIG1        0.1425
     58 H          -7.7748  -11.3911   -0.1654 H       1  LIG1        0.1425
     59 O          -4.8043  -11.7107   -0.7367 O.3     1  LIG1       -0.5020
     60 H          -3.8556  -11.7976   -0.9062 H       1  LIG1        0.2924
     61 C          -2.1489   -7.9470   -0.3794 C.ar    1  LIG1        0.1280
     62 C          -2.8584   -9.1732   -0.1243 C.ar    1  LIG1        0.0639
     63 C          -2.0854  -10.2444    0.3184 C.ar    1  LIG1       -0.0039
     64 C          -0.6948  -10.1617    0.4794 C.ar    1  LIG1        0.1450
     65 C          -0.0886   -8.9155    0.2364 C.ar    1  LIG1        0.1317
     66 N          -0.8424   -7.8556   -0.1694 N.ar    1  LIG1       -0.2265
     67 H          -2.5472  -11.1850    0.6019 H       1  LIG1        0.0663
     68 N          -2.7783   -6.8400   -0.9002 N.pl3   1  LIG1       -0.3426
     69 H          -2.2549   -5.9786   -0.8260 H       1  LIG1        0.1437
     70 H          -3.7692   -6.7532   -0.7340 H       1  LIG1        0.1437
     71 O          -0.1014  -11.3286    0.8393 O.3     1  LIG1       -0.5045
     72 H           0.7990  -11.2311    1.1844 H       1  LIG1        0.2922
     73 C           1.3344   -8.5701    0.3444 C.ar    1  LIG1        0.0866
     74 C           2.5275   -9.1729    0.7977 C.ar    1  LIG1        0.0792
     75 C           3.5941   -8.2479    0.5914 C.ar    1  LIG1       -0.0183
     76 C           3.0535   -7.1048    0.0344 C.ar    1  LIG1        0.0498
     77 N           1.7008   -7.3297   -0.0962 N.ar    1  LIG1       -0.3518
     78 H           1.0037   -6.7342   -0.5251 H       1  LIG1        0.1660
     79 N           2.8143  -11.4706    1.9380 N.1     1  LIG1       -0.1908
     80 C           2.6846  -10.4332    1.4177 C.1     1  LIG1        0.1014
     81 H           4.6234   -8.4035    0.8780 H       1  LIG1        0.0652
     82 C           2.9462   -4.6333   -0.2905 C.ar    1  LIG1        0.0369
     83 C           3.6725   -5.8315   -0.3280 C.ar    1  LIG1        0.0199
     84 C           5.0253   -5.7664   -0.7067 C.ar    1  LIG1       -0.0079
     85 C           5.5745   -4.5256   -1.0233 C.ar    1  LIG1        0.1387
     86 C           4.7471   -3.3876   -0.9666 C.ar    1  LIG1        0.0692
     87 N           3.4674   -3.4416   -0.6080 N.ar    1  LIG1       -0.2590
     88 H           5.6096   -6.6767   -0.7655 H       1  LIG1        0.0662
     89 H           5.1656   -2.4181   -1.2240 H       1  LIG1        0.0867
     90 H           1.9087   -4.6298    0.0361 H       1  LIG1        0.0836
     91 O           6.8578   -4.3051   -1.4054 O.3     1  LIG1       -0.4936
     92 C           7.7399   -5.4188   -1.4799 C.3     1  LIG1        0.0789
     93 H           8.7039   -5.0163   -1.7916 H       1  LIG1        0.0660
     94 H           7.8501   -5.9095   -0.5050 H       1  LIG1        0.0660
     95 H           7.3979   -6.1535   -2.2193 H       1  LIG1        0.0660
@<TRIPOS>BOND
     1    95    92    1
     2    26    25    1
     3    93    92    1
     4    57    56    1
     5    92    91    1
     6    92    94    1
     7    91    85    1
     8    25    24    3
     9    89    86    1
    10    85    86   ar
    11    85    84   ar
    12    86    87   ar
    13    60    59    1
    14    68    69    1
    15    68    70    1
    16    68    61    1
    17    24    17    1
    18    56    52    1
    19    56    58    1
    20    50    49    1
    21    88    84    1
    22    59    53    1
    23    49    41    1
    24    84    83   ar
    25    44    40    1
    26    44    45    1
    27    52    53   ar
    28    52    51   ar
    29    87    82   ar
    30    53    54   ar
    31    41    40   ar
    32    41    42   ar
    33    78    77    1
    34    40    39   ar
    35    20    16    1
    36    51    42    1
    37    51    55   ar
    38    42    43   ar
    39    61    66   ar
    40    61    62   ar
    41    17    16   ar
    42    17    18   ar
    43    83    82   ar
    44    83    76    1
    45    32    31    1
    46    54    55   ar
    47    54    62    1
    48    82    90    1
    49    39    43   ar
    50    39    30    1
    51    31    30   ar
    52    31    27   ar
    53    16    15   ar
    54     6     5    1
    55    66    65   ar
    56    30    29   ar
    57    62    63   ar
    58    27    18    1
    59    27    28   ar
    60    18    19   ar
    61    77    76   ar
    62    77    73   ar
    63     7     1    1
    64    46    45    1
    65     5     1   ar
    66     5     4   ar
    67    76    75   ar
    68    29    28   ar
    69    29    36    1
    70    15     4    1
    71    15    14   ar
    72     1     2   ar
    73    34    33    1
    74    28    33    1
    75    19    14   ar
    76     4     3   ar
    77    47    45    1
    78    14    21    1
    79    65    73    1
    80    65    64   ar
    81    45    48    1
    82    36    37    3
    83    63    64   ar
    84    63    67    1
    85    73    74   ar
    86     2     3   ar
    87     2     8    1
    88    35    33    1
    89     3    11    1
    90    64    71    1
    91    37    38    1
    92    21    22    3
    93     8     9    3
    94    75    74   ar
    95    75    81    1
    96    11    12    3
    97     9    10    1
    98    22    23    1
    99    74    80    1
   100    71    72    1
   101    12    13    1
   102    80    79    3
