@<TRIPOS>MOLECULE
mol_data/opt/b3lyp/geoms/mol2/13ee4ad-4ea-12he-.out
 48 51 0 0 0
SMALL
GASTEIGER

@<TRIPOS>ATOM
      1 C           1.2464    0.1507    0.8699 C.ar    1  LIG1        0.0188
      2 C           0.9979    1.1872   -0.0123 C.ar    1  LIG1        0.0579
      3 C          -0.3784    1.0562   -0.4348 C.ar    1  LIG1        0.0652
      4 C          -0.9080   -0.0661    0.2109 C.ar    1  LIG1        0.0633
      5 N           0.1062   -0.5931    0.9837 N.ar    1  LIG1       -0.3585
      6 H          -0.0181   -1.3530    1.6339 H       1  LIG1        0.1654
      7 H           2.1438   -0.0931    1.4167 H       1  LIG1        0.0820
      8 C           1.9211    2.1802   -0.4249 C.1     1  LIG1       -0.0669
      9 C           2.7084    3.0288   -0.7769 C.1     1  LIG1       -0.1138
     10 H           3.3985    3.7772   -1.0901 H       1  LIG1        0.1232
     11 C          -1.0264    1.9015   -1.3682 C.1     1  LIG1       -0.0663
     12 C          -1.5579    2.6408   -2.1665 C.1     1  LIG1       -0.1138
     13 H          -2.0152    3.2878   -2.8784 H       1  LIG1        0.1232
     14 C          -3.3830    0.0566   -0.1502 C.ar    1  LIG1       -0.0519
     15 C          -4.6345   -0.5433   -0.1784 C.ar    1  LIG1       -0.0521
     16 C          -2.2294   -0.6890    0.1586 C.ar    1  LIG1        0.0008
     17 C          -4.8171   -1.9067    0.1015 C.ar    1  LIG1        0.0007
     18 H          -5.5023    0.0575   -0.4250 H       1  LIG1        0.0624
     19 C          -2.3916   -2.0540    0.4307 C.ar    1  LIG1       -0.0346
     20 C          -3.6581   -2.6571    0.4134 C.ar    1  LIG1        0.0601
     21 H          -1.5319   -2.6827    0.6386 H       1  LIG1        0.0637
     22 H          -3.2899    1.1131   -0.3712 H       1  LIG1        0.0624
     23 N          -3.7178   -5.1807    1.0307 N.1     1  LIG1       -0.1908
     24 C          -3.7237   -4.0522    0.7470 C.1     1  LIG1        0.0998
     25 C          -7.2794   -1.9785    0.7231 C.ar    1  LIG1        0.0331
     26 C          -8.5432   -2.5758    0.5946 C.ar    1  LIG1       -0.0350
     27 C          -6.1659   -2.5222    0.0307 C.ar    1  LIG1       -0.0012
     28 C          -8.7475   -3.7026   -0.2183 C.ar    1  LIG1        0.0203
     29 H          -9.3584   -2.1748    1.1853 H       1  LIG1        0.0637
     30 C          -6.3797   -3.6647   -0.7561 C.ar    1  LIG1       -0.0522
     31 C          -7.6327   -4.2453   -0.8868 C.ar    1  LIG1       -0.0504
     32 H          -5.5435   -4.0952   -1.2967 H       1  LIG1        0.0624
     33 C          -7.1582   -0.8544    1.6015 C.1     1  LIG1       -0.0690
     34 C          -7.1069    0.0891    2.3578 C.1     1  LIG1       -0.1139
     35 H          -7.0440    0.9155    3.0272 H       1  LIG1        0.1232
     36 H          -7.7598   -5.1197   -1.5144 H       1  LIG1        0.0625
     37 C         -10.0630   -4.2940   -0.3590 C.ar    1  LIG1        0.1566
     38 C         -11.3436   -3.8621   -0.0832 C.ar    1  LIG1        0.0865
     39 C         -12.2315   -4.9408   -0.4591 C.ar    1  LIG1        0.0836
     40 C         -11.4230   -5.9378   -0.9414 C.ar    1  LIG1        0.1098
     41 O         -10.1300   -5.5698   -0.8994 O.2     1  LIG1       -0.4598
     42 H         -11.6385   -6.9198   -1.3323 H       1  LIG1        0.1043
     43 N         -11.7656   -2.6595    0.4697 N.pl3   1  LIG1       -0.3541
     44 H         -11.2396   -1.8483    0.1695 H       1  LIG1        0.1425
     45 H         -12.7629   -2.5129    0.3664 H       1  LIG1        0.1425
     46 C         -13.6440   -4.9182   -0.3536 C.1     1  LIG1       -0.0646
     47 C         -14.8480   -4.8422   -0.2501 C.1     1  LIG1       -0.1138
     48 H         -15.9090   -4.8038   -0.1598 H       1  LIG1        0.1232
@<TRIPOS>BOND
     1    13    12    1
     2    12    11    3
     3    36    31    1
     4    11     3    1
     5    42    40    1
     6    32    30    1
     7    10     9    1
     8    40    41   ar
     9    40    39   ar
    10    41    37   ar
    11    31    30   ar
    12    31    28   ar
    13     9     8    3
    14    30    27   ar
    15    39    46    1
    16    39    38   ar
    17     3     2   ar
    18     3     4   ar
    19    18    15    1
    20     8     2    1
    21    22    14    1
    22    37    28    1
    23    37    38   ar
    24    46    47    3
    25    47    48    1
    26    28    26   ar
    27    15    14   ar
    28    15    17   ar
    29    14    16   ar
    30    38    43    1
    31     2     1   ar
    32    27    17    1
    33    27    25   ar
    34    17    20   ar
    35    16     4    1
    36    16    19   ar
    37    44    43    1
    38     4     5   ar
    39    45    43    1
    40    20    19   ar
    41    20    24    1
    42    19    21    1
    43    26    25   ar
    44    26    29    1
    45    25    33    1
    46    24    23    3
    47     1     5   ar
    48     1     7    1
    49     5     6    1
    50    33    34    3
    51    34    35    1
