@<TRIPOS>MOLECULE
mol_data/opt/b3lyp/geoms/mol2/13ef13ef-4ef13ef.out
 48 51 0 0 0
SMALL
GASTEIGER

@<TRIPOS>ATOM
      1 C           1.4349   -0.5132    0.0549 C.ar    1  LIG1        0.0213
      2 C           1.0793    0.8273    0.1948 C.ar    1  LIG1        0.0840
      3 C          -0.3484    0.8655    0.1762 C.ar    1  LIG1        0.1589
      4 C          -0.8266   -0.4285    0.0274 C.ar    1  LIG1        0.1074
      5 N           0.2962   -1.2461   -0.0443 N.ar    1  LIG1       -0.3554
      6 H           0.2419   -2.2493   -0.1484 H       1  LIG1        0.1655
      7 H           2.4129   -0.9670    0.0212 H       1  LIG1        0.0820
      8 C           1.9031    1.9697    0.3360 C.1     1  LIG1       -0.0645
      9 C           2.5357    2.9961    0.4629 C.1     1  LIG1       -0.1137
     10 H           3.1218    3.8790    0.5717 H       1  LIG1        0.1232
     11 O          -1.1377    1.9687    0.2889 O.3     1  LIG1       -0.5035
     12 H          -0.5600    2.7346    0.4260 H       1  LIG1        0.2923
     13 C          -2.1686   -0.9342   -0.0360 C.ar    1  LIG1        0.0862
     14 C          -2.6308   -2.2626   -0.1263 C.ar    1  LIG1        0.0934
     15 C          -4.0527   -2.1957   -0.1458 C.ar    1  LIG1        0.1581
     16 C          -4.4498   -0.8604   -0.0748 C.ar    1  LIG1        0.0915
     17 N          -3.2628   -0.1286   -0.0079 N.ar    1  LIG1       -0.3490
     18 H          -3.2261    0.8831    0.0324 H       1  LIG1        0.1661
     19 C          -1.8857   -3.4607   -0.1879 C.1     1  LIG1       -0.0638
     20 C          -1.2929   -4.5204   -0.2464 C.1     1  LIG1       -0.1137
     21 H          -0.7717   -5.4485   -0.2935 H       1  LIG1        0.1232
     22 O          -4.8798   -3.2752   -0.2261 O.3     1  LIG1       -0.5035
     23 H          -4.3224   -4.0656   -0.2861 H       1  LIG1        0.2923
     24 C          -6.0670    1.1138   -0.1825 C.ar    1  LIG1        0.0347
     25 C          -7.3946    1.5648   -0.1346 C.ar    1  LIG1       -0.0330
     26 C          -5.7819   -0.2773   -0.0522 C.ar    1  LIG1        0.0208
     27 C          -8.5016    0.7210    0.0306 C.ar    1  LIG1        0.0422
     28 H          -7.5651    2.6279   -0.2377 H       1  LIG1        0.0638
     29 C          -6.8912   -1.1272    0.1127 C.ar    1  LIG1       -0.0091
     30 C          -8.1955   -0.6583    0.1476 C.ar    1  LIG1        0.1267
     31 H          -6.7218   -2.1931    0.2184 H       1  LIG1        0.0661
     32 C          -5.0631    2.1105   -0.3911 C.1     1  LIG1       -0.0690
     33 C          -4.2525    2.9932   -0.5733 C.1     1  LIG1       -0.1139
     34 H          -3.5298    3.7549   -0.7493 H       1  LIG1        0.1232
     35 O          -9.2305   -1.5544    0.3103 O.3     1  LIG1       -0.5061
     36 H          -8.8652   -2.4471    0.3639 H       1  LIG1        0.2922
     37 C          -9.8602    1.2594    0.0704 C.ar    1  LIG1        0.0692
     38 C         -10.3400    2.5876   -0.0085 C.ar    1  LIG1        0.0913
     39 C         -11.7644    2.5155    0.0838 C.ar    1  LIG1        0.1500
     40 C         -12.1242    1.1919    0.2133 C.ar    1  LIG1        0.0454
     41 N         -10.9623    0.4547    0.2028 N.ar    1  LIG1       -0.3565
     42 H         -10.8890   -0.5474    0.2832 H       1  LIG1        0.1655
     43 H         -13.0929    0.7258    0.3104 H       1  LIG1        0.0845
     44 C          -9.6281    3.8031   -0.1471 C.1     1  LIG1       -0.0639
     45 C          -9.0673    4.8713   -0.2649 C.1     1  LIG1       -0.1137
     46 H          -8.5728    5.8085   -0.3674 H       1  LIG1        0.1232
     47 O         -12.5561    3.6246    0.0423 O.3     1  LIG1       -0.5040
     48 H         -13.4782    3.3506    0.1232 H       1  LIG1        0.2923
@<TRIPOS>BOND
     1    34    33    1
     2    33    32    3
     3    32    24    1
     4    46    45    1
     5    21    20    1
     6    23    22    1
     7    45    44    3
     8    20    19    3
     9    28    25    1
    10    22    15    1
    11    19    14    1
    12    24    25   ar
    13    24    26   ar
    14     6     5    1
    15    44    38    1
    16    15    14   ar
    17    15    16   ar
    18    25    27   ar
    19    14    13   ar
    20    16    26    1
    21    16    17   ar
    22    26    29   ar
    23     5     4   ar
    24     5     1   ar
    25    13    17   ar
    26    13     4    1
    27    38    37   ar
    28    38    39   ar
    29    17    18    1
    30     7     1    1
    31     4     3   ar
    32    27    37    1
    33    27    30   ar
    34    47    39    1
    35    47    48    1
    36     1     2   ar
    37    37    41   ar
    38    39    40   ar
    39    29    30   ar
    40    29    31    1
    41    30    35    1
    42     3     2   ar
    43     3    11    1
    44     2     8    1
    45    41    40   ar
    46    41    42    1
    47    40    43    1
    48    11    12    1
    49    35    36    1
    50     8     9    3
    51     9    10    1
