@<TRIPOS>MOLECULE
mol_data/opt/b3lyp/geoms/mol2/13ef13ef.out
 24 25 0 0 0
SMALL
GASTEIGER

@<TRIPOS>ATOM
      1 C           1.1587   -0.2993   -0.4606 C.ar    1  LIG1        0.0213
      2 C           0.8245    0.9629    0.0081 C.ar    1  LIG1        0.0840
      3 C          -0.5957    0.9588    0.2241 C.ar    1  LIG1        0.1589
      4 C          -1.0794   -0.3033   -0.1101 C.ar    1  LIG1        0.1074
      5 N           0.0276   -1.0630   -0.5029 N.ar    1  LIG1       -0.3554
      6 H          -0.0554   -1.9079   -1.0468 H       1  LIG1        0.1655
      7 H           2.1179   -0.6849   -0.7695 H       1  LIG1        0.0820
      8 C           1.7124    2.0425    0.2431 C.1     1  LIG1       -0.0645
      9 C           2.4738    2.9624    0.4399 C.1     1  LIG1       -0.1137
     10 H           3.1356    3.7778    0.6158 H       1  LIG1        0.1232
     11 O          -1.2521    2.0191    0.7407 O.3     1  LIG1       -0.5035
     12 H          -2.1956    1.9750    0.5016 H       1  LIG1        0.2923
     13 C          -2.3903   -0.8936   -0.0024 C.ar    1  LIG1        0.0857
     14 C          -3.6679   -0.3238   -0.0956 C.ar    1  LIG1        0.0928
     15 C          -4.6117   -1.3811    0.1360 C.ar    1  LIG1        0.1501
     16 C          -3.9131   -2.5443    0.3470 C.ar    1  LIG1        0.0454
     17 N          -2.5595   -2.2373    0.2317 N.ar    1  LIG1       -0.3554
     18 H          -1.8231   -2.8207    0.5968 H       1  LIG1        0.1655
     19 H          -4.2510   -3.5516    0.5347 H       1  LIG1        0.0845
     20 C          -3.9628    1.0223   -0.4084 C.1     1  LIG1       -0.0638
     21 C          -4.1886    2.1890   -0.6569 C.1     1  LIG1       -0.1137
     22 H          -4.4086    3.1962   -0.9257 H       1  LIG1        0.1232
     23 O          -5.9553   -1.1692    0.0975 O.3     1  LIG1       -0.5040
     24 H          -6.4109   -2.0027    0.2707 H       1  LIG1        0.2923
@<TRIPOS>BOND
     1     6     5    1
     2    22    21    1
     3     7     1    1
     4    21    20    3
     5     5     1   ar
     6     5     4   ar
     7     1     2   ar
     8    20    14    1
     9     4    13    1
    10     4     3   ar
    11    14    13   ar
    12    14    15   ar
    13    13    17   ar
    14     2     3   ar
    15     2     8    1
    16    23    15    1
    17    23    24    1
    18    15    16   ar
    19     3    11    1
    20    17    16   ar
    21    17    18    1
    22     8     9    3
    23    16    19    1
    24     9    10    1
    25    12    11    1
