@<TRIPOS>MOLECULE
mol_data/opt/b3lyp/geoms/mol2/13ef13ef-13ef-13ef.out
 46 49 0 0 0
SMALL
GASTEIGER

@<TRIPOS>ATOM
      1 C           1.2909   -0.2499   -0.0920 C.ar    1  LIG1        0.0213
      2 C           0.8133    1.0128   -0.4415 C.ar    1  LIG1        0.0840
      3 C          -0.6109    0.9211   -0.4100 C.ar    1  LIG1        0.1589
      4 C          -0.9666   -0.3708   -0.0518 C.ar    1  LIG1        0.1074
      5 N           0.2241   -1.0603    0.1371 N.ar    1  LIG1       -0.3554
      6 H           0.2606   -2.0322    0.4095 H       1  LIG1        0.1655
      7 H           2.3066   -0.6002    0.0021 H       1  LIG1        0.0820
      8 C           1.5294    2.1877   -0.7748 C.1     1  LIG1       -0.0645
      9 C           2.0663    3.2326   -1.0737 C.1     1  LIG1       -0.1137
     10 H           2.5690    4.1363   -1.3296 H       1  LIG1        0.1232
     11 O          -1.5105    1.9116   -0.6808 O.3     1  LIG1       -0.5035
     12 H          -1.0190    2.6930   -0.9756 H       1  LIG1        0.2923
     13 C          -2.2661   -0.9560    0.1044 C.ar    1  LIG1        0.0862
     14 C          -2.6599   -2.2615    0.4494 C.ar    1  LIG1        0.0935
     15 C          -4.0903   -2.2842    0.4195 C.ar    1  LIG1        0.1596
     16 C          -4.5451   -1.0237    0.0580 C.ar    1  LIG1        0.1079
     17 N          -3.4041   -0.2346   -0.1101 N.ar    1  LIG1       -0.3478
     18 H          -3.3908    0.6953   -0.5058 H       1  LIG1        0.1661
     19 C          -1.8387   -3.3589    0.7915 C.1     1  LIG1       -0.0638
     20 C          -1.1669   -4.3266    1.0897 C.1     1  LIG1       -0.1137
     21 H          -0.5830   -5.1773    1.3553 H       1  LIG1        0.1232
     22 O          -4.8802   -3.3376    0.7371 O.3     1  LIG1       -0.5034
     23 H          -4.3063   -4.0814    0.9716 H       1  LIG1        0.2923
     24 C          -5.8607   -0.4528   -0.0561 C.ar    1  LIG1        0.0862
     25 C          -7.1078   -1.0010   -0.4135 C.ar    1  LIG1        0.0935
     26 C          -8.0447    0.0745   -0.3849 C.ar    1  LIG1        0.1596
     27 C          -7.3866    1.2409   -0.0349 C.ar    1  LIG1        0.1079
     28 N          -6.0564    0.8888    0.1507 N.ar    1  LIG1       -0.3478
     29 H          -5.3829    1.5282    0.5519 H       1  LIG1        0.1661
     30 C          -7.4674   -2.3056   -0.8210 C.1     1  LIG1       -0.0638
     31 C          -7.9013   -3.3740   -1.1980 C.1     1  LIG1       -0.1137
     32 H          -8.2292   -4.3359   -1.5160 H       1  LIG1        0.1232
     33 O          -9.3759    0.0014   -0.6773 O.3     1  LIG1       -0.5034
     34 H          -9.5706   -0.9171   -0.9214 H       1  LIG1        0.2923
     35 C          -7.8770    2.5791    0.1269 C.ar    1  LIG1        0.0857
     36 C          -7.2043    3.7667    0.4706 C.ar    1  LIG1        0.0928
     37 C          -8.1956    4.8010    0.4867 C.ar    1  LIG1        0.1501
     38 C          -9.4111    4.2408    0.1635 C.ar    1  LIG1        0.0454
     39 N          -9.1955    2.8880   -0.0504 N.ar    1  LIG1       -0.3554
     40 H          -9.8891    2.2031   -0.3107 H       1  LIG1        0.1655
     41 H         -10.3916    4.6810    0.0701 H       1  LIG1        0.0845
     42 C          -5.8218    3.8939    0.7397 C.1     1  LIG1       -0.0638
     43 C          -4.6305    3.9597    0.9673 C.1     1  LIG1       -0.1137
     44 H          -3.5862    4.0444    1.1585 H       1  LIG1        0.1232
     45 O          -7.8918    6.0966    0.7839 O.3     1  LIG1       -0.5040
     46 H          -8.6999    6.6230    0.7429 H       1  LIG1        0.2923
@<TRIPOS>BOND
     1    32    31    1
     2    10     9    1
     3    31    30    3
     4     9     8    3
     5    12    11    1
     6    34    33    1
     7    30    25    1
     8     8     2    1
     9    11     3    1
    10    33    26    1
    11    18    17    1
    12     2     3   ar
    13     2     1   ar
    14    25    26   ar
    15    25    24   ar
    16     3     4   ar
    17    26    27   ar
    18    40    39    1
    19    17    16   ar
    20    17    13   ar
    21     1     7    1
    22     1     5   ar
    23    24    16    1
    24    24    28   ar
    25     4    13    1
    26     4     5   ar
    27    39    35   ar
    28    39    38   ar
    29    27    35    1
    30    27    28   ar
    31    16    15   ar
    32    41    38    1
    33    13    14   ar
    34    35    36   ar
    35     5     6    1
    36    28    29    1
    37    38    37   ar
    38    15    14   ar
    39    15    22    1
    40    14    19    1
    41    36    37   ar
    42    36    42    1
    43    37    45    1
    44    22    23    1
    45    42    43    3
    46    46    45    1
    47    19    20    3
    48    43    44    1
    49    20    21    1
