@<TRIPOS>MOLECULE
mol_data/opt/b3lyp/geoms/mol2/13ef13ef-.out
 24 25 0 0 0
SMALL
GASTEIGER

@<TRIPOS>ATOM
      1 C           1.1808   -0.3227    0.0279 C.ar    1  LIG1        0.0213
      2 C           0.7544    1.0047    0.0298 C.ar    1  LIG1        0.0840
      3 C          -0.6734    0.9635    0.0157 C.ar    1  LIG1        0.1589
      4 C          -1.0808   -0.3606    0.0059 C.ar    1  LIG1        0.1074
      5 N           0.0806   -1.1213    0.0143 N.ar    1  LIG1       -0.3554
      6 H           0.0755   -2.1313    0.0078 H       1  LIG1        0.1655
      7 H           2.1812   -0.7256    0.0362 H       1  LIG1        0.0820
      8 C           1.5170    2.1972    0.0429 C.1     1  LIG1       -0.0645
      9 C           2.0949    3.2631    0.0534 C.1     1  LIG1       -0.1137
     10 H           2.6342    4.1816    0.0631 H       1  LIG1        0.1232
     11 O          -1.5307    2.0271    0.0124 O.3     1  LIG1       -0.5035
     12 H          -1.0005    2.8380    0.0212 H       1  LIG1        0.2923
     13 C          -2.4033   -0.9227   -0.0098 C.ar    1  LIG1        0.0857
     14 C          -2.8381   -2.2599   -0.0211 C.ar    1  LIG1        0.0928
     15 C          -4.2734   -2.2242   -0.0354 C.ar    1  LIG1        0.1501
     16 C          -4.6699   -0.9084   -0.0325 C.ar    1  LIG1        0.0454
     17 N          -3.5187   -0.1365   -0.0168 N.ar    1  LIG1       -0.3554
     18 H          -3.4762    0.8718   -0.0115 H       1  LIG1        0.1655
     19 H          -5.6547   -0.4717   -0.0397 H       1  LIG1        0.0845
     20 C          -2.0526   -3.4336   -0.0197 C.1     1  LIG1       -0.0638
     21 C          -1.4124   -4.4671   -0.0192 C.1     1  LIG1       -0.1137
     22 H          -0.8560   -5.3755   -0.0185 H       1  LIG1        0.1232
     23 O          -5.1047   -3.3014   -0.0491 O.3     1  LIG1       -0.5040
     24 H          -4.5544   -4.0976   -0.0495 H       1  LIG1        0.2923
@<TRIPOS>BOND
     1    24    23    1
     2    23    15    1
     3    19    16    1
     4    15    16   ar
     5    15    14   ar
     6    16    17   ar
     7    14    20    1
     8    14    13   ar
     9    20    21    3
    10    21    22    1
    11    17    18    1
    12    17    13   ar
    13    13     4    1
    14     4     5   ar
    15     4     3   ar
    16     6     5    1
    17    11     3    1
    18    11    12    1
    19     5     1   ar
    20     3     2   ar
    21     1     2   ar
    22     1     7    1
    23     2     8    1
    24     8     9    3
    25     9    10    1
