@<TRIPOS>MOLECULE
mol_data/opt/b3lyp/geoms/mol2/13ef13ef-13ef-13ef-.out
 46 49 0 0 0
SMALL
GASTEIGER

@<TRIPOS>ATOM
      1 C           1.2754   -0.2074   -0.4015 C.ar    1  LIG1        0.0213
      2 C           0.7503    1.0233   -0.7940 C.ar    1  LIG1        0.0840
      3 C          -0.6650    0.9174   -0.6419 C.ar    1  LIG1        0.1589
      4 C          -0.9692   -0.3506   -0.1701 C.ar    1  LIG1        0.1074
      5 N           0.2441   -1.0125   -0.0333 N.ar    1  LIG1       -0.3554
      6 H           0.3183   -1.9649    0.2945 H       1  LIG1        0.1655
      7 H           2.3011   -0.5392   -0.3672 H       1  LIG1        0.0820
      8 C           1.4172    2.1820   -1.2597 C.1     1  LIG1       -0.0645
      9 C           1.9102    3.2117   -1.6672 C.1     1  LIG1       -0.1137
     10 H           2.3758    4.1020   -2.0219 H       1  LIG1        0.1232
     11 O          -1.5998    1.8760   -0.9083 O.3     1  LIG1       -0.5035
     12 H          -1.1411    2.6512   -1.2660 H       1  LIG1        0.2923
     13 C          -2.2420   -0.9395    0.1292 C.ar    1  LIG1        0.0862
     14 C          -2.5835   -2.2297    0.5704 C.ar    1  LIG1        0.0935
     15 C          -4.0121   -2.2745    0.6537 C.ar    1  LIG1        0.1596
     16 C          -4.5163   -1.0425    0.2673 C.ar    1  LIG1        0.1079
     17 N          -3.4066   -0.2423   -0.0247 N.ar    1  LIG1       -0.3478
     18 H          -3.4405    0.6478   -0.5018 H       1  LIG1        0.1661
     19 C          -1.7182   -3.2954    0.9043 C.1     1  LIG1       -0.0638
     20 C          -1.0083   -4.2365    1.1994 C.1     1  LIG1       -0.1137
     21 H          -0.3908   -5.0643    1.4615 H       1  LIG1        0.1232
     22 O          -4.7560   -3.3190    1.0891 O.3     1  LIG1       -0.5034
     23 H          -4.1550   -4.0494    1.2956 H       1  LIG1        0.2923
     24 C          -5.8591   -0.5193    0.2248 C.ar    1  LIG1        0.0862
     25 C          -7.0770   -1.1042   -0.1555 C.ar    1  LIG1        0.0935
     26 C          -8.0825   -0.0920   -0.0437 C.ar    1  LIG1        0.1596
     27 C          -7.4877    1.0843    0.3824 C.ar    1  LIG1        0.1079
     28 N          -6.1317    0.7876    0.5437 N.ar    1  LIG1       -0.3478
     29 H          -5.4412    1.4594    0.8380 H       1  LIG1        0.1661
     30 C          -7.3545   -2.4095   -0.6218 C.1     1  LIG1       -0.0638
     31 C          -7.7062   -3.4911   -1.0429 C.1     1  LIG1       -0.1137
     32 H          -7.9697   -4.4575   -1.4044 H       1  LIG1        0.1232
     33 O          -9.4029   -0.2580   -0.2924 O.3     1  LIG1       -0.5034
     34 H          -9.5283   -1.1751   -0.5817 H       1  LIG1        0.2923
     35 C          -8.0248    2.3862    0.7008 C.ar    1  LIG1        0.0857
     36 C          -9.0021    3.1672    0.0737 C.ar    1  LIG1        0.0928
     37 C          -9.1178    4.3817    0.8339 C.ar    1  LIG1        0.1501
     38 C          -8.2271    4.3276    1.8763 C.ar    1  LIG1        0.0454
     39 N          -7.5489    3.1188    1.7661 N.ar    1  LIG1       -0.3554
     40 H          -7.0314    2.7021    2.5240 H       1  LIG1        0.1655
     41 H          -8.0081    5.0398    2.6548 H       1  LIG1        0.0845
     42 C          -9.7253    2.9333   -1.1182 C.1     1  LIG1       -0.0638
     43 C         -10.3887    2.8423   -2.1296 C.1     1  LIG1       -0.1137
     44 H         -10.9573    2.7117   -3.0204 H       1  LIG1        0.1232
     45 O          -9.9467    5.4187    0.5442 O.3     1  LIG1       -0.5040
     46 H         -10.4420    5.1733   -0.2525 H       1  LIG1        0.2923
@<TRIPOS>BOND
     1    44    43    1
     2    43    42    3
     3    10     9    1
     4     9     8    3
     5    32    31    1
     6    12    11    1
     7     8     2    1
     8    42    36    1
     9    31    30    3
    10    11     3    1
    11     2     3   ar
    12     2     1   ar
    13     3     4   ar
    14    30    25    1
    15    34    33    1
    16    18    17    1
    17     1     7    1
    18     1     5   ar
    19    33    26    1
    20    46    45    1
    21     4     5   ar
    22     4    13    1
    23    25    26   ar
    24    25    24   ar
    25    26    27   ar
    26     5     6    1
    27    17    13   ar
    28    17    16   ar
    29    36    35   ar
    30    36    37   ar
    31    13    14   ar
    32    24    16    1
    33    24    28   ar
    34    16    15   ar
    35    27    28   ar
    36    27    35    1
    37    28    29    1
    38    45    37    1
    39    14    15   ar
    40    14    19    1
    41    15    22    1
    42    35    39   ar
    43    37    38   ar
    44    19    20    3
    45    22    23    1
    46    20    21    1
    47    39    38   ar
    48    39    40    1
    49    38    41    1
