@<TRIPOS>MOLECULE
mol_data/opt/b3lyp/geoms/mol2/13ef13ef-13ef13ef-.out
 46 49 0 0 0
SMALL
GASTEIGER

@<TRIPOS>ATOM
      1 C           1.3408   -0.3148   -0.0013 C.ar    1  LIG1        0.0213
      2 C           0.9264    1.0165   -0.0007 C.ar    1  LIG1        0.0840
      3 C          -0.5012    0.9891    0.0001 C.ar    1  LIG1        0.1589
      4 C          -0.9214   -0.3330    0.0001 C.ar    1  LIG1        0.1074
      5 N           0.2352   -1.1041   -0.0008 N.ar    1  LIG1       -0.3554
      6 H           0.2247   -2.1140   -0.0012 H       1  LIG1        0.1655
      7 H           2.3379   -0.7261   -0.0018 H       1  LIG1        0.0820
      8 C           1.6999    2.2020   -0.0008 C.1     1  LIG1       -0.0645
      9 C           2.2885    3.2618   -0.0008 C.1     1  LIG1       -0.1137
     10 H           2.8373    4.1749   -0.0009 H       1  LIG1        0.1232
     11 O          -1.3444    2.0591    0.0008 O.3     1  LIG1       -0.5035
     12 H          -0.8053    2.8641    0.0011 H       1  LIG1        0.2923
     13 C          -2.2438   -0.8878    0.0005 C.ar    1  LIG1        0.0862
     14 C          -2.6693   -2.2328    0.0001 C.ar    1  LIG1        0.0935
     15 C          -4.0935   -2.2039    0.0010 C.ar    1  LIG1        0.1596
     16 C          -4.5164   -0.8825    0.0021 C.ar    1  LIG1        0.1079
     17 N          -3.3618   -0.1061    0.0018 N.ar    1  LIG1       -0.3478
     18 H          -3.3471    0.9061    0.0020 H       1  LIG1        0.1661
     19 C          -1.8828   -3.4061   -0.0011 C.1     1  LIG1       -0.0638
     20 C          -1.2459   -4.4411   -0.0022 C.1     1  LIG1       -0.1137
     21 H          -0.6901   -5.3501   -0.0030 H       1  LIG1        0.1232
     22 O          -4.9392   -3.2724    0.0010 O.3     1  LIG1       -0.5034
     23 H          -4.4086   -4.0818   -0.0001 H       1  LIG1        0.2923
     24 C          -5.8437   -0.3433    0.0031 C.ar    1  LIG1        0.0862
     25 C          -6.2902    0.9950    0.0038 C.ar    1  LIG1        0.0935
     26 C          -7.7134    0.9431    0.0046 C.ar    1  LIG1        0.1596
     27 C          -8.1171   -0.3826    0.0043 C.ar    1  LIG1        0.1079
     28 N          -6.9535   -1.1419    0.0034 N.ar    1  LIG1       -0.3478
     29 H          -6.9266   -2.1536    0.0032 H       1  LIG1        0.1661
     30 C          -5.5302    2.1850    0.0036 C.1     1  LIG1       -0.0638
     31 C          -4.9273    3.2395    0.0035 C.1     1  LIG1       -0.1137
     32 H          -4.3840    4.1554    0.0032 H       1  LIG1        0.1232
     33 O          -8.5748    2.0040    0.0055 O.3     1  LIG1       -0.5034
     34 H          -8.0496    2.8176    0.0050 H       1  LIG1        0.2923
     35 C          -9.4420   -0.9342    0.0048 C.ar    1  LIG1        0.0857
     36 C          -9.8958   -2.2658    0.0052 C.ar    1  LIG1        0.0928
     37 C         -11.3300   -2.2109    0.0058 C.ar    1  LIG1        0.1501
     38 C         -11.7106   -0.8906    0.0059 C.ar    1  LIG1        0.0454
     39 N         -10.5498   -0.1335    0.0053 N.ar    1  LIG1       -0.3554
     40 H         -10.4949    0.8740    0.0053 H       1  LIG1        0.1655
     41 H         -12.6898   -0.4412    0.0062 H       1  LIG1        0.0845
     42 C          -9.1370   -3.4562    0.0049 C.1     1  LIG1       -0.0638
     43 C          -8.5342   -4.5113    0.0046 C.1     1  LIG1       -0.1137
     44 H          -7.9942   -5.4289    0.0045 H       1  LIG1        0.1232
     45 O         -12.1717   -3.2806    0.0062 O.3     1  LIG1       -0.5040
     46 H         -11.6248   -4.0796    0.0061 H       1  LIG1        0.2923
@<TRIPOS>BOND
     1    21    20    1
     2    20    19    3
     3     7     1    1
     4     1     5   ar
     5     1     2   ar
     6     6     5    1
     7    19    14    1
     8    10     9    1
     9     9     8    3
    10     5     4   ar
    11     8     2    1
    12     2     3   ar
    13    23    22    1
    14     4     3   ar
    15     4    13    1
    16     3    11    1
    17    14    13   ar
    18    14    15   ar
    19    13    17   ar
    20    11    12    1
    21    15    22    1
    22    15    16   ar
    23    17    18    1
    24    17    16   ar
    25    16    24    1
    26    24    28   ar
    27    24    25   ar
    28    29    28    1
    29    32    31    1
    30    28    27   ar
    31    31    30    3
    32    30    25    1
    33    25    26   ar
    34    27    26   ar
    35    27    35    1
    36    44    43    1
    37    26    33    1
    38    43    42    3
    39    35    36   ar
    40    35    39   ar
    41    42    36    1
    42    34    33    1
    43    36    37   ar
    44    40    39    1
    45    39    38   ar
    46    37    38   ar
    47    37    45    1
    48    38    41    1
    49    46    45    1
