@<TRIPOS>MOLECULE
mol_data/opt/b3lyp/geoms/mol2/13ef13ef13ef-13ef.out
 46 49 0 0 0
SMALL
GASTEIGER

@<TRIPOS>ATOM
      1 C           1.2598   -0.1955   -0.5217 C.ar    1  LIG1        0.0213
      2 C           0.9496    1.0252    0.0622 C.ar    1  LIG1        0.0840
      3 C          -0.4706    1.0340    0.2629 C.ar    1  LIG1        0.1589
      4 C          -0.9810   -0.1797   -0.1960 C.ar    1  LIG1        0.1074
      5 N           0.1133   -0.9222   -0.6502 N.ar    1  LIG1       -0.3554
      6 H           0.0229   -1.7283   -1.2490 H       1  LIG1        0.1655
      7 H           2.2138   -0.5723   -0.8565 H       1  LIG1        0.0820
      8 C           1.8587    2.0570    0.4056 C.1     1  LIG1       -0.0645
      9 C           2.6380    2.9364    0.6951 C.1     1  LIG1       -0.1137
     10 H           3.3164    3.7156    0.9531 H       1  LIG1        0.1232
     11 O          -1.1045    2.0597    0.8711 O.3     1  LIG1       -0.5035
     12 H          -2.0562    2.0317    0.6760 H       1  LIG1        0.2923
     13 C          -2.3040   -0.7427   -0.1647 C.ar    1  LIG1        0.0862
     14 C          -3.5712   -0.1277   -0.1880 C.ar    1  LIG1        0.0935
     15 C          -4.5397   -1.1748   -0.1319 C.ar    1  LIG1        0.1596
     16 C          -3.8801   -2.3917   -0.0896 C.ar    1  LIG1        0.1079
     17 N          -2.5178   -2.0943   -0.1222 N.ar    1  LIG1       -0.3478
     18 H          -1.8071   -2.7861    0.0712 H       1  LIG1        0.1661
     19 C          -3.8767    1.2456   -0.3043 C.1     1  LIG1       -0.0638
     20 C          -4.1818    2.4196   -0.3818 C.1     1  LIG1       -0.1137
     21 H          -4.4335    3.4484   -0.5004 H       1  LIG1        0.1232
     22 O          -5.8938   -1.0444   -0.1431 O.3     1  LIG1       -0.5034
     23 H          -6.1118   -0.1018   -0.1735 H       1  LIG1        0.2923
     24 C          -4.3865   -3.7297   -0.0251 C.ar    1  LIG1        0.0862
     25 C          -3.6942   -4.9582    0.0468 C.ar    1  LIG1        0.0935
     26 C          -4.6895   -5.9764    0.0990 C.ar    1  LIG1        0.1596
     27 C          -5.9415   -5.3839    0.0599 C.ar    1  LIG1        0.1079
     28 N          -5.7216   -4.0140   -0.0160 N.ar    1  LIG1       -0.3478
     29 H          -6.4610   -3.3223   -0.0571 H       1  LIG1        0.1661
     30 C          -2.3013   -5.1874    0.0814 C.1     1  LIG1       -0.0638
     31 C          -1.1115   -5.4352    0.1161 C.1     1  LIG1       -0.1137
     32 H          -0.0707   -5.6582    0.1626 H       1  LIG1        0.1232
     33 O          -4.4858   -7.3261    0.1758 O.3     1  LIG1       -0.5034
     34 H          -3.5319   -7.4880    0.2041 H       1  LIG1        0.2923
     35 C          -7.2423   -5.9927    0.0866 C.ar    1  LIG1        0.0857
     36 C          -8.5309   -5.4307    0.0464 C.ar    1  LIG1        0.0928
     37 C          -9.4512   -6.5268    0.1041 C.ar    1  LIG1        0.1501
     38 C          -8.7281   -7.6965    0.1758 C.ar    1  LIG1        0.0454
     39 N          -7.3874   -7.3504    0.1639 N.ar    1  LIG1       -0.3554
     40 H          -6.6042   -7.9848    0.2054 H       1  LIG1        0.1655
     41 H          -9.0481   -8.7252    0.2336 H       1  LIG1        0.0845
     42 C          -8.8510   -4.0562   -0.0355 C.1     1  LIG1       -0.0638
     43 C          -9.1092   -2.8728   -0.1060 C.1     1  LIG1       -0.1137
     44 H          -9.3642   -1.8412   -0.1677 H       1  LIG1        0.1232
     45 O         -10.8021   -6.3450    0.0855 O.3     1  LIG1       -0.5040
     46 H         -11.2330   -7.2074    0.1340 H       1  LIG1        0.2923
@<TRIPOS>BOND
     1     6     5    1
     2     7     1    1
     3     5     1   ar
     4     5     4   ar
     5     1     2   ar
     6    21    20    1
     7    20    19    3
     8    19    14    1
     9     4    13    1
    10     4     3   ar
    11    14    13   ar
    12    14    15   ar
    13    23    22    1
    14    44    43    1
    15    13    17   ar
    16    22    15    1
    17    15    16   ar
    18    17    16   ar
    19    17    18    1
    20    43    42    3
    21    16    24    1
    22    29    28    1
    23    42    36    1
    24    24    28   ar
    25    24    25   ar
    26    28    27   ar
    27    36    35   ar
    28    36    37   ar
    29    25    30    1
    30    25    26   ar
    31    27    35    1
    32    27    26   ar
    33     2     3   ar
    34     2     8    1
    35    30    31    3
    36    45    37    1
    37    45    46    1
    38    35    39   ar
    39    26    33    1
    40    37    38   ar
    41    31    32    1
    42    39    38   ar
    43    39    40    1
    44    38    41    1
    45    33    34    1
    46     3    11    1
    47     8     9    3
    48    12    11    1
    49     9    10    1
