@<TRIPOS>MOLECULE
mol_data/opt/b3lyp/geoms/mol2/13ef13ef13ef13ef-.out
 46 49 0 0 0
SMALL
GASTEIGER

@<TRIPOS>ATOM
      1 C           0.9433    0.0161   -1.3280 C.ar    1  LIG1        0.0213
      2 C           0.8419    1.0367   -0.3950 C.ar    1  LIG1        0.0840
      3 C          -0.4793    0.9540    0.1628 C.ar    1  LIG1        0.1589
      4 C          -1.1361   -0.1176   -0.4386 C.ar    1  LIG1        0.1074
      5 N          -0.2234   -0.6951   -1.3307 N.ar    1  LIG1       -0.3554
      6 H          -0.5098   -1.2724   -2.1070 H       1  LIG1        0.1655
      7 H           1.7610   -0.2316   -1.9873 H       1  LIG1        0.0820
      8 C           1.8485    1.9717   -0.0463 C.1     1  LIG1       -0.0645
      9 C           2.7098    2.7695    0.2471 C.1     1  LIG1       -0.1137
     10 H           3.4609    3.4767    0.5112 H       1  LIG1        0.1232
     11 O          -0.8942    1.7660    1.1556 O.3     1  LIG1       -0.5035
     12 H          -1.8680    1.7957    1.1794 H       1  LIG1        0.2923
     13 C          -2.4213   -0.7160   -0.1882 C.ar    1  LIG1        0.0862
     14 C          -3.6378   -0.1483    0.2289 C.ar    1  LIG1        0.0935
     15 C          -4.5991   -1.2035    0.2972 C.ar    1  LIG1        0.1596
     16 C          -3.9734   -2.3908   -0.0791 C.ar    1  LIG1        0.1079
     17 N          -2.6465   -2.0546   -0.3698 N.ar    1  LIG1       -0.3478
     18 H          -1.9388   -2.7145   -0.6487 H       1  LIG1        0.1661
     19 C          -3.8742    1.2205    0.4907 C.1     1  LIG1       -0.0638
     20 C          -4.0470    2.3983    0.7275 C.1     1  LIG1       -0.1137
     21 H          -4.2325    3.4346    0.8919 H       1  LIG1        0.1232
     22 O          -5.8664   -0.9905    0.7098 O.3     1  LIG1       -0.5034
     23 H          -6.4400   -1.7270    0.4389 H       1  LIG1        0.2923
     24 C          -4.4293   -3.7529   -0.1062 C.ar    1  LIG1        0.0862
     25 C          -5.7156   -4.2934   -0.3072 C.ar    1  LIG1        0.0935
     26 C          -5.5839   -5.7128   -0.2259 C.ar    1  LIG1        0.1596
     27 C          -4.2565   -6.0260    0.0027 C.ar    1  LIG1        0.1079
     28 N          -3.5750   -4.8126    0.0596 N.ar    1  LIG1       -0.3478
     29 H          -2.6262   -4.7503    0.4025 H       1  LIG1        0.1661
     30 C          -6.9164   -3.6121   -0.6006 C.1     1  LIG1       -0.0638
     31 C          -7.9759   -3.0634   -0.8337 C.1     1  LIG1       -0.1137
     32 H          -8.8864   -2.5708   -1.0874 H       1  LIG1        0.1232
     33 O          -6.5695   -6.6452   -0.3720 O.3     1  LIG1       -0.5034
     34 H          -7.4083   -6.1849   -0.5191 H       1  LIG1        0.2923
     35 C          -3.6114   -7.2966    0.1633 C.ar    1  LIG1        0.0857
     36 C          -2.2662   -7.6149    0.4283 C.ar    1  LIG1        0.0928
     37 C          -2.1898   -9.0469    0.4950 C.ar    1  LIG1        0.1501
     38 C          -3.4484   -9.5544    0.2763 C.ar    1  LIG1        0.0454
     39 N          -4.2948   -8.4752    0.0770 N.ar    1  LIG1       -0.3554
     40 H          -5.2861   -8.5218   -0.1051 H       1  LIG1        0.1655
     41 H          -3.7989  -10.5726    0.2475 H       1  LIG1        0.0845
     42 C          -1.1825   -6.7297    0.6193 C.1     1  LIG1       -0.0638
     43 C          -0.2254   -5.9993    0.7911 C.1     1  LIG1       -0.1137
     44 H           0.6169   -5.3710    0.9683 H       1  LIG1        0.1232
     45 O          -1.0719   -9.7844    0.7323 O.3     1  LIG1       -0.5040
     46 H          -0.3349   -9.1714    0.8649 H       1  LIG1        0.2923
@<TRIPOS>BOND
     1     6     5    1
     2     7     1    1
     3     5     1   ar
     4     5     4   ar
     5     1     2   ar
     6    32    31    1
     7    31    30    3
     8    18    17    1
     9    30    25    1
    10    34    33    1
    11     4    13    1
    12     4     3   ar
    13     2     8    1
    14     2     3   ar
    15    33    26    1
    16    17    13   ar
    17    17    16   ar
    18    25    26   ar
    19    25    24   ar
    20    26    27   ar
    21    13    14   ar
    22    24    16    1
    23    24    28   ar
    24    40    39    1
    25    16    15   ar
    26     8     9    3
    27    27    28   ar
    28    27    35    1
    29    28    29    1
    30    39    35   ar
    31    39    38   ar
    32     3    11    1
    33    35    36   ar
    34    14    15   ar
    35    14    19    1
    36     9    10    1
    37    41    38    1
    38    38    37   ar
    39    15    22    1
    40    36    37   ar
    41    36    42    1
    42    23    22    1
    43    19    20    3
    44    37    45    1
    45    42    43    3
    46    20    21    1
    47    45    46    1
    48    43    44    1
    49    11    12    1
