@<TRIPOS>MOLECULE
mol_data/opt/b3lyp/geoms/mol2/13ef4ed-6if-6di.out
 52 55 0 0 0
SMALL
GASTEIGER

@<TRIPOS>ATOM
      1 C           1.3017   -0.1081   -0.8578 C.ar    1  LIG1        0.0213
      2 C           1.0033    1.1820   -0.4401 C.ar    1  LIG1        0.0839
      3 C          -0.3671    1.1676   -0.0216 C.ar    1  LIG1        0.1574
      4 C          -0.8695   -0.1261   -0.2013 C.ar    1  LIG1        0.0909
      5 N           0.1833   -0.8712   -0.7408 N.ar    1  LIG1       -0.3566
      6 H           0.1744   -1.8768   -0.8066 H       1  LIG1        0.1655
      7 H           2.2373   -0.5171   -1.2067 H       1  LIG1        0.0820
      8 C           1.8765    2.2984   -0.4339 C.1     1  LIG1       -0.0645
      9 C           2.6265    3.2479   -0.4281 C.1     1  LIG1       -0.1137
     10 H           3.2801    4.0887   -0.4214 H       1  LIG1        0.1232
     11 O          -1.0026    2.2945    0.3635 O.3     1  LIG1       -0.5035
     12 H          -1.7204    2.0703    0.9794 H       1  LIG1        0.2923
     13 C          -3.1428   -0.3699    0.9126 C.ar    1  LIG1        0.0345
     14 C          -4.4174   -0.9656    0.9213 C.ar    1  LIG1       -0.0367
     15 C          -2.1997   -0.7084   -0.0992 C.ar    1  LIG1        0.0185
     16 C          -4.8023   -1.9303   -0.0071 C.ar    1  LIG1        0.0025
     17 H          -5.1111   -0.6850    1.7065 H       1  LIG1        0.0636
     18 C          -2.6000   -1.6725   -1.0424 C.ar    1  LIG1       -0.0333
     19 C          -3.8582   -2.2800   -1.0030 C.ar    1  LIG1        0.0602
     20 H          -1.9321   -1.9247   -1.8584 H       1  LIG1        0.0637
     21 C          -2.8218    0.5275    1.9744 C.1     1  LIG1       -0.0690
     22 C          -2.5756    1.2854    2.8885 C.1     1  LIG1       -0.1139
     23 H          -2.3431    1.9235    3.7109 H       1  LIG1        0.1232
     24 N          -4.4254   -3.9931   -2.8720 N.1     1  LIG1       -0.1908
     25 C          -4.1862   -3.2263   -2.0303 C.1     1  LIG1        0.0998
     26 C          -6.3976   -3.8854    0.3784 C.ar    1  LIG1        0.0469
     27 C          -6.1673   -2.5250    0.0553 C.ar    1  LIG1        0.0079
     28 C          -7.2713   -1.7005   -0.1620 C.ar    1  LIG1       -0.0086
     29 C          -8.5607   -2.2261   -0.0943 C.ar    1  LIG1        0.1434
     30 C          -8.6994   -3.5960    0.1912 C.ar    1  LIG1        0.1153
     31 N          -7.6382   -4.3753    0.4355 N.ar    1  LIG1       -0.2475
     32 H          -7.1460   -0.6468   -0.3892 H       1  LIG1        0.0661
     33 C          -5.2882   -4.8579    0.6936 C.3     1  LIG1       -0.0217
     34 H          -4.4654   -4.3776    1.2301 H       1  LIG1        0.0293
     35 H          -4.8791   -5.2984   -0.2227 H       1  LIG1        0.0293
     36 H          -5.6911   -5.6665    1.3052 H       1  LIG1        0.0293
     37 O          -9.6054   -1.3741   -0.3012 O.3     1  LIG1       -0.5046
     38 H         -10.4324   -1.8231   -0.0749 H       1  LIG1        0.2922
     39 C         -10.4286   -5.0572    1.3441 C.ar    1  LIG1        0.1493
     40 C         -10.0340   -4.2524    0.2501 C.ar    1  LIG1        0.0400
     41 C         -10.9505   -4.1306   -0.8015 C.ar    1  LIG1       -0.0454
     42 C         -12.1833   -4.7896   -0.7615 C.ar    1  LIG1       -0.0316
     43 C         -12.4459   -5.5615    0.3777 C.ar    1  LIG1        0.0320
     44 N         -11.6056   -5.6955    1.4043 N.ar    1  LIG1       -0.2437
     45 H         -10.6808   -3.5428   -1.6759 H       1  LIG1        0.0628
     46 H         -13.3883   -6.0998    0.4633 H       1  LIG1        0.0832
     47 N          -8.9547   -5.3212    3.4769 N.1     1  LIG1       -0.1893
     48 C          -9.5865   -5.2089    2.5083 C.1     1  LIG1        0.1198
     49 C         -13.1701   -4.6987   -1.8959 C.3     1  LIG1       -0.0383
     50 H         -14.1109   -5.1939   -1.6433 H       1  LIG1        0.0278
     51 H         -12.7738   -5.1742   -2.8001 H       1  LIG1        0.0278
     52 H         -13.3928   -3.6569   -2.1494 H       1  LIG1        0.0278
@<TRIPOS>BOND
     1    24    25    3
     2    51    49    1
     3    52    49    1
     4    25    19    1
     5    49    50    1
     6    49    42    1
     7    20    18    1
     8    45    41    1
     9     7     1    1
    10    18    19   ar
    11    18    15   ar
    12    19    16   ar
    13     1     5   ar
    14     1     2   ar
    15     6     5    1
    16    41    42   ar
    17    41    40   ar
    18    42    43   ar
    19     5     4   ar
    20     2     8    1
    21     2     3   ar
    22     8     9    3
    23     9    10    1
    24    32    28    1
    25    37    29    1
    26    37    38    1
    27    35    33    1
    28     4    15    1
    29     4     3   ar
    30    28    29   ar
    31    28    27   ar
    32    15    13   ar
    33    29    30   ar
    34     3    11    1
    35    16    27    1
    36    16    14   ar
    37    27    26   ar
    38    30    40    1
    39    30    31   ar
    40    40    39   ar
    41    11    12    1
    42    43    46    1
    43    43    44   ar
    44    26    31   ar
    45    26    33    1
    46    33    34    1
    47    33    36    1
    48    13    14   ar
    49    13    21    1
    50    14    17    1
    51    39    44   ar
    52    39    48    1
    53    21    22    3
    54    48    47    3
    55    22    23    1
