@<TRIPOS>MOLECULE
mol_data/opt/b3lyp/geoms/mol2/13ef13ef13ef13ef.out
 46 49 0 0 0
SMALL
GASTEIGER

@<TRIPOS>ATOM
      1 C           0.8427    0.0177   -1.5802 C.ar    1  LIG1        0.0213
      2 C           0.8410    1.0107   -0.6130 C.ar    1  LIG1        0.0840
      3 C          -0.4275    0.9297    0.0572 C.ar    1  LIG1        0.1589
      4 C          -1.1518   -0.1140   -0.5130 C.ar    1  LIG1        0.1074
      5 N          -0.3315   -0.6782   -1.4989 N.ar    1  LIG1       -0.3554
      6 H          -0.6991   -1.2141   -2.2708 H       1  LIG1        0.1655
      7 H           1.5943   -0.2209   -2.3167 H       1  LIG1        0.0820
      8 C           1.8901    1.9203   -0.3281 C.1     1  LIG1       -0.0645
      9 C           2.7872    2.6965   -0.0893 C.1     1  LIG1       -0.1137
     10 H           3.5700    3.3854    0.1267 H       1  LIG1        0.1232
     11 O          -0.7413    1.7166    1.1064 O.3     1  LIG1       -0.5035
     12 H          -1.7095    1.7702    1.2053 H       1  LIG1        0.2923
     13 C          -2.4209   -0.6993   -0.1636 C.ar    1  LIG1        0.0862
     14 C          -3.5908   -0.1192    0.3538 C.ar    1  LIG1        0.0935
     15 C          -4.5645   -1.1596    0.4807 C.ar    1  LIG1        0.1596
     16 C          -3.9882   -2.3512    0.0461 C.ar    1  LIG1        0.1079
     17 N          -2.6781   -2.0354   -0.3316 N.ar    1  LIG1       -0.3478
     18 H          -2.0321   -2.6835   -0.7517 H       1  LIG1        0.1661
     19 C          -3.7779    1.2486    0.6580 C.1     1  LIG1       -0.0638
     20 C          -3.9053    2.4248    0.9292 C.1     1  LIG1       -0.1137
     21 H          -4.0570    3.4610    1.1255 H       1  LIG1        0.1232
     22 O          -5.7901   -0.9398    0.9973 O.3     1  LIG1       -0.5034
     23 H          -6.4101   -1.6279    0.6925 H       1  LIG1        0.2923
     24 C          -4.4723   -3.7066    0.0594 C.ar    1  LIG1        0.0862
     25 C          -5.7674   -4.2191   -0.1279 C.ar    1  LIG1        0.0935
     26 C          -5.6826   -5.6440   -0.0313 C.ar    1  LIG1        0.1596
     27 C          -4.3542   -5.9854    0.2087 C.ar    1  LIG1        0.1079
     28 N          -3.6435   -4.7815    0.2561 N.ar    1  LIG1       -0.3478
     29 H          -2.6533   -4.7194    0.4276 H       1  LIG1        0.1661
     30 C          -6.9291   -3.4622   -0.4019 C.1     1  LIG1       -0.0638
     31 C          -7.9146   -2.7863   -0.6153 C.1     1  LIG1       -0.1137
     32 H          -8.7837   -2.2183   -0.8548 H       1  LIG1        0.1232
     33 O          -6.7679   -6.4392   -0.1249 O.3     1  LIG1       -0.5034
     34 H          -6.5015   -7.3388   -0.3893 H       1  LIG1        0.2923
     35 C          -3.7211   -7.2495    0.4841 C.ar    1  LIG1        0.0857
     36 C          -4.0241   -8.5421    0.0349 C.ar    1  LIG1        0.0928
     37 C          -3.0878   -9.4313    0.6642 C.ar    1  LIG1        0.1501
     38 C          -2.2474   -8.6845    1.4519 C.ar    1  LIG1        0.0454
     39 N          -2.6238   -7.3500    1.3099 N.ar    1  LIG1       -0.3554
     40 H          -2.3944   -6.6442    1.9926 H       1  LIG1        0.1655
     41 H          -1.4079   -8.9720    2.0658 H       1  LIG1        0.0845
     42 C          -5.0255   -8.8889   -0.8997 C.1     1  LIG1       -0.0638
     43 C          -5.9091   -9.1628   -1.6860 C.1     1  LIG1       -0.1137
     44 H          -6.6440   -9.4189   -2.4137 H       1  LIG1        0.1232
     45 O          -3.0939  -10.7697    0.4238 O.3     1  LIG1       -0.5040
     46 H          -2.3917  -11.1870    0.9389 H       1  LIG1        0.2923
@<TRIPOS>BOND
     1    44    43    1
     2     7     1    1
     3     6     5    1
     4    43    42    3
     5     1     5   ar
     6     1     2   ar
     7     5     4   ar
     8    42    36    1
     9    32    31    1
    10    18    17    1
    11    31    30    3
    12     2     8    1
    13     2     3   ar
    14     4    13    1
    15     4     3   ar
    16    30    25    1
    17    34    33    1
    18    17    13   ar
    19    17    16   ar
    20     8     9    3
    21    13    14   ar
    22    25    26   ar
    23    25    24   ar
    24    33    26    1
    25     9    10    1
    26    26    27   ar
    27    36    35   ar
    28    36    37   ar
    29    16    24    1
    30    16    15   ar
    31     3    11    1
    32    24    28   ar
    33    27    28   ar
    34    27    35    1
    35    28    29    1
    36    14    15   ar
    37    14    19    1
    38    45    37    1
    39    45    46    1
    40    15    22    1
    41    35    39   ar
    42    19    20    3
    43    37    38   ar
    44    23    22    1
    45    20    21    1
    46    11    12    1
    47    39    38   ar
    48    39    40    1
    49    38    41    1
