@<TRIPOS>MOLECULE
mol_data/opt/b3lyp/geoms/mol2/13ef4fd13li-4id-.out
 53 56 0 0 0
SMALL
GASTEIGER

@<TRIPOS>ATOM
      1 C           0.3340    0.2622    2.2947 C.ar    1  LIG1        0.0189
      2 C           0.6323    1.1015    1.2360 C.ar    1  LIG1        0.0580
      3 C          -0.4396    0.9674    0.2743 C.ar    1  LIG1        0.0667
      4 C          -1.3493    0.0508    0.8010 C.ar    1  LIG1        0.0810
      5 N          -0.8427   -0.3780    2.0163 N.ar    1  LIG1       -0.3574
      6 H          -1.3704   -0.9187    2.6841 H       1  LIG1        0.1654
      7 H           0.8748    0.0872    3.2117 H       1  LIG1        0.0820
      8 C           1.7825    1.9207    1.1130 C.1     1  LIG1       -0.0669
      9 C           2.7642    2.6197    1.0076 C.1     1  LIG1       -0.1138
     10 H           3.6236    3.2413    0.9096 H       1  LIG1        0.1232
     11 C          -0.5156    1.6048   -0.9866 C.1     1  LIG1       -0.0663
     12 C          -0.5697    2.1468   -2.0665 C.1     1  LIG1       -0.1138
     13 H          -0.6421    2.6425   -3.0065 H       1  LIG1        0.1232
     14 C          -2.5803   -0.4979    0.2688 C.ar    1  LIG1        0.0834
     15 C          -3.6895    0.0954   -0.3323 C.ar    1  LIG1        0.0944
     16 C          -4.6443   -0.9443   -0.6285 C.ar    1  LIG1        0.0680
     17 C          -4.0915   -2.1461   -0.1871 C.ar    1  LIG1        0.0673
     18 N          -2.8563   -1.8440    0.3459 N.ar    1  LIG1       -0.3509
     19 H          -2.2068   -2.5395    0.6807 H       1  LIG1        0.1660
     20 N          -4.0931    2.6130   -0.7381 N.1     1  LIG1       -0.1908
     21 C          -3.8922    1.4807   -0.5579 C.1     1  LIG1        0.1026
     22 C          -5.8787   -0.7534   -1.2954 C.1     1  LIG1       -0.0662
     23 C          -6.9161   -0.5539   -1.8851 C.1     1  LIG1       -0.1138
     24 H          -7.8242   -0.3670   -2.4095 H       1  LIG1        0.1232
     25 C          -5.8417   -3.9321    0.1345 C.ar    1  LIG1        0.1298
     26 C          -6.2370   -5.2676    0.0270 C.ar    1  LIG1       -0.0115
     27 C          -4.5429   -3.5401   -0.2722 C.ar    1  LIG1        0.0412
     28 C          -5.3586   -6.2552   -0.4537 C.ar    1  LIG1       -0.0111
     29 H          -7.2399   -5.5594    0.3129 H       1  LIG1        0.0660
     30 C          -3.6767   -4.5359   -0.7440 C.ar    1  LIG1       -0.0485
     31 C          -4.0636   -5.8704   -0.8348 C.ar    1  LIG1       -0.0531
     32 H          -2.6822   -4.2491   -1.0756 H       1  LIG1        0.0625
     33 O          -6.6297   -2.9479    0.6364 O.3     1  LIG1       -0.4944
     34 C          -7.9815   -3.2407    0.9582 C.3     1  LIG1        0.0788
     35 H          -8.4186   -2.2964    1.2830 H       1  LIG1        0.0660
     36 H          -8.5303   -3.6132    0.0850 H       1  LIG1        0.0660
     37 H          -8.0539   -3.9739    1.7714 H       1  LIG1        0.0660
     38 H          -3.3631   -6.6134   -1.1989 H       1  LIG1        0.0624
     39 C          -5.5780   -8.5117   -1.6374 C.ar    1  LIG1        0.1239
     40 C          -5.8040   -7.6719   -0.5090 C.ar    1  LIG1        0.0220
     41 C          -6.4917   -8.2409    0.5637 C.ar    1  LIG1       -0.0464
     42 C          -6.9207   -9.5734    0.5437 C.ar    1  LIG1       -0.0316
     43 C          -6.6241  -10.2897   -0.6158 C.ar    1  LIG1        0.0326
     44 N          -5.9865   -9.7860   -1.6767 N.ar    1  LIG1       -0.2398
     45 H          -6.6731   -7.6321    1.4466 H       1  LIG1        0.0628
     46 H          -6.9237  -11.3342   -0.6995 H       1  LIG1        0.0833
     47 N          -4.8999   -8.0701   -2.7609 N.pl3   1  LIG1       -0.3427
     48 H          -5.0290   -8.6774   -3.5589 H       1  LIG1        0.1437
     49 H          -4.9457   -7.0822   -2.9654 H       1  LIG1        0.1437
     50 C          -7.6491  -10.2004    1.7059 C.3     1  LIG1       -0.0383
     51 H          -7.9081  -11.2411    1.4910 H       1  LIG1        0.0278
     52 H          -8.5800   -9.6690    1.9358 H       1  LIG1        0.0278
     53 H          -7.0401  -10.1932    2.6175 H       1  LIG1        0.0278
@<TRIPOS>BOND
     1    48    47    1
     2    13    12    1
     3    49    47    1
     4    47    39    1
     5    24    23    1
     6    12    11    3
     7    23    22    3
     8    44    39   ar
     9    44    43   ar
    10    39    40   ar
    11    22    16    1
    12    38    31    1
    13    32    30    1
    14    11     3    1
    15    31    30   ar
    16    31    28   ar
    17    30    27   ar
    18    20    21    3
    19    46    43    1
    20    16    15   ar
    21    16    17   ar
    22    43    42   ar
    23    21    15    1
    24    40    28    1
    25    40    41   ar
    26    28    26   ar
    27    15    14   ar
    28    27    17    1
    29    27    25   ar
    30    17    18   ar
    31    26    25   ar
    32    26    29    1
    33    36    34    1
    34    25    33    1
    35    14    18   ar
    36    14     4    1
    37     3     4   ar
    38     3     2   ar
    39    18    19    1
    40    42    41   ar
    41    42    50    1
    42    41    45    1
    43    33    34    1
    44     4     5   ar
    45    10     9    1
    46    34    35    1
    47    34    37    1
    48     9     8    3
    49     8     2    1
    50     2     1   ar
    51    51    50    1
    52    50    52    1
    53    50    53    1
    54     5     1   ar
    55     5     6    1
    56     1     7    1
