@<TRIPOS>MOLECULE
mol_data/opt/b3lyp/geoms/mol2/13ef13ef13ef.out
 35 37 0 0 0
SMALL
GASTEIGER

@<TRIPOS>ATOM
      1 C           1.2882   -0.3529   -0.0099 C.ar    1  LIG1        0.0213
      2 C           0.9628    0.9947   -0.0045 C.ar    1  LIG1        0.0840
      3 C          -0.4686    1.0734    0.0006 C.ar    1  LIG1        0.1589
      4 C          -0.9845   -0.2292   -0.0017 C.ar    1  LIG1        0.1074
      5 N           0.1346   -1.0743   -0.0081 N.ar    1  LIG1       -0.3554
      6 H           0.1164   -2.0785   -0.0127 H       1  LIG1        0.1655
      7 H           2.2571   -0.8277   -0.0149 H       1  LIG1        0.0820
      8 C           1.8663    2.0862   -0.0040 C.1     1  LIG1       -0.0645
      9 C           2.6433    3.0140   -0.0030 C.1     1  LIG1       -0.1137
     10 H           3.3179    3.8379   -0.0011 H       1  LIG1        0.1232
     11 O          -1.0916    2.2638    0.0069 O.3     1  LIG1       -0.5035
     12 H          -2.0616    2.1582    0.0090 H       1  LIG1        0.2923
     13 C          -2.3280   -0.7561    0.0016 C.ar    1  LIG1        0.0862
     14 C          -3.5918   -0.1360    0.0056 C.ar    1  LIG1        0.0935
     15 C          -4.5832   -1.1678    0.0067 C.ar    1  LIG1        0.1596
     16 C          -3.9422   -2.4053    0.0040 C.ar    1  LIG1        0.1079
     17 N          -2.5694   -2.1081    0.0011 N.ar    1  LIG1       -0.3478
     18 H          -1.8473   -2.8041   -0.0053 H       1  LIG1        0.1661
     19 C          -3.9161    1.2401    0.0078 C.1     1  LIG1       -0.0638
     20 C          -4.2569    2.4053    0.0092 C.1     1  LIG1       -0.1137
     21 H          -4.5566    3.4277    0.0102 H       1  LIG1        0.1232
     22 O          -5.8893   -0.8530    0.0113 O.3     1  LIG1       -0.5034
     23 H          -6.4474   -1.6536    0.0090 H       1  LIG1        0.2923
     24 C          -4.4196   -3.7671    0.0048 C.ar    1  LIG1        0.0857
     25 C          -5.7199   -4.3164   -0.0005 C.ar    1  LIG1        0.0928
     26 C          -5.5756   -5.7440    0.0045 C.ar    1  LIG1        0.1501
     27 C          -4.2384   -6.0467    0.0124 C.ar    1  LIG1        0.0454
     28 N          -3.5542   -4.8361    0.0123 N.ar    1  LIG1       -0.3554
     29 H          -2.5516   -4.7802    0.0214 H       1  LIG1        0.1655
     30 H          -3.7174   -6.9911    0.0183 H       1  LIG1        0.0845
     31 C          -6.9709   -3.6596   -0.0108 C.1     1  LIG1       -0.0638
     32 C          -8.0745   -3.1524   -0.0200 C.1     1  LIG1       -0.1137
     33 H          -9.0429   -2.7081   -0.0300 H       1  LIG1        0.1232
     34 O          -6.6543   -6.5729    0.0010 O.3     1  LIG1       -0.5040
     35 H          -6.3485   -7.4886    0.0049 H       1  LIG1        0.2923
@<TRIPOS>BOND
     1    33    32    1
     2    32    31    3
     3     7     1    1
     4     6     5    1
     5    31    25    1
     6     1     5   ar
     7     1     2   ar
     8     5     4   ar
     9    18    17    1
    10     2     8    1
    11     2     3   ar
    12     8     9    3
    13     9    10    1
    14     4     3   ar
    15     4    13    1
    16    25    26   ar
    17    25    24   ar
    18     3    11    1
    19    34    26    1
    20    34    35    1
    21    17    13   ar
    22    17    16   ar
    23    13    14   ar
    24    16    24    1
    25    16    15   ar
    26    26    27   ar
    27    24    28   ar
    28    14    15   ar
    29    14    19    1
    30    15    22    1
    31    11    12    1
    32    19    20    3
    33    23    22    1
    34    20    21    1
    35    28    27   ar
    36    28    29    1
    37    27    30    1
