@<TRIPOS>MOLECULE
mol_data/opt/b3lyp/geoms/mol2/13ef13ef13ef-13ef-.out
 46 49 0 0 0
SMALL
GASTEIGER

@<TRIPOS>ATOM
      1 C           1.2796   -0.1523   -0.3569 C.ar    1  LIG1        0.0213
      2 C           0.8876    1.1300    0.0030 C.ar    1  LIG1        0.0840
      3 C          -0.5445    1.1143    0.0771 C.ar    1  LIG1        0.1589
      4 C          -0.9810   -0.1736   -0.2318 C.ar    1  LIG1        0.1074
      5 N           0.1682   -0.9338   -0.4700 N.ar    1  LIG1       -0.3554
      6 H           0.1535   -1.8242   -0.9431 H       1  LIG1        0.1655
      7 H           2.2691   -0.5383   -0.5467 H       1  LIG1        0.0820
      8 C           1.7356    2.2362    0.2603 C.1     1  LIG1       -0.0645
      9 C           2.4628    3.1788    0.4770 C.1     1  LIG1       -0.1137
     10 H           3.0956    4.0134    0.6694 H       1  LIG1        0.1232
     11 O          -1.2564    2.1947    0.4639 O.3     1  LIG1       -0.5035
     12 H          -2.1858    2.1002    0.1968 H       1  LIG1        0.2923
     13 C          -2.2868   -0.7757   -0.2244 C.ar    1  LIG1        0.0862
     14 C          -3.5624   -0.2191   -0.4468 C.ar    1  LIG1        0.0935
     15 C          -4.5046   -1.2818   -0.3091 C.ar    1  LIG1        0.1596
     16 C          -3.8213   -2.4519   -0.0267 C.ar    1  LIG1        0.1079
     17 N          -2.4703   -2.1128    0.0090 N.ar    1  LIG1       -0.3478
     18 H          -1.7628   -2.7436    0.3595 H       1  LIG1        0.1661
     19 C          -3.8915    1.1076   -0.7998 C.1     1  LIG1       -0.0638
     20 C          -4.2196    2.2425   -1.0855 C.1     1  LIG1       -0.1137
     21 H          -4.4858    3.2310   -1.3824 H       1  LIG1        0.1232
     22 O          -5.8594   -1.2095   -0.4519 O.3     1  LIG1       -0.5034
     23 H          -6.0943   -0.3013   -0.6917 H       1  LIG1        0.2923
     24 C          -4.3091   -3.7803    0.1892 C.ar    1  LIG1        0.0862
     25 C          -3.6248   -4.9770    0.4712 C.ar    1  LIG1        0.0935
     26 C          -4.6127   -6.0105    0.5517 C.ar    1  LIG1        0.1596
     27 C          -5.8582   -5.4497    0.3186 C.ar    1  LIG1        0.1079
     28 N          -5.6397   -4.0831    0.1217 N.ar    1  LIG1       -0.3478
     29 H          -6.3296   -3.4324   -0.2255 H       1  LIG1        0.1661
     30 C          -2.2409   -5.1608    0.6865 C.1     1  LIG1       -0.0638
     31 C          -1.0576   -5.3625    0.8786 C.1     1  LIG1       -0.1137
     32 H          -0.0255   -5.5476    1.0676 H       1  LIG1        0.1232
     33 O          -4.3884   -7.3118    0.8544 O.3     1  LIG1       -0.5034
     34 H          -3.4360   -7.4300    0.9814 H       1  LIG1        0.2923
     35 C          -7.1895   -6.0055    0.3304 C.ar    1  LIG1        0.0857
     36 C          -7.6909   -7.2382   -0.1069 C.ar    1  LIG1        0.0928
     37 C          -9.1047   -7.2271    0.1498 C.ar    1  LIG1        0.1501
     38 C          -9.4345   -6.0197    0.7133 C.ar    1  LIG1        0.0454
     39 N          -8.2622   -5.2789    0.7939 N.ar    1  LIG1       -0.3554
     40 H          -8.1601   -4.4494    1.3567 H       1  LIG1        0.1655
     41 H         -10.3846   -5.6282    1.0375 H       1  LIG1        0.0845
     42 C          -7.0382   -8.3082   -0.7603 C.1     1  LIG1       -0.0638
     43 C          -6.5875   -9.2771   -1.3345 C.1     1  LIG1       -0.1137
     44 H          -6.1458  -10.1093   -1.8309 H       1  LIG1        0.1232
     45 O          -9.9692   -8.2327   -0.1459 O.3     1  LIG1       -0.5040
     46 H          -9.4506   -8.9446   -0.5514 H       1  LIG1        0.2923
@<TRIPOS>BOND
     1    44    43    1
     2    21    20    1
     3    43    42    3
     4    20    19    3
     5     6     5    1
     6    19    14    1
     7    42    36    1
     8    23    22    1
     9    46    45    1
    10     7     1    1
    11     5     1   ar
    12     5     4   ar
    13    22    15    1
    14    14    15   ar
    15    14    13   ar
    16     1     2   ar
    17    15    16   ar
    18     4    13    1
    19     4     3   ar
    20    29    28    1
    21    13    17   ar
    22    45    37    1
    23    36    37   ar
    24    36    35   ar
    25    16    17   ar
    26    16    24    1
    27     2     3   ar
    28     2     8    1
    29    17    18    1
    30     3    11    1
    31    28    24   ar
    32    28    27   ar
    33    37    38   ar
    34    24    25   ar
    35    12    11    1
    36     8     9    3
    37    27    35    1
    38    27    26   ar
    39    35    39   ar
    40    25    26   ar
    41    25    30    1
    42     9    10    1
    43    26    33    1
    44    30    31    3
    45    38    39   ar
    46    38    41    1
    47    39    40    1
    48    33    34    1
    49    31    32    1
