@<TRIPOS>MOLECULE
mol_data/opt/b3lyp/geoms/mol2/13ef13ef-13ef.out
 35 37 0 0 0
SMALL
GASTEIGER

@<TRIPOS>ATOM
      1 C           1.2705   -0.3800    0.0118 C.ar    1  LIG1        0.0213
      2 C           0.8738    0.9564    0.0169 C.ar    1  LIG1        0.0840
      3 C          -0.5546    0.9485    0.0133 C.ar    1  LIG1        0.1589
      4 C          -0.9922   -0.3677    0.0063 C.ar    1  LIG1        0.1074
      5 N           0.1541   -1.1542    0.0055 N.ar    1  LIG1       -0.3554
      6 H           0.1301   -2.1638    0.0007 H       1  LIG1        0.1655
      7 H           2.2619   -0.8046    0.0122 H       1  LIG1        0.0820
      8 C           1.6641    2.1308    0.0243 C.1     1  LIG1       -0.0645
      9 C           2.2682    3.1819    0.0306 C.1     1  LIG1       -0.1137
     10 H           2.8291    4.0875    0.0361 H       1  LIG1        0.1232
     11 O          -1.3835    2.0287    0.0163 O.3     1  LIG1       -0.5035
     12 H          -0.8353    2.8275    0.0212 H       1  LIG1        0.2923
     13 C          -2.3216   -0.9079    0.0003 C.ar    1  LIG1        0.0862
     14 C          -2.7589   -2.2492   -0.0072 C.ar    1  LIG1        0.0935
     15 C          -4.1832   -2.2059   -0.0110 C.ar    1  LIG1        0.1596
     16 C          -4.5930   -0.8825   -0.0060 C.ar    1  LIG1        0.1079
     17 N          -3.4332   -0.1169    0.0008 N.ar    1  LIG1       -0.3478
     18 H          -3.4205    0.8965    0.0054 H       1  LIG1        0.1661
     19 C          -1.9855   -3.4308   -0.0105 C.1     1  LIG1       -0.0638
     20 C          -1.3616   -4.4741   -0.0136 C.1     1  LIG1       -0.1137
     21 H          -0.8158   -5.3890   -0.0164 H       1  LIG1        0.1232
     22 O          -5.0398   -3.2717   -0.0181 O.3     1  LIG1       -0.5034
     23 H          -4.5126   -4.0835   -0.0208 H       1  LIG1        0.2923
     24 C          -5.9222   -0.3371   -0.0070 C.ar    1  LIG1        0.0857
     25 C          -6.3800    0.9926   -0.0023 C.ar    1  LIG1        0.0928
     26 C          -7.8110    0.9267   -0.0064 C.ar    1  LIG1        0.1501
     27 C          -8.1840   -0.3986   -0.0134 C.ar    1  LIG1        0.0454
     28 N          -7.0213   -1.1510   -0.0137 N.ar    1  LIG1       -0.3554
     29 H          -6.9590   -2.1578   -0.0176 H       1  LIG1        0.1655
     30 H          -9.1591   -0.8606   -0.0179 H       1  LIG1        0.0845
     31 C          -5.5835    2.1606    0.0049 C.1     1  LIG1       -0.0638
     32 C          -4.8867    3.1537    0.0110 C.1     1  LIG1       -0.1137
     33 H          -4.2971    4.0399    0.0164 H       1  LIG1        0.1232
     34 O          -8.5913    2.0448   -0.0035 O.3     1  LIG1       -0.5040
     35 H          -9.5187    1.7768   -0.0091 H       1  LIG1        0.2923
@<TRIPOS>BOND
     1    23    22    1
     2    22    15    1
     3    30    27    1
     4    29    28    1
     5    21    20    1
     6    28    27   ar
     7    28    24   ar
     8    20    19    3
     9    27    26   ar
    10    15    14   ar
    11    15    16   ar
    12    19    14    1
    13    35    34    1
    14    14    13   ar
    15    24    16    1
    16    24    25   ar
    17    26    34    1
    18    26    25   ar
    19    16    17   ar
    20    25    31    1
    21    13    17   ar
    22    13     4    1
    23     6     5    1
    24    17    18    1
    25    31    32    3
    26     5     4   ar
    27     5     1   ar
    28     4     3   ar
    29    32    33    1
    30     1     7    1
    31     1     2   ar
    32     3    11    1
    33     3     2   ar
    34    11    12    1
    35     2     8    1
    36     8     9    3
    37     9    10    1
