@<TRIPOS>MOLECULE
mol_data/opt/b3lyp/geoms/mol2/13ef13le12ae4la-.out
 55 58 0 0 0
SMALL
GASTEIGER

@<TRIPOS>ATOM
      1 C         -10.3450    0.4686   12.2077 C.ar    1  LIG1        0.0213
      2 C         -10.9863    1.6339   11.8074 C.ar    1  LIG1        0.0839
      3 C         -11.1716    1.5320   10.3868 C.ar    1  LIG1        0.1574
      4 C         -10.6346    0.3121    9.9630 C.ar    1  LIG1        0.0916
      5 N         -10.1614   -0.3219   11.1151 N.ar    1  LIG1       -0.3565
      6 H          -9.5723   -1.1386   11.0945 H       1  LIG1        0.1655
      7 H         -10.0065    0.1742   13.1892 H       1  LIG1        0.0820
      8 C         -11.3911    2.7075   12.6394 C.1     1  LIG1       -0.0645
      9 C         -11.7302    3.6241   13.3537 C.1     1  LIG1       -0.1137
     10 H         -12.0365    4.4336   13.9738 H       1  LIG1        0.1232
     11 O         -11.8186    2.4649    9.6636 O.3     1  LIG1       -0.5035
     12 H         -11.5458    2.3489    8.7199 H       1  LIG1        0.2923
     13 C         -10.5394    0.3310    7.4487 C.ar    1  LIG1        0.0347
     14 C         -10.5932   -0.3657    6.2450 C.ar    1  LIG1       -0.0292
     15 C         -10.6480   -0.3676    8.6725 C.ar    1  LIG1        0.0260
     16 C         -10.7330   -1.7605    6.1648 C.ar    1  LIG1        0.0254
     17 H         -10.4828    0.1891    5.3172 H       1  LIG1        0.0643
     18 C         -10.7579   -1.7681    8.6013 C.ar    1  LIG1       -0.0086
     19 C         -10.7988   -2.4566    7.3906 C.ar    1  LIG1        0.1253
     20 H         -10.8859   -2.3304    9.5243 H       1  LIG1        0.0661
     21 N         -10.3875    1.7538    7.4679 N.pl3   1  LIG1       -0.3574
     22 H          -9.5585    2.0302    7.9925 H       1  LIG1        0.1423
     23 H         -10.3180    2.1362    6.5305 H       1  LIG1        0.1423
     24 O         -10.9428   -3.8210    7.3641 O.3     1  LIG1       -0.5061
     25 H         -11.0908   -4.1337    8.2661 H       1  LIG1        0.2922
     26 C         -11.4974   -1.7958    3.7800 C.ar    1  LIG1       -0.0531
     27 C         -11.5389   -2.3817    2.5200 C.ar    1  LIG1       -0.0498
     28 C         -10.8130   -2.4185    4.8376 C.ar    1  LIG1       -0.0109
     29 C         -10.9183   -3.6081    2.2426 C.ar    1  LIG1        0.0272
     30 H         -12.0762   -1.8847    1.7203 H       1  LIG1        0.0625
     31 C         -10.1881   -3.6455    4.5756 C.ar    1  LIG1       -0.0117
     32 C         -10.2386   -4.2315    3.3096 C.ar    1  LIG1        0.1252
     33 H          -9.6505   -4.1542    5.3697 H       1  LIG1        0.0660
     34 H         -12.0264   -0.8645    3.9540 H       1  LIG1        0.0624
     35 O          -9.6094   -5.4240    3.0681 O.3     1  LIG1       -0.5061
     36 H          -9.1926   -5.7207    3.8877 H       1  LIG1        0.2922
     37 C         -10.7129   -3.5023   -0.2844 C.ar    1  LIG1        0.1281
     38 C         -10.8367   -4.1133   -1.5306 C.ar    1  LIG1       -0.0159
     39 C         -11.0109   -4.2333    0.8945 C.ar    1  LIG1        0.0307
     40 C         -11.2529   -5.4459   -1.6434 C.ar    1  LIG1       -0.0165
     41 H         -10.6090   -3.5651   -2.4366 H       1  LIG1        0.0655
     42 C         -11.4188   -5.5598    0.7603 C.ar    1  LIG1       -0.0086
     43 C         -11.5442   -6.1740   -0.4920 C.ar    1  LIG1        0.1209
     44 H         -11.6450   -6.1462    1.6425 H       1  LIG1        0.0661
     45 H         -11.3388   -5.8873   -2.6289 H       1  LIG1        0.0655
     46 O         -10.2983   -2.2052   -0.1132 O.3     1  LIG1       -0.4945
     47 C          -9.9344   -1.4609   -1.2607 C.3     1  LIG1        0.0788
     48 H          -9.6197   -0.4812   -0.8971 H       1  LIG1        0.0660
     49 H          -9.1011   -1.9283   -1.8021 H       1  LIG1        0.0660
     50 H         -10.7788   -1.3329   -1.9514 H       1  LIG1        0.0660
     51 O         -11.9606   -7.4807   -0.4719 O.3     1  LIG1       -0.4951
     52 C         -12.1075   -8.1448   -1.7133 C.3     1  LIG1        0.0788
     53 H         -12.4413   -9.1571   -1.4791 H       1  LIG1        0.0660
     54 H         -12.8581   -7.6578   -2.3506 H       1  LIG1        0.0660
     55 H         -11.1576   -8.1980   -2.2624 H       1  LIG1        0.0660
@<TRIPOS>BOND
     1    45    40    1
     2    41    38    1
     3    54    52    1
     4    55    52    1
     5    50    47    1
     6    49    47    1
     7    52    53    1
     8    52    51    1
     9    40    38   ar
    10    40    43   ar
    11    38    37   ar
    12    47    48    1
    13    47    46    1
    14    43    51    1
    15    43    42   ar
    16    37    46    1
    17    37    39   ar
    18    42    39   ar
    19    42    44    1
    20    39    29    1
    21    30    27    1
    22    29    27   ar
    23    29    32   ar
    24    27    26   ar
    25    35    32    1
    26    35    36    1
    27    32    31   ar
    28    26    34    1
    29    26    28   ar
    30    31    28   ar
    31    31    33    1
    32    28    16    1
    33    17    14    1
    34    16    14   ar
    35    16    19   ar
    36    14    13   ar
    37    23    21    1
    38    24    19    1
    39    24    25    1
    40    19    18   ar
    41    13    21    1
    42    13    15   ar
    43    21    22    1
    44    18    15   ar
    45    18    20    1
    46    15     4    1
    47    12    11    1
    48    11     3    1
    49     4     3   ar
    50     4     5   ar
    51     3     2   ar
    52     6     5    1
    53     5     1   ar
    54     2     1   ar
    55     2     8    1
    56     1     7    1
    57     8     9    3
    58     9    10    1
