@<TRIPOS>MOLECULE
mol_data/opt/b3lyp/geoms/mol2/13eg13eg13eg-13eg-.out
 46 49 0 0 0
SMALL
GASTEIGER

@<TRIPOS>ATOM
      1 C           0.6046    0.3786    1.7035 C.ar    1  LIG1        0.0188
      2 C           0.8339    0.9724    0.4717 C.ar    1  LIG1        0.0557
      3 C          -0.3190    0.7001   -0.3477 C.ar    1  LIG1        0.0469
      4 C          -1.2037   -0.0528    0.4143 C.ar    1  LIG1        0.0787
      5 N          -0.6089   -0.2457    1.6575 N.ar    1  LIG1       -0.3575
      6 H          -1.1094   -0.5778    2.4678 H       1  LIG1        0.1654
      7 H           1.2167    0.3745    2.5921 H       1  LIG1        0.0820
      8 C           1.9996    1.6894    0.0987 C.1     1  LIG1       -0.0671
      9 C           2.9959    2.2985   -0.2181 C.1     1  LIG1       -0.1138
     10 H           3.8674    2.8405   -0.5029 H       1  LIG1        0.1232
     11 S          -0.4315    1.1449   -2.0590 S.3     1  LIG1       -0.1394
     12 H          -1.7274    1.5286   -2.0427 H       1  LIG1        0.1072
     13 C          -2.4835   -0.6656    0.1110 C.ar    1  LIG1        0.0811
     14 C          -3.6619   -0.1507   -0.4418 C.ar    1  LIG1        0.0652
     15 C          -4.6313   -1.2107   -0.4630 C.ar    1  LIG1        0.0476
     16 C          -4.0294   -2.3402    0.0822 C.ar    1  LIG1        0.0791
     17 N          -2.7342   -1.9786    0.4260 N.ar    1  LIG1       -0.3500
     18 H          -2.0639   -2.5995    0.8522 H       1  LIG1        0.1661
     19 C          -3.8652    1.1858   -0.8632 C.1     1  LIG1       -0.0664
     20 C          -4.0338    2.3277   -1.2316 C.1     1  LIG1       -0.1138
     21 H          -4.2007    3.3367   -1.5303 H       1  LIG1        0.1232
     22 S          -6.2323   -1.0473   -1.2012 S.3     1  LIG1       -0.1393
     23 H          -6.9133   -1.7617   -0.2782 H       1  LIG1        0.1072
     24 C          -4.4752   -3.7084    0.2539 C.ar    1  LIG1        0.0811
     25 C          -5.6494   -4.2514    0.7772 C.ar    1  LIG1        0.0652
     26 C          -5.5458   -5.6852    0.6856 C.ar    1  LIG1        0.0476
     27 C          -4.3115   -5.9787    0.1231 C.ar    1  LIG1        0.0791
     28 N          -3.6624   -4.7660   -0.1048 N.ar    1  LIG1       -0.3500
     29 H          -2.9375   -4.6692   -0.8027 H       1  LIG1        0.1661
     30 C          -6.7073   -3.5263    1.3776 C.1     1  LIG1       -0.0664
     31 C          -7.6138   -2.9057    1.8888 C.1     1  LIG1       -0.1138
     32 H          -8.4054   -2.3700    2.3597 H       1  LIG1        0.1232
     33 S          -6.7522   -6.7784    1.3814 S.3     1  LIG1       -0.1393
     34 H          -6.6919   -7.7245    0.4182 H       1  LIG1        0.1072
     35 C          -3.6344   -7.2245   -0.1752 C.ar    1  LIG1        0.0807
     36 C          -4.0690   -8.4080   -0.7847 C.ar    1  LIG1        0.0645
     37 C          -2.9426   -9.3015   -0.8274 C.ar    1  LIG1        0.0381
     38 C          -1.8717   -8.6452   -0.2679 C.ar    1  LIG1        0.0167
     39 N          -2.2962   -7.3860    0.1037 N.ar    1  LIG1       -0.3575
     40 H          -1.7702   -6.7534    0.6857 H       1  LIG1        0.1654
     41 H          -0.8530   -8.9643   -0.1110 H       1  LIG1        0.0818
     42 C          -5.3481   -8.6612   -1.3332 C.1     1  LIG1       -0.0664
     43 C          -6.4389   -8.9019   -1.8045 C.1     1  LIG1       -0.1138
     44 H          -7.3874   -9.1003   -2.2477 H       1  LIG1        0.1232
     45 S          -3.0208  -10.9249   -1.5345 S.3     1  LIG1       -0.1400
     46 H          -1.7410  -11.2541   -1.2708 H       1  LIG1        0.1072
@<TRIPOS>BOND
     1    44    43    1
     2    11    12    1
     3    11     3    1
     4    43    42    3
     5    45    46    1
     6    45    37    1
     7    21    20    1
     8    42    36    1
     9    20    19    3
    10    22    15    1
    11    22    23    1
    12    19    14    1
    13    37    36   ar
    14    37    38   ar
    15    29    28    1
    16    36    35   ar
    17    10     9    1
    18    15    14   ar
    19    15    16   ar
    20    14    13   ar
    21     3     4   ar
    22     3     2   ar
    23    38    41    1
    24    38    39   ar
    25     9     8    3
    26    35    39   ar
    27    35    27    1
    28    28    27   ar
    29    28    24   ar
    30    16    24    1
    31    16    17   ar
    32     8     2    1
    33    39    40    1
    34    13     4    1
    35    13    17   ar
    36    27    26   ar
    37    24    25   ar
    38     4     5   ar
    39    34    33    1
    40    17    18    1
    41     2     1   ar
    42    26    25   ar
    43    26    33    1
    44    25    30    1
    45    30    31    3
    46     5     1   ar
    47     5     6    1
    48     1     7    1
    49    31    32    1
