@<TRIPOS>MOLECULE
mol_data/opt/b3lyp/geoms/mol2/13eg13eg13eg-13eg.out
 46 49 0 0 0
SMALL
GASTEIGER

@<TRIPOS>ATOM
      1 C           0.3952    0.1105    2.2578 C.ar    1  LIG1        0.0188
      2 C           0.7973    0.7837    1.1139 C.ar    1  LIG1        0.0557
      3 C          -0.2497    0.6180    0.1390 C.ar    1  LIG1        0.0469
      4 C          -1.2465   -0.1528    0.7242 C.ar    1  LIG1        0.0787
      5 N          -0.8214   -0.4583    2.0130 N.ar    1  LIG1       -0.3575
      6 H          -1.4262   -0.8390    2.7248 H       1  LIG1        0.1654
      7 H           0.8896    0.0154    3.2121 H       1  LIG1        0.0820
      8 C           2.0219    1.4794    0.9462 C.1     1  LIG1       -0.0671
      9 C           3.0685    2.0701    0.8049 C.1     1  LIG1       -0.1138
     10 H           3.9856    2.5958    0.6750 H       1  LIG1        0.1232
     11 S          -0.1325    1.1894   -1.5344 S.3     1  LIG1       -0.1394
     12 H          -1.4027    1.6387   -1.6421 H       1  LIG1        0.1072
     13 C          -2.4945   -0.6894    0.2134 C.ar    1  LIG1        0.0811
     14 C          -3.5740   -0.0857   -0.4417 C.ar    1  LIG1        0.0652
     15 C          -4.5604   -1.1026   -0.6794 C.ar    1  LIG1        0.0476
     16 C          -4.0681   -2.2942   -0.1614 C.ar    1  LIG1        0.0791
     17 N          -2.8207   -2.0139    0.3787 N.ar    1  LIG1       -0.3500
     18 H          -2.2370   -2.6866    0.8522 H       1  LIG1        0.1661
     19 C          -3.6823    1.2873   -0.7708 C.1     1  LIG1       -0.0664
     20 C          -3.7687    2.4608   -1.0600 C.1     1  LIG1       -0.1138
     21 H          -3.8666    3.4965   -1.2896 H       1  LIG1        0.1232
     22 S          -6.0522   -0.8269   -1.5941 S.3     1  LIG1       -0.1393
     23 H          -6.8623   -1.5714   -0.8093 H       1  LIG1        0.1072
     24 C          -4.5809   -3.6520   -0.1739 C.ar    1  LIG1        0.0811
     25 C          -5.8100   -4.1904    0.2232 C.ar    1  LIG1        0.0652
     26 C          -5.7480   -5.6108    0.0187 C.ar    1  LIG1        0.0476
     27 C          -4.4879   -5.9066   -0.4880 C.ar    1  LIG1        0.0791
     28 N          -3.7996   -4.7058   -0.5830 N.ar    1  LIG1       -0.3500
     29 H          -2.8552   -4.6184   -0.9264 H       1  LIG1        0.1661
     30 C          -6.8979   -3.4621    0.7631 C.1     1  LIG1       -0.0664
     31 C          -7.8304   -2.8345    1.2157 C.1     1  LIG1       -0.1138
     32 H          -8.6460   -2.2963    1.6403 H       1  LIG1        0.1232
     33 S          -7.1264   -6.6943    0.2709 S.3     1  LIG1       -0.1393
     34 H          -6.4333   -7.7179    0.8160 H       1  LIG1        0.1072
     35 C          -3.8765   -7.1412   -0.9441 C.ar    1  LIG1        0.0807
     36 C          -3.7663   -8.4024   -0.3491 C.ar    1  LIG1        0.0645
     37 C          -3.0345   -9.2396   -1.2615 C.ar    1  LIG1        0.0381
     38 C          -2.7161   -8.4748   -2.3593 C.ar    1  LIG1        0.0167
     39 N          -3.2126   -7.2049   -2.1485 N.ar    1  LIG1       -0.3575
     40 H          -3.2882   -6.4978   -2.8638 H       1  LIG1        0.1654
     41 H          -2.1801   -8.7260   -3.2614 H       1  LIG1        0.0818
     42 C          -4.2273   -8.7728    0.9366 C.1     1  LIG1       -0.0664
     43 C          -4.6220   -9.1102    2.0319 C.1     1  LIG1       -0.1138
     44 H          -4.9473   -9.4028    3.0035 H       1  LIG1        0.1232
     45 S          -2.6340  -10.9317   -0.9168 S.3     1  LIG1       -0.1400
     46 H          -2.0270  -11.1749   -2.0950 H       1  LIG1        0.1072
@<TRIPOS>BOND
     1    41    38    1
     2    40    39    1
     3    38    39   ar
     4    38    37   ar
     5    39    35   ar
     6    46    45    1
     7    12    11    1
     8    22    23    1
     9    22    15    1
    10    11     3    1
    11    21    20    1
    12    37    45    1
    13    37    36   ar
    14    20    19    3
    15    35    27    1
    16    35    36   ar
    17    29    28    1
    18    19    14    1
    19    15    14   ar
    20    15    16   ar
    21    28    27   ar
    22    28    24   ar
    23    27    26   ar
    24    14    13   ar
    25    36    42    1
    26    24    16    1
    27    24    25   ar
    28    16    17   ar
    29    26    25   ar
    30    26    33    1
    31     3     4   ar
    32     3     2   ar
    33    13    17   ar
    34    13     4    1
    35    25    30    1
    36    33    34    1
    37    17    18    1
    38    10     9    1
    39     4     5   ar
    40    30    31    3
    41     9     8    3
    42    42    43    3
    43     8     2    1
    44     2     1   ar
    45    31    32    1
    46     5     1   ar
    47     5     6    1
    48    43    44    1
    49     1     7    1
