@<TRIPOS>MOLECULE
mol_data/opt/b3lyp/geoms/mol2/13eg13eg13eg-.out
 35 37 0 0 0
SMALL
GASTEIGER

@<TRIPOS>ATOM
      1 C           0.8446   -0.0639    1.4344 C.ar    1  LIG1        0.0188
      2 C           0.8943    0.8856    0.4249 C.ar    1  LIG1        0.0557
      3 C          -0.3679    0.8301   -0.2667 C.ar    1  LIG1        0.0469
      4 C          -1.1360   -0.1529    0.3449 C.ar    1  LIG1        0.0787
      5 N          -0.3668   -0.6902    1.3720 N.ar    1  LIG1       -0.3575
      6 H          -0.7412   -1.2811    2.0987 H       1  LIG1        0.1654
      7 H           1.5811   -0.3158    2.1816 H       1  LIG1        0.0820
      8 C           1.9967    1.7281    0.1305 C.1     1  LIG1       -0.0671
      9 C           2.9395    2.4442   -0.1196 C.1     1  LIG1       -0.1138
     10 H           3.7635    3.0809   -0.3429 H       1  LIG1        0.1232
     11 S          -0.7302    1.7691   -1.7251 S.3     1  LIG1       -0.1394
     12 H          -2.0042    2.0849   -1.4027 H       1  LIG1        0.1072
     13 C          -2.4517   -0.6913    0.0528 C.ar    1  LIG1        0.0811
     14 C          -3.6932   -0.0752   -0.1425 C.ar    1  LIG1        0.0652
     15 C          -4.6634   -1.1130   -0.3564 C.ar    1  LIG1        0.0476
     16 C          -3.9986   -2.3309   -0.2791 C.ar    1  LIG1        0.0791
     17 N          -2.6654   -2.0464   -0.0220 N.ar    1  LIG1       -0.3500
     18 H          -1.9463   -2.7435    0.0970 H       1  LIG1        0.1661
     19 C          -3.9438    1.3177   -0.0955 C.1     1  LIG1       -0.0664
     20 C          -4.1533    2.5107   -0.0637 C.1     1  LIG1       -0.1138
     21 H          -4.3521    3.5559   -0.0073 H       1  LIG1        0.1232
     22 S          -6.3577   -0.8009   -0.7698 S.3     1  LIG1       -0.1393
     23 H          -6.8988   -1.7570    0.0170 H       1  LIG1        0.1072
     24 C          -4.4352   -3.7014   -0.4707 C.ar    1  LIG1        0.0807
     25 C          -5.5041   -4.4225    0.0712 C.ar    1  LIG1        0.0645
     26 C          -5.4367   -5.7531   -0.4709 C.ar    1  LIG1        0.0381
     27 C          -4.3420   -5.8060   -1.3016 C.ar    1  LIG1        0.0167
     28 N          -3.7339   -4.5676   -1.2790 N.ar    1  LIG1       -0.3575
     29 H          -3.0285   -4.2673   -1.9344 H       1  LIG1        0.1654
     30 H          -3.9482   -6.6149   -1.8974 H       1  LIG1        0.0818
     31 C          -6.4397   -3.9557    1.0249 C.1     1  LIG1       -0.0664
     32 C          -7.2540   -3.5705    1.8361 C.1     1  LIG1       -0.1138
     33 H          -7.9558   -3.2418    2.5673 H       1  LIG1        0.1232
     34 S          -6.5879   -7.0325   -0.0457 S.3     1  LIG1       -0.1400
     35 H          -6.0773   -7.9631   -0.8760 H       1  LIG1        0.1072
@<TRIPOS>BOND
     1    29    28    1
     2    30    27    1
     3    11    12    1
     4    11     3    1
     5    27    28   ar
     6    27    26   ar
     7    28    24   ar
     8    35    34    1
     9    22    15    1
    10    22    23    1
    11    26    34    1
    12    26    25   ar
    13    24    16    1
    14    24    25   ar
    15    15    16   ar
    16    15    14   ar
    17    10     9    1
    18    16    17   ar
    19     3     4   ar
    20     3     2   ar
    21    14    19    1
    22    14    13   ar
    23     9     8    3
    24    19    20    3
    25    20    21    1
    26    17    13   ar
    27    17    18    1
    28    13     4    1
    29    25    31    1
    30     8     2    1
    31     4     5   ar
    32     2     1   ar
    33    31    32    3
    34     5     1   ar
    35     5     6    1
    36     1     7    1
    37    32    33    1
