@<TRIPOS>MOLECULE
mol_data/opt/b3lyp/geoms/mol2/13eg13eg-13eg-13eg-.out
 46 49 0 0 0
SMALL
GASTEIGER

@<TRIPOS>ATOM
      1 C           1.2133   -0.2438   -0.2441 C.ar    1  LIG1        0.0188
      2 C           0.8654    0.9871    0.2914 C.ar    1  LIG1        0.0557
      3 C          -0.5729    1.0299    0.3513 C.ar    1  LIG1        0.0469
      4 C          -1.0468   -0.1789   -0.1484 C.ar    1  LIG1        0.0787
      5 N           0.0665   -0.9415   -0.4893 N.ar    1  LIG1       -0.3575
      6 H           0.0139   -1.7789   -1.0482 H       1  LIG1        0.1654
      7 H           2.1885   -0.6476   -0.4683 H       1  LIG1        0.0820
      8 C           1.7701    1.9935    0.7164 C.1     1  LIG1       -0.0671
      9 C           2.5439    2.8497    1.0801 C.1     1  LIG1       -0.1138
     10 H           3.2183    3.6098    1.3990 H       1  LIG1        0.1232
     11 S          -1.4701    2.3563    1.1066 S.3     1  LIG1       -0.1394
     12 H          -2.4944    2.3883    0.2260 H       1  LIG1        0.1072
     13 C          -2.3760   -0.7390   -0.2810 C.ar    1  LIG1        0.0811
     14 C          -3.5730   -0.2109   -0.7682 C.ar    1  LIG1        0.0652
     15 C          -4.5844   -1.2279   -0.6380 C.ar    1  LIG1        0.0476
     16 C          -3.9789   -2.3508   -0.0880 C.ar    1  LIG1        0.0791
     17 N          -2.6293   -2.0439    0.0900 N.ar    1  LIG1       -0.3500
     18 H          -2.0525   -2.5263    0.7647 H       1  LIG1        0.1661
     19 C          -3.7403    1.0586   -1.3724 C.1     1  LIG1       -0.0664
     20 C          -3.8857    2.1458   -1.8874 C.1     1  LIG1       -0.1138
     21 H          -4.0151    3.0900   -2.3639 H       1  LIG1        0.1232
     22 S          -6.2151   -1.0307   -1.2955 S.3     1  LIG1       -0.1393
     23 H          -6.8647   -1.7319   -0.3403 H       1  LIG1        0.1072
     24 C          -4.4561   -3.6805    0.2230 C.ar    1  LIG1        0.0811
     25 C          -5.6343   -4.1476    0.8126 C.ar    1  LIG1        0.0652
     26 C          -5.5631   -5.5857    0.8483 C.ar    1  LIG1        0.0476
     27 C          -4.3435   -5.9575    0.3019 C.ar    1  LIG1        0.0791
     28 N          -3.6724   -4.7854   -0.0438 N.ar    1  LIG1       -0.3500
     29 H          -2.9458   -4.7683   -0.7452 H       1  LIG1        0.1661
     30 C          -6.6632   -3.3548    1.3749 C.1     1  LIG1       -0.0664
     31 C          -7.5473   -2.6812    1.8581 C.1     1  LIG1       -0.1138
     32 H          -8.3130   -2.0936    2.3096 H       1  LIG1        0.1232
     33 S          -6.7844   -6.5860    1.6499 S.3     1  LIG1       -0.1393
     34 H          -6.7491   -7.6168    0.7770 H       1  LIG1        0.1072
     35 C          -3.6950   -7.2401    0.1186 C.ar    1  LIG1        0.0807
     36 C          -4.1559   -8.4618   -0.3863 C.ar    1  LIG1        0.0645
     37 C          -3.0518   -9.3830   -0.3410 C.ar    1  LIG1        0.0381
     38 C          -1.9681   -8.7062    0.1665 C.ar    1  LIG1        0.0167
     39 N          -2.3621   -7.4079    0.4201 N.ar    1  LIG1       -0.3575
     40 H          -1.8315   -6.7458    0.9644 H       1  LIG1        0.1654
     41 H          -0.9592   -9.0360    0.3606 H       1  LIG1        0.0818
     42 C          -5.4403   -8.7303   -0.9151 C.1     1  LIG1       -0.0664
     43 C          -6.5371   -8.9825   -1.3660 C.1     1  LIG1       -0.1138
     44 H          -7.4914   -9.1949   -1.7896 H       1  LIG1        0.1232
     45 S          -3.1659  -11.0597   -0.9050 S.3     1  LIG1       -0.1400
     46 H          -1.9050  -11.4035   -0.5765 H       1  LIG1        0.1072
@<TRIPOS>BOND
     1    21    20    1
     2    20    19    3
     3    44    43    1
     4    19    14    1
     5    43    42    3
     6    22    15    1
     7    22    23    1
     8     6     5    1
     9    42    36    1
    10    45    46    1
    11    45    37    1
    12    14    15   ar
    13    14    13   ar
    14    29    28    1
    15    15    16   ar
    16     5     1   ar
    17     5     4   ar
    18     7     1    1
    19    36    37   ar
    20    36    35   ar
    21    37    38   ar
    22    13     4    1
    23    13    17   ar
    24     1     2   ar
    25     4     3   ar
    26    16    17   ar
    27    16    24    1
    28    28    24   ar
    29    28    27   ar
    30    17    18    1
    31    35    27    1
    32    35    39   ar
    33    38    41    1
    34    38    39   ar
    35    24    25   ar
    36    12    11    1
    37     2     3   ar
    38     2     8    1
    39    27    26   ar
    40     3    11    1
    41    39    40    1
    42     8     9    3
    43    34    33    1
    44    25    26   ar
    45    25    30    1
    46    26    33    1
    47     9    10    1
    48    30    31    3
    49    31    32    1
