@<TRIPOS>MOLECULE
mol_data/opt/b3lyp/geoms/mol2/13eg13eg13eg13eg.out
 46 49 0 0 0
SMALL
GASTEIGER

@<TRIPOS>ATOM
      1 C           1.2153   -0.2467    0.2143 C.ar    1  LIG1        0.0188
      2 C           0.8606    0.9933   -0.2955 C.ar    1  LIG1        0.0557
      3 C          -0.5783    1.0367   -0.3366 C.ar    1  LIG1        0.0469
      4 C          -1.0458   -0.1808    0.1480 C.ar    1  LIG1        0.0787
      5 N           0.0717   -0.9488    0.4615 N.ar    1  LIG1       -0.3575
      6 H           0.0262   -1.7957    1.0067 H       1  LIG1        0.1654
      7 H           2.1932   -0.6540    0.4191 H       1  LIG1        0.0820
      8 C           1.7598    2.0071   -0.7143 C.1     1  LIG1       -0.0671
      9 C           2.5288    2.8697   -1.0728 C.1     1  LIG1       -0.1138
     10 H           3.1992    3.6354   -1.3872 H       1  LIG1        0.1232
     11 S          -1.4849    2.3757   -1.0577 S.3     1  LIG1       -0.1394
     12 H          -2.4985    2.3918   -0.1644 H       1  LIG1        0.1072
     13 C          -2.3732   -0.7435    0.2874 C.ar    1  LIG1        0.0811
     14 C          -3.5642   -0.2243    0.7984 C.ar    1  LIG1        0.0652
     15 C          -4.5769   -1.2393    0.6635 C.ar    1  LIG1        0.0476
     16 C          -3.9780   -2.3525    0.0871 C.ar    1  LIG1        0.0791
     17 N          -2.6308   -2.0420   -0.1024 N.ar    1  LIG1       -0.3500
     18 H          -2.0624   -2.5128   -0.7922 H       1  LIG1        0.1661
     19 C          -3.7243    1.0347    1.4261 C.1     1  LIG1       -0.0664
     20 C          -3.8636    2.1128    1.9615 C.1     1  LIG1       -0.1138
     21 H          -3.9873    3.0486    2.4557 H       1  LIG1        0.1232
     22 S          -6.1996   -1.0539    1.3438 S.3     1  LIG1       -0.1393
     23 H          -6.8605   -1.7387    0.3845 H       1  LIG1        0.1072
     24 C          -4.4588   -3.6769   -0.2405 C.ar    1  LIG1        0.0811
     25 C          -5.6437   -4.1344   -0.8241 C.ar    1  LIG1        0.0652
     26 C          -5.5726   -5.5717   -0.8851 C.ar    1  LIG1        0.0476
     27 C          -4.3466   -5.9523   -0.3595 C.ar    1  LIG1        0.0791
     28 N          -3.6718   -4.7859   -0.0018 N.ar    1  LIG1       -0.3500
     29 H          -2.9368   -4.7804    0.6911 H       1  LIG1        0.1661
     30 C          -6.6795   -3.3328   -1.3603 C.1     1  LIG1       -0.0664
     31 C          -7.5696   -2.6515   -1.8214 C.1     1  LIG1       -0.1138
     32 H          -8.3408   -2.0566   -2.2534 H       1  LIG1        0.1232
     33 S          -6.8031   -6.5587   -1.6890 S.3     1  LIG1       -0.1393
     34 H          -6.7572   -7.6043   -0.8344 H       1  LIG1        0.1072
     35 C          -3.6957   -7.2375   -0.2056 C.ar    1  LIG1        0.0807
     36 C          -4.1504   -8.4678    0.2837 C.ar    1  LIG1        0.0645
     37 C          -3.0467   -9.3876    0.2100 C.ar    1  LIG1        0.0381
     38 C          -1.9690   -8.7018   -0.2984 C.ar    1  LIG1        0.0167
     39 N          -2.3662   -7.3994   -0.5253 N.ar    1  LIG1       -0.3575
     40 H          -1.8423   -6.7281   -1.0647 H       1  LIG1        0.1654
     41 H          -0.9623   -9.0277   -0.5096 H       1  LIG1        0.0818
     42 C          -5.4284   -8.7460    0.8227 C.1     1  LIG1       -0.0664
     43 C          -6.5198   -9.0065    1.2821 C.1     1  LIG1       -0.1138
     44 H          -7.4690   -9.2265    1.7133 H       1  LIG1        0.1232
     45 S          -3.1538  -11.0735    0.7466 S.3     1  LIG1       -0.1400
     46 H          -1.8972  -11.4117    0.3963 H       1  LIG1        0.1072
@<TRIPOS>BOND
     1    32    31    1
     2    31    30    3
     3    33    26    1
     4    33    34    1
     5    10     9    1
     6    30    25    1
     7     9     8    3
     8    40    39    1
     9    11     3    1
    10    11    12    1
    11    26    25   ar
    12    26    27   ar
    13    25    24   ar
    14    18    17    1
    15     8     2    1
    16    39    38   ar
    17    39    35   ar
    18    41    38    1
    19    27    35    1
    20    27    28   ar
    21     3     2   ar
    22     3     4   ar
    23    38    37   ar
    24     2     1   ar
    25    24    28   ar
    26    24    16    1
    27    35    36   ar
    28    17    16   ar
    29    17    13   ar
    30    28    29    1
    31    16    15   ar
    32     4    13    1
    33     4     5   ar
    34    37    36   ar
    35    37    45    1
    36     1     7    1
    37     1     5   ar
    38    36    42    1
    39    13    14   ar
    40    23    22    1
    41    46    45    1
    42     5     6    1
    43    15    14   ar
    44    15    22    1
    45    14    19    1
    46    42    43    3
    47    43    44    1
    48    19    20    3
    49    20    21    1
