@<TRIPOS>MOLECULE
mol_data/opt/b3lyp/geoms/mol2/13eg13eg-13eg.out
 35 37 0 0 0
SMALL
GASTEIGER

@<TRIPOS>ATOM
      1 C           0.8245   -0.0204   -1.4446 C.ar    1  LIG1        0.0188
      2 C           0.8818    0.9075   -0.4157 C.ar    1  LIG1        0.0557
      3 C          -0.3727    0.8328    0.2880 C.ar    1  LIG1        0.0469
      4 C          -1.1440   -0.1397   -0.3363 C.ar    1  LIG1        0.0787
      5 N          -0.3839   -0.6522   -1.3827 N.ar    1  LIG1       -0.3575
      6 H          -0.7642   -1.2288   -2.1178 H       1  LIG1        0.1654
      7 H           1.5539   -0.2537   -2.2047 H       1  LIG1        0.0820
      8 C           1.9846    1.7475   -0.1150 C.1     1  LIG1       -0.0671
      9 C           2.9277    2.4612    0.1402 C.1     1  LIG1       -0.1138
     10 H           3.7522    3.0959    0.3679 H       1  LIG1        0.1232
     11 S          -0.7220    1.7387    1.7701 S.3     1  LIG1       -0.1394
     12 H          -2.0003    2.0576    1.4683 H       1  LIG1        0.1072
     13 C          -2.4549   -0.6887   -0.0425 C.ar    1  LIG1        0.0811
     14 C          -3.6961   -0.0813    0.1804 C.ar    1  LIG1        0.0652
     15 C          -4.6607   -1.1269    0.3809 C.ar    1  LIG1        0.0476
     16 C          -3.9931   -2.3406    0.2684 C.ar    1  LIG1        0.0791
     17 N          -2.6637   -2.0458    0.0031 N.ar    1  LIG1       -0.3500
     18 H          -1.9434   -2.7377   -0.1370 H       1  LIG1        0.1661
     19 C          -3.9518    1.3114    0.1675 C.1     1  LIG1       -0.0664
     20 C          -4.1658    2.5041    0.1649 C.1     1  LIG1       -0.1138
     21 H          -4.3692    3.5494    0.1342 H       1  LIG1        0.1232
     22 S          -6.3515   -0.8301    0.8193 S.3     1  LIG1       -0.1393
     23 H          -6.8980   -1.7691    0.0158 H       1  LIG1        0.1072
     24 C          -4.4235   -3.7165    0.4329 C.ar    1  LIG1        0.0807
     25 C          -5.4957   -4.4285   -0.1146 C.ar    1  LIG1        0.0645
     26 C          -5.4189   -5.7709    0.3962 C.ar    1  LIG1        0.0381
     27 C          -4.3157   -5.8393    1.2145 C.ar    1  LIG1        0.0167
     28 N          -3.7115   -4.5986    1.2141 N.ar    1  LIG1       -0.3575
     29 H          -3.0011   -4.3110    1.8698 H       1  LIG1        0.1654
     30 H          -3.9136   -6.6602    1.7878 H       1  LIG1        0.0818
     31 C          -6.4421   -3.9430   -1.0481 C.1     1  LIG1       -0.0664
     32 C          -7.2655   -3.5419   -1.8422 C.1     1  LIG1       -0.1138
     33 H          -7.9755   -3.1987   -2.5587 H       1  LIG1        0.1232
     34 S          -6.5704   -7.0440   -0.0466 S.3     1  LIG1       -0.1400
     35 H          -6.0500   -7.9910    0.7586 H       1  LIG1        0.1072
@<TRIPOS>BOND
     1    33    32    1
     2     7     1    1
     3     6     5    1
     4    32    31    3
     5     1     5   ar
     6     1     2   ar
     7     5     4   ar
     8    31    25    1
     9     2     8    1
    10     2     3   ar
    11     4    13    1
    12     4     3   ar
    13    18    17    1
    14     8     9    3
    15    25    26   ar
    16    25    24   ar
    17    34    26    1
    18    34    35    1
    19    13    17   ar
    20    13    14   ar
    21    17    16   ar
    22    23    22    1
    23    21    20    1
    24     9    10    1
    25    20    19    3
    26    19    14    1
    27    14    15   ar
    28    16    15   ar
    29    16    24    1
    30     3    11    1
    31    15    22    1
    32    26    27   ar
    33    24    28   ar
    34    28    27   ar
    35    28    29    1
    36    27    30    1
    37    12    11    1
