@<TRIPOS>MOLECULE
mol_data/opt/b3lyp/geoms/mol2/13eg13eg13eg13eg-.out
 46 49 0 0 0
SMALL
GASTEIGER

@<TRIPOS>ATOM
      1 C           1.2116   -0.2439    0.2326 C.ar    1  LIG1        0.0188
      2 C           0.8599    0.9950   -0.2816 C.ar    1  LIG1        0.0557
      3 C          -0.5788    1.0379   -0.3321 C.ar    1  LIG1        0.0469
      4 C          -1.0490   -0.1788    0.1517 C.ar    1  LIG1        0.0787
      5 N           0.0668   -0.9459    0.4739 N.ar    1  LIG1       -0.3575
      6 H           0.0181   -1.7918    1.0203 H       1  LIG1        0.1654
      7 H           2.1884   -0.6504    0.4447 H       1  LIG1        0.0820
      8 C           1.7614    2.0083   -0.6967 C.1     1  LIG1       -0.0671
      9 C           2.5323    2.8706   -1.0518 C.1     1  LIG1       -0.1138
     10 H           3.2047    3.6357   -1.3633 H       1  LIG1        0.1232
     11 S          -1.4805    2.3754   -1.0618 S.3     1  LIG1       -0.1394
     12 H          -2.5024    2.3903   -0.1779 H       1  LIG1        0.1072
     13 C          -2.3770   -0.7421    0.2834 C.ar    1  LIG1        0.0811
     14 C          -3.5721   -0.2224    0.7841 C.ar    1  LIG1        0.0652
     15 C          -4.5831   -1.2385    0.6443 C.ar    1  LIG1        0.0476
     16 C          -3.9792   -2.3528    0.0753 C.ar    1  LIG1        0.0791
     17 N          -2.6308   -2.0419   -0.1050 N.ar    1  LIG1       -0.3500
     18 H          -2.0571   -2.5137   -0.7896 H       1  LIG1        0.1661
     19 C          -3.7377    1.0380    1.4075 C.1     1  LIG1       -0.0664
     20 C          -3.8817    2.1174    1.9391 C.1     1  LIG1       -0.1138
     21 H          -4.0098    3.0543    2.4299 H       1  LIG1        0.1232
     22 S          -6.2106   -1.0526    1.3126 S.3     1  LIG1       -0.1393
     23 H          -6.8644   -1.7400    0.3502 H       1  LIG1        0.1072
     24 C          -4.4566   -3.6784   -0.2525 C.ar    1  LIG1        0.0811
     25 C          -5.6372   -4.1382   -0.8429 C.ar    1  LIG1        0.0652
     26 C          -5.5648   -5.5756   -0.8995 C.ar    1  LIG1        0.0476
     27 C          -4.3421   -5.9539   -0.3645 C.ar    1  LIG1        0.0791
     28 N          -3.6705   -4.7862   -0.0054 N.ar    1  LIG1       -0.3500
     29 H          -2.9405   -4.7783    0.6928 H       1  LIG1        0.1661
     30 C          -6.6697   -3.3386   -1.3885 C.1     1  LIG1       -0.0664
     31 C          -7.5568   -2.6590   -1.8576 C.1     1  LIG1       -0.1138
     32 H          -8.3255   -2.0658   -2.2964 H       1  LIG1        0.1232
     33 S          -6.7886   -6.5659   -1.7094 S.3     1  LIG1       -0.1393
     34 H          -6.7505   -7.6076   -0.8497 H       1  LIG1        0.1072
     35 C          -3.6917   -7.2385   -0.2027 C.ar    1  LIG1        0.0807
     36 C          -4.1493   -8.4674    0.2872 C.ar    1  LIG1        0.0645
     37 C          -3.0449   -9.3872    0.2232 C.ar    1  LIG1        0.0381
     38 C          -1.9641   -8.7025   -0.2802 C.ar    1  LIG1        0.0167
     39 N          -2.3602   -7.4010   -0.5134 N.ar    1  LIG1       -0.3575
     40 H          -1.8327   -6.7309   -1.0507 H       1  LIG1        0.1654
     41 H          -0.9561   -9.0289   -0.4841 H       1  LIG1        0.0818
     42 C          -5.4308   -8.7441    0.8187 C.1     1  LIG1       -0.0664
     43 C          -6.5251   -9.0032    1.2717 C.1     1  LIG1       -0.1138
     44 H          -7.4772   -9.2217    1.6972 H       1  LIG1        0.1232
     45 S          -3.1551  -11.0721    0.7638 S.3     1  LIG1       -0.1400
     46 H          -1.8947  -11.4094    0.4267 H       1  LIG1        0.1072
@<TRIPOS>BOND
     1    32    31    1
     2    31    30    3
     3    33    26    1
     4    33    34    1
     5    30    25    1
     6    10     9    1
     7    11     3    1
     8    11    12    1
     9     9     8    3
    10    40    39    1
    11    26    25   ar
    12    26    27   ar
    13    25    24   ar
    14    18    17    1
    15     8     2    1
    16    39    38   ar
    17    39    35   ar
    18    41    38    1
    19    27    35    1
    20    27    28   ar
    21     3     2   ar
    22     3     4   ar
    23     2     1   ar
    24    38    37   ar
    25    24    28   ar
    26    24    16    1
    27    35    36   ar
    28    17    16   ar
    29    17    13   ar
    30    28    29    1
    31    16    15   ar
    32     4    13    1
    33     4     5   ar
    34    37    36   ar
    35    37    45    1
    36     1     7    1
    37     1     5   ar
    38    13    14   ar
    39    36    42    1
    40    23    22    1
    41    46    45    1
    42     5     6    1
    43    15    14   ar
    44    15    22    1
    45    14    19    1
    46    42    43    3
    47    43    44    1
    48    19    20    3
    49    20    21    1
