@<TRIPOS>MOLECULE
mol_data/opt/b3lyp/geoms/mol2/13eg13eg-13eg-.out
 35 37 0 0 0
SMALL
GASTEIGER

@<TRIPOS>ATOM
      1 C           1.1948   -0.2203   -0.3743 C.ar    1  LIG1        0.0188
      2 C           0.8713    0.9093    0.3624 C.ar    1  LIG1        0.0557
      3 C          -0.5625    0.9301    0.4955 C.ar    1  LIG1        0.0469
      4 C          -1.0586   -0.1899   -0.1646 C.ar    1  LIG1        0.0787
      5 N           0.0383   -0.8794   -0.6726 N.ar    1  LIG1       -0.3575
      6 H          -0.0391   -1.6267   -1.3449 H       1  LIG1        0.1654
      7 H           2.1587   -0.5773   -0.7024 H       1  LIG1        0.0820
      8 C           1.7941    1.8444    0.8970 C.1     1  LIG1       -0.0671
      9 C           2.5836    2.6396    1.3536 C.1     1  LIG1       -0.1138
     10 H           3.2721    3.3455    1.7561 H       1  LIG1        0.1232
     11 S          -1.4217    2.1156    1.4911 S.3     1  LIG1       -0.1394
     12 H          -2.4938    2.2674    0.6827 H       1  LIG1        0.1072
     13 C          -2.3911   -0.7362   -0.3204 C.ar    1  LIG1        0.0811
     14 C          -3.6153   -0.1506   -0.6493 C.ar    1  LIG1        0.0652
     15 C          -4.6128   -1.1898   -0.6375 C.ar    1  LIG1        0.0476
     16 C          -3.9733   -2.3792   -0.3196 C.ar    1  LIG1        0.0791
     17 N          -2.6186   -2.0884   -0.1596 N.ar    1  LIG1       -0.3500
     18 H          -2.0052   -2.6696    0.3945 H       1  LIG1        0.1661
     19 C          -3.8231    1.1984   -1.0255 C.1     1  LIG1       -0.0664
     20 C          -4.0048    2.3528   -1.3464 C.1     1  LIG1       -0.1138
     21 H          -4.1666    3.3601   -1.6533 H       1  LIG1        0.1232
     22 S          -6.2857   -0.9157   -1.1476 S.3     1  LIG1       -0.1393
     23 H          -6.8661   -1.7571   -0.2640 H       1  LIG1        0.1072
     24 C          -4.4336   -3.7484   -0.2085 C.ar    1  LIG1        0.0807
     25 C          -5.5498   -4.3177    0.4166 C.ar    1  LIG1        0.0645
     26 C          -5.4749   -5.7389    0.2066 C.ar    1  LIG1        0.0381
     27 C          -4.3308   -5.9919   -0.5126 C.ar    1  LIG1        0.0167
     28 N          -3.7005   -4.7853   -0.7399 N.ar    1  LIG1       -0.3575
     29 H          -2.9376   -4.6505   -1.3845 H       1  LIG1        0.1654
     30 H          -3.9151   -6.9204   -0.8721 H       1  LIG1        0.0818
     31 C          -6.5305   -3.6434    1.1813 C.1     1  LIG1       -0.0664
     32 C          -7.3850   -3.0847    1.8353 C.1     1  LIG1       -0.1138
     33 H          -8.1170   -2.5962    2.4359 H       1  LIG1        0.1232
     34 S          -6.6779   -6.8757    0.8420 S.3     1  LIG1       -0.1400
     35 H          -6.1149   -7.9827    0.3189 H       1  LIG1        0.1072
@<TRIPOS>BOND
     1    21    20    1
     2    29    28    1
     3    20    19    3
     4     6     5    1
     5    22    15    1
     6    22    23    1
     7    19    14    1
     8    30    27    1
     9    28    27   ar
    10    28    24   ar
    11     7     1    1
    12     5     1   ar
    13     5     4   ar
    14    14    15   ar
    15    14    13   ar
    16    15    16   ar
    17    27    26   ar
    18     1     2   ar
    19    13     4    1
    20    13    17   ar
    21    16    24    1
    22    16    17   ar
    23    24    25   ar
    24     4     3   ar
    25    17    18    1
    26    26    25   ar
    27    26    34    1
    28    35    34    1
    29     2     3   ar
    30     2     8    1
    31    25    31    1
    32     3    11    1
    33    12    11    1
    34     8     9    3
    35    31    32    3
    36     9    10    1
    37    32    33    1
