@<TRIPOS>MOLECULE
mol_data/opt/b3lyp/geoms/mol2/13eg13eg-13eg13eg-.out
 46 49 0 0 0
SMALL
GASTEIGER

@<TRIPOS>ATOM
      1 C           0.3644    0.1472   -2.2787 C.ar    1  LIG1        0.0188
      2 C           0.7787    0.8054   -1.1305 C.ar    1  LIG1        0.0557
      3 C          -0.2568    0.6248   -0.1459 C.ar    1  LIG1        0.0469
      4 C          -1.2592   -0.1397   -0.7301 C.ar    1  LIG1        0.0787
      5 N          -0.8484   -0.4269   -2.0277 N.ar    1  LIG1       -0.3575
      6 H          -1.4610   -0.7988   -2.7375 H       1  LIG1        0.1654
      7 H           0.8479    0.0659   -3.2399 H       1  LIG1        0.0820
      8 C           2.0041    1.5008   -0.9674 C.1     1  LIG1       -0.0671
      9 C           3.0513    2.0913   -0.8301 C.1     1  LIG1       -0.1138
     10 H           3.9690    2.6168   -0.7036 H       1  LIG1        0.1232
     11 S          -0.1214    1.1737    1.5335 S.3     1  LIG1       -0.1394
     12 H          -1.3910    1.6192    1.6619 H       1  LIG1        0.1072
     13 C          -2.5004   -0.6853   -0.2124 C.ar    1  LIG1        0.0811
     14 C          -3.5731   -0.0927    0.4634 C.ar    1  LIG1        0.0652
     15 C          -4.5552   -1.1145    0.6982 C.ar    1  LIG1        0.0476
     16 C          -4.0670   -2.2980    0.1580 C.ar    1  LIG1        0.0791
     17 N          -2.8264   -2.0079   -0.3927 N.ar    1  LIG1       -0.3500
     18 H          -2.2464   -2.6732   -0.8809 H       1  LIG1        0.1661
     19 C          -3.6799    1.2754    0.8128 C.1     1  LIG1       -0.0664
     20 C          -3.7650    2.4446    1.1192 C.1     1  LIG1       -0.1138
     21 H          -3.8621    3.4769    1.3643 H       1  LIG1        0.1232
     22 S          -6.0369   -0.8542    1.6335 S.3     1  LIG1       -0.1393
     23 H          -6.8547   -1.5892    0.8475 H       1  LIG1        0.1072
     24 C          -4.5778   -3.6566    0.1577 C.ar    1  LIG1        0.0811
     25 C          -5.8103   -4.1911   -0.2340 C.ar    1  LIG1        0.0652
     26 C          -5.7445   -5.6141   -0.0498 C.ar    1  LIG1        0.0476
     27 C          -4.4788   -5.9152    0.4397 C.ar    1  LIG1        0.0791
     28 N          -3.7911   -4.7149    0.5443 N.ar    1  LIG1       -0.3500
     29 H          -2.8427   -4.6311    0.8775 H       1  LIG1        0.1661
     30 C          -6.9047   -3.4566   -0.7520 C.1     1  LIG1       -0.0664
     31 C          -7.8426   -2.8237   -1.1857 C.1     1  LIG1       -0.1138
     32 H          -8.6633   -2.2803   -1.5935 H       1  LIG1        0.1232
     33 S          -7.1247   -6.6954   -0.3017 S.3     1  LIG1       -0.1393
     34 H          -6.4368   -7.7109   -0.8681 H       1  LIG1        0.1072
     35 C          -3.8611   -7.1550    0.8724 C.ar    1  LIG1        0.0807
     36 C          -3.7569   -8.4083    0.2599 C.ar    1  LIG1        0.0645
     37 C          -3.0140   -9.2566    1.1527 C.ar    1  LIG1        0.0381
     38 C          -2.6832   -8.5057    2.2565 C.ar    1  LIG1        0.0167
     39 N          -3.1831   -7.2336    2.0679 N.ar    1  LIG1       -0.3575
     40 H          -3.2511   -6.5361    2.7933 H       1  LIG1        0.1654
     41 H          -2.1367   -8.7681    3.1491 H       1  LIG1        0.0818
     42 C          -4.2322   -8.7625   -1.0252 C.1     1  LIG1       -0.0664
     43 C          -4.6390   -9.0864   -2.1203 C.1     1  LIG1       -0.1138
     44 H          -4.9749   -9.3668   -3.0918 H       1  LIG1        0.1232
     45 S          -2.6161  -10.9435    0.7813 S.3     1  LIG1       -0.1400
     46 H          -1.9968  -11.2021    1.9498 H       1  LIG1        0.1072
@<TRIPOS>BOND
     1     7     1    1
     2    44    43    1
     3     6     5    1
     4     1     5   ar
     5     1     2   ar
     6    43    42    3
     7     5     4   ar
     8    32    31    1
     9    31    30    3
    10     2     8    1
    11     2     3   ar
    12    42    36    1
    13     8     9    3
    14    18    17    1
    15    34    33    1
    16     9    10    1
    17    30    25    1
    18     4    13    1
    19     4     3   ar
    20    17    13   ar
    21    17    16   ar
    22    33    26    1
    23    25    26   ar
    24    25    24   ar
    25    13    14   ar
    26     3    11    1
    27    26    27   ar
    28    24    16    1
    29    24    28   ar
    30    16    15   ar
    31    36    35   ar
    32    36    37   ar
    33    27    28   ar
    34    27    35    1
    35    14    15   ar
    36    14    19    1
    37    28    29    1
    38    15    22    1
    39    45    37    1
    40    45    46    1
    41    19    20    3
    42    23    22    1
    43    35    39   ar
    44    20    21    1
    45    37    38   ar
    46    11    12    1
    47    39    38   ar
    48    39    40    1
    49    38    41    1
