@<TRIPOS>MOLECULE
mol_data/opt/b3lyp/geoms/mol2/13eg13eg.out
 24 25 0 0 0
SMALL
GASTEIGER

@<TRIPOS>ATOM
      1 C           1.1206   -0.2414    0.6925 C.ar    1  LIG1        0.0188
      2 C           0.8766    0.9463    0.0193 C.ar    1  LIG1        0.0557
      3 C          -0.5089    0.9301   -0.3741 C.ar    1  LIG1        0.0469
      4 C          -1.0553   -0.2673    0.0726 C.ar    1  LIG1        0.0787
      5 N          -0.0356   -0.9658    0.7101 N.ar    1  LIG1       -0.3575
      6 H          -0.1935   -1.7822    1.2805 H       1  LIG1        0.1654
      7 H           2.0273   -0.5981    1.1560 H       1  LIG1        0.0820
      8 C           1.8298    1.9633   -0.2429 C.1     1  LIG1       -0.0671
      9 C           2.6459    2.8285   -0.4665 C.1     1  LIG1       -0.1138
     10 H           3.3572    3.5959   -0.6646 H       1  LIG1        0.1232
     11 S          -1.2503    2.1814   -1.3858 S.3     1  LIG1       -0.1394
     12 H          -2.4357    2.2379   -0.7400 H       1  LIG1        0.1072
     13 C          -2.3706   -0.8630   -0.0672 C.ar    1  LIG1        0.0806
     14 C          -3.6559   -0.3558    0.1521 C.ar    1  LIG1        0.0645
     15 C          -4.5853   -1.4149   -0.1385 C.ar    1  LIG1        0.0381
     16 C          -3.8534   -2.5192   -0.5059 C.ar    1  LIG1        0.0167
     17 N          -2.5170   -2.1796   -0.4410 N.ar    1  LIG1       -0.3575
     18 H          -1.7671   -2.7313   -0.8280 H       1  LIG1        0.1654
     19 H          -4.1690   -3.5085   -0.7988 H       1  LIG1        0.0818
     20 C          -3.9860    0.9318    0.6372 C.1     1  LIG1       -0.0664
     21 C          -4.2894    2.0322    1.0458 C.1     1  LIG1       -0.1138
     22 H          -4.5540    2.9895    1.4312 H       1  LIG1        0.1232
     23 S          -6.3422   -1.2340    0.0224 S.3     1  LIG1       -0.1400
     24 H          -6.6518   -2.4672   -0.4241 H       1  LIG1        0.1072
@<TRIPOS>BOND
     1    11    12    1
     2    11     3    1
     3    18    17    1
     4    19    16    1
     5    10     9    1
     6    16    17   ar
     7    16    15   ar
     8     9     8    3
     9    17    13   ar
    10    24    23    1
    11     3     2   ar
    12     3     4   ar
    13     8     2    1
    14    15    23    1
    15    15    14   ar
    16    13     4    1
    17    13    14   ar
    18     2     1   ar
    19     4     5   ar
    20    14    20    1
    21    20    21    3
    22     1     5   ar
    23     1     7    1
    24     5     6    1
    25    21    22    1
