@<TRIPOS>MOLECULE
mol_data/opt/b3lyp/geoms/mol2/13eg13eg-13eg13eg.out
 46 49 0 0 0
SMALL
GASTEIGER

@<TRIPOS>ATOM
      1 C           1.2214   -0.2522    0.2014 C.ar    1  LIG1        0.0188
      2 C           0.8664    0.9851   -0.3143 C.ar    1  LIG1        0.0557
      3 C          -0.5727    1.0306   -0.3490 C.ar    1  LIG1        0.0469
      4 C          -1.0398   -0.1830    0.1454 C.ar    1  LIG1        0.0787
      5 N           0.0780   -0.9509    0.4585 N.ar    1  LIG1       -0.3575
      6 H           0.0337   -1.7941    1.0094 H       1  LIG1        0.1654
      7 H           2.1997   -0.6598    0.4042 H       1  LIG1        0.0820
      8 C           1.7652    1.9949   -0.7438 C.1     1  LIG1       -0.0671
      9 C           2.5339    2.8540   -1.1112 C.1     1  LIG1       -0.1138
     10 H           3.2039    3.6166   -1.4335 H       1  LIG1        0.1232
     11 S          -1.4804    2.3666   -1.0742 S.3     1  LIG1       -0.1394
     12 H          -2.4900    2.3897   -0.1765 H       1  LIG1        0.1072
     13 C          -2.3674   -0.7429    0.2946 C.ar    1  LIG1        0.0811
     14 C          -3.5553   -0.2186    0.8077 C.ar    1  LIG1        0.0652
     15 C          -4.5701   -1.2330    0.6839 C.ar    1  LIG1        0.0476
     16 C          -3.9754   -2.3507    0.1118 C.ar    1  LIG1        0.0791
     17 N          -2.6287   -2.0434   -0.0859 N.ar    1  LIG1       -0.3500
     18 H          -2.0640   -2.5194   -0.7752 H       1  LIG1        0.1661
     19 C          -3.7107    1.0445    1.4281 C.1     1  LIG1       -0.0664
     20 C          -3.8459    2.1262    1.9573 C.1     1  LIG1       -0.1138
     21 H          -3.9659    3.0653    2.4462 H       1  LIG1        0.1232
     22 S          -6.1891   -1.0412    1.3709 S.3     1  LIG1       -0.1393
     23 H          -6.8558   -1.7301    0.4185 H       1  LIG1        0.1072
     24 C          -4.4598   -3.6764   -0.2053 C.ar    1  LIG1        0.0811
     25 C          -5.6483   -4.1354   -0.7805 C.ar    1  LIG1        0.0652
     26 C          -5.5800   -5.5731   -0.8328 C.ar    1  LIG1        0.0476
     27 C          -4.3523   -5.9526   -0.3105 C.ar    1  LIG1        0.0791
     28 N          -3.6738   -4.7853    0.0369 N.ar    1  LIG1       -0.3500
     29 H          -2.9351   -4.7767    0.7258 H       1  LIG1        0.1661
     30 C          -6.6849   -3.3351   -1.3172 C.1     1  LIG1       -0.0664
     31 C          -7.5757   -2.6549   -1.7784 C.1     1  LIG1       -0.1138
     32 H          -8.3477   -2.0612   -2.2107 H       1  LIG1        0.1232
     33 S          -6.8158   -6.5631   -1.6248 S.3     1  LIG1       -0.1393
     34 H          -6.7685   -7.6028   -0.7630 H       1  LIG1        0.1072
     35 C          -3.7030   -7.2380   -0.1514 C.ar    1  LIG1        0.0807
     36 C          -4.1575   -8.4643    0.3480 C.ar    1  LIG1        0.0645
     37 C          -3.0559   -9.3867    0.2748 C.ar    1  LIG1        0.0381
     38 C          -1.9795   -8.7061   -0.2431 C.ar    1  LIG1        0.0167
     39 N          -2.3754   -7.4045   -0.4765 N.ar    1  LIG1       -0.3575
     40 H          -1.8531   -6.7379   -1.0232 H       1  LIG1        0.1654
     41 H          -0.9744   -9.0353   -0.4570 H       1  LIG1        0.0818
     42 C          -5.4335   -8.7364    0.8951 C.1     1  LIG1       -0.0664
     43 C          -6.5230   -8.9917    1.3615 C.1     1  LIG1       -0.1138
     44 H          -7.4706   -9.2071    1.7986 H       1  LIG1        0.1232
     45 S          -3.1634  -11.0690    0.8231 S.3     1  LIG1       -0.1400
     46 H          -1.9107  -11.4128    0.4649 H       1  LIG1        0.1072
@<TRIPOS>BOND
     1    32    31    1
     2    31    30    3
     3    33    26    1
     4    33    34    1
     5    10     9    1
     6    30    25    1
     7     9     8    3
     8    11     3    1
     9    11    12    1
    10    40    39    1
    11    26    25   ar
    12    26    27   ar
    13    25    24   ar
    14    18    17    1
    15     8     2    1
    16    39    38   ar
    17    39    35   ar
    18    41    38    1
    19     3     2   ar
    20     3     4   ar
    21     2     1   ar
    22    27    35    1
    23    27    28   ar
    24    38    37   ar
    25    24    28   ar
    26    24    16    1
    27    35    36   ar
    28    17    16   ar
    29    17    13   ar
    30    28    29    1
    31    16    15   ar
    32     4    13    1
    33     4     5   ar
    34     1     7    1
    35     1     5   ar
    36    37    36   ar
    37    37    45    1
    38    13    14   ar
    39    36    42    1
    40    23    22    1
    41     5     6    1
    42    46    45    1
    43    15    14   ar
    44    15    22    1
    45    14    19    1
    46    42    43    3
    47    43    44    1
    48    19    20    3
    49    20    21    1
