@<TRIPOS>MOLECULE
mol_data/opt/b3lyp/geoms/mol2/13eg13eg13eg.out
 35 37 0 0 0
SMALL
GASTEIGER

@<TRIPOS>ATOM
      1 C           1.1956   -0.2205    0.3485 C.ar    1  LIG1        0.0188
      2 C           0.8646    0.9187   -0.3699 C.ar    1  LIG1        0.0557
      3 C          -0.5704    0.9406   -0.4889 C.ar    1  LIG1        0.0469
      4 C          -1.0598   -0.1883    0.1610 C.ar    1  LIG1        0.0787
      5 N           0.0423   -0.8840    0.6492 N.ar    1  LIG1       -0.3575
      6 H          -0.0283   -1.6399    1.3125 H       1  LIG1        0.1654
      7 H           2.1628   -0.5811    0.6627 H       1  LIG1        0.0820
      8 C           1.7817    1.8613   -0.9011 C.1     1  LIG1       -0.0671
      9 C           2.5661    2.6631   -1.3550 C.1     1  LIG1       -0.1138
     10 H           3.2499    3.3749   -1.7551 H       1  LIG1        0.1232
     11 S          -1.4386    2.1395   -1.4601 S.3     1  LIG1       -0.1394
     12 H          -2.5084    2.2716   -0.6453 H       1  LIG1        0.1072
     13 C          -2.3901   -0.7384    0.3216 C.ar    1  LIG1        0.0811
     14 C          -3.6125   -0.1593    0.6683 C.ar    1  LIG1        0.0652
     15 C          -4.6081   -1.2004    0.6528 C.ar    1  LIG1        0.0476
     16 C          -3.9690   -2.3845    0.3149 C.ar    1  LIG1        0.0791
     17 N          -2.6165   -2.0891    0.1465 N.ar    1  LIG1       -0.3500
     18 H          -2.0067   -2.6626   -0.4194 H       1  LIG1        0.1661
     19 C          -3.8196    1.1847    1.0622 C.1     1  LIG1       -0.0664
     20 C          -4.0005    2.3349    1.3981 C.1     1  LIG1       -0.1138
     21 H          -4.1613    3.3383    1.7182 H       1  LIG1        0.1232
     22 S          -6.2773   -0.9371    1.1813 S.3     1  LIG1       -0.1393
     23 H          -6.8643   -1.7618    0.2862 H       1  LIG1        0.1072
     24 C          -4.4283   -3.7530    0.1907 C.ar    1  LIG1        0.0807
     25 C          -5.5483   -4.3159   -0.4333 C.ar    1  LIG1        0.0645
     26 C          -5.4702   -5.7395   -0.2415 C.ar    1  LIG1        0.0381
     27 C          -4.3205   -5.9999    0.4660 C.ar    1  LIG1        0.0167
     28 N          -3.6899   -4.7954    0.7036 N.ar    1  LIG1       -0.3575
     29 H          -2.9227   -4.6674    1.3445 H       1  LIG1        0.1654
     30 H          -3.9009   -6.9323    0.8108 H       1  LIG1        0.0818
     31 C          -6.5353   -3.6334   -1.1824 C.1     1  LIG1       -0.0664
     32 C          -7.3951   -3.0677   -1.8233 C.1     1  LIG1       -0.1138
     33 H          -8.1319   -2.5729   -2.4128 H       1  LIG1        0.1232
     34 S          -6.6766   -6.8699   -0.8816 S.3     1  LIG1       -0.1400
     35 H          -6.1069   -7.9829   -0.3789 H       1  LIG1        0.1072
@<TRIPOS>BOND
     1    33    32    1
     2    32    31    3
     3    10     9    1
     4    11    12    1
     5    11     3    1
     6     9     8    3
     7    31    25    1
     8     8     2    1
     9    34    35    1
    10    34    26    1
    11     3     2   ar
    12     3     4   ar
    13    25    26   ar
    14    25    24   ar
    15    18    17    1
    16     2     1   ar
    17    26    27   ar
    18    17    16   ar
    19    17    13   ar
    20     4    13    1
    21     4     5   ar
    22    24    16    1
    23    24    28   ar
    24    23    22    1
    25    16    15   ar
    26    13    14   ar
    27     1     5   ar
    28     1     7    1
    29    27    28   ar
    30    27    30    1
    31     5     6    1
    32    15    14   ar
    33    15    22    1
    34    14    19    1
    35    28    29    1
    36    19    20    3
    37    20    21    1
