@<TRIPOS>MOLECULE
mol_data/opt/b3lyp/geoms/mol2/13eg13eg-13eg-13eg.out
 46 49 0 0 0
SMALL
GASTEIGER

@<TRIPOS>ATOM
      1 C           1.2046   -0.3852    0.4759 C.ar    1  LIG1        0.0188
      2 C           0.8040    0.8259    1.0201 C.ar    1  LIG1        0.0557
      3 C          -0.6222    0.9173    0.8427 C.ar    1  LIG1        0.0469
      4 C          -1.0369   -0.2437    0.1970 C.ar    1  LIG1        0.0787
      5 N           0.0979   -1.0247   -0.0005 N.ar    1  LIG1       -0.3575
      6 H           0.1172   -1.8349   -0.5999 H       1  LIG1        0.1654
      7 H           2.1922   -0.8120    0.3951 H       1  LIG1        0.0820
      8 C           1.6502    1.7736    1.6506 C.1     1  LIG1       -0.0671
      9 C           2.3738    2.5798    2.1897 C.1     1  LIG1       -0.1138
     10 H           3.0044    3.2954    2.6635 H       1  LIG1        0.1232
     11 S          -1.5956    2.2302    1.5232 S.3     1  LIG1       -0.1394
     12 H          -2.4672    2.3420    0.4968 H       1  LIG1        0.1072
     13 C          -2.3387   -0.7494   -0.1871 C.ar    1  LIG1        0.0811
     14 C          -3.4334   -0.1497   -0.8130 C.ar    1  LIG1        0.0652
     15 C          -4.4745   -1.1405   -0.9131 C.ar    1  LIG1        0.0476
     16 C          -3.9852   -2.3174   -0.3672 C.ar    1  LIG1        0.0791
     17 N          -2.6740   -2.0700    0.0415 N.ar    1  LIG1       -0.3500
     18 H          -2.2271   -2.6095    0.7702 H       1  LIG1        0.1661
     19 C          -3.4786    1.1617   -1.3446 C.1     1  LIG1       -0.0664
     20 C          -3.5205    2.2837   -1.8005 C.1     1  LIG1       -0.1138
     21 H          -3.5551    3.2608   -2.2240 H       1  LIG1        0.1232
     22 S          -5.9963   -0.8560   -1.7726 S.3     1  LIG1       -0.1393
     23 H          -6.7882   -1.5565   -0.9304 H       1  LIG1        0.1072
     24 C          -4.5456   -3.6479   -0.2392 C.ar    1  LIG1        0.0811
     25 C          -5.7781   -4.1064    0.2431 C.ar    1  LIG1        0.0652
     26 C          -5.7616   -5.5416    0.1797 C.ar    1  LIG1        0.0476
     27 C          -4.5258   -5.9251   -0.3274 C.ar    1  LIG1        0.0791
     28 N          -3.8082   -4.7614   -0.5627 N.ar    1  LIG1       -0.3500
     29 H          -2.8628   -4.7359   -0.9120 H       1  LIG1        0.1661
     30 C          -6.8265   -3.2991    0.7462 C.1     1  LIG1       -0.0664
     31 C          -7.7264   -2.6061    1.1685 C.1     1  LIG1       -0.1138
     32 H          -8.5083   -2.0059    1.5732 H       1  LIG1        0.1232
     33 S          -7.1595   -6.5541    0.5769 S.3     1  LIG1       -0.1393
     34 H          -6.4792   -7.5259    1.2237 H       1  LIG1        0.1072
     35 C          -3.9632   -7.2176   -0.6712 C.ar    1  LIG1        0.0807
     36 C          -3.8669   -8.4130    0.0482 C.ar    1  LIG1        0.0645
     37 C          -3.1920   -9.3630   -0.7953 C.ar    1  LIG1        0.0381
     38 C          -2.8916   -8.7264   -1.9766 C.ar    1  LIG1        0.0167
     39 N          -3.3436   -7.4257   -1.8833 N.ar    1  LIG1       -0.3575
     40 H          -3.4355   -6.7980   -2.6674 H       1  LIG1        0.1654
     41 H          -2.3960   -9.0870   -2.8647 H       1  LIG1        0.0818
     42 C          -4.2919   -8.6331    1.3801 C.1     1  LIG1       -0.0664
     43 C          -4.6563   -8.8418    2.5172 C.1     1  LIG1       -0.1138
     44 H          -4.9541   -9.0195    3.5247 H       1  LIG1        0.1232
     45 S          -2.8254  -11.0212   -0.2870 S.3     1  LIG1       -0.1400
     46 H          -2.3053  -11.4179   -1.4652 H       1  LIG1        0.1072
@<TRIPOS>BOND
     1    41    38    1
     2    40    39    1
     3    21    20    1
     4    38    39   ar
     5    38    37   ar
     6    39    35   ar
     7    20    19    3
     8    22    23    1
     9    22    15    1
    10    46    45    1
    11    19    14    1
    12    15    14   ar
    13    15    16   ar
    14    29    28    1
    15    14    13   ar
    16    37    45    1
    17    37    36   ar
    18    35    27    1
    19    35    36   ar
    20     6     5    1
    21    28    27   ar
    22    28    24   ar
    23    16    24    1
    24    16    17   ar
    25    27    26   ar
    26    24    25   ar
    27    13    17   ar
    28    13     4    1
    29     5     4   ar
    30     5     1   ar
    31    17    18    1
    32    36    42    1
    33    26    25   ar
    34    26    33    1
    35     4     3   ar
    36    25    30    1
    37     7     1    1
    38     1     2   ar
    39    12    11    1
    40    33    34    1
    41    30    31    3
    42     3     2   ar
    43     3    11    1
    44     2     8    1
    45    31    32    1
    46    42    43    3
    47     8     9    3
    48     9    10    1
    49    43    44    1
