@<TRIPOS>MOLECULE
mol_data/opt/b3lyp/geoms/mol2/13eg13eg-.out
 24 25 0 0 0
SMALL
GASTEIGER

@<TRIPOS>ATOM
      1 C           1.1112   -0.2343   -0.7264 C.ar    1  LIG1        0.0188
      2 C           0.8759    0.9476   -0.0401 C.ar    1  LIG1        0.0557
      3 C          -0.5046    0.9281    0.3709 C.ar    1  LIG1        0.0469
      4 C          -1.0564   -0.2659   -0.0783 C.ar    1  LIG1        0.0787
      5 N          -0.0450   -0.9591   -0.7346 N.ar    1  LIG1       -0.3575
      6 H          -0.2106   -1.7694   -1.3114 H       1  LIG1        0.1654
      7 H           2.0118   -0.5869   -1.2049 H       1  LIG1        0.0820
      8 C           1.8322    1.9626    0.2184 C.1     1  LIG1       -0.0671
      9 C           2.6510    2.8259    0.4390 C.1     1  LIG1       -0.1138
     10 H           3.3647    3.5919    0.6344 H       1  LIG1        0.1232
     11 S          -1.2319    2.1703    1.4034 S.3     1  LIG1       -0.1394
     12 H          -2.4269    2.2308    0.7759 H       1  LIG1        0.1072
     13 C          -2.3694   -0.8635    0.0736 C.ar    1  LIG1        0.0806
     14 C          -3.6581   -0.3549   -0.1222 C.ar    1  LIG1        0.0645
     15 C          -4.5827   -1.4175    0.1707 C.ar    1  LIG1        0.0381
     16 C          -3.8451   -2.5249    0.5169 C.ar    1  LIG1        0.0167
     17 N          -2.5099   -2.1839    0.4360 N.ar    1  LIG1       -0.3575
     18 H          -1.7544   -2.7388    0.8074 H       1  LIG1        0.1654
     19 H          -4.1560   -3.5171    0.8048 H       1  LIG1        0.0818
     20 C          -3.9953    0.9372   -0.5901 C.1     1  LIG1       -0.0664
     21 C          -4.3045    2.0415   -0.9835 C.1     1  LIG1       -0.1138
     22 H          -4.5745    3.0024   -1.3558 H       1  LIG1        0.1232
     23 S          -6.3416   -1.2363    0.0360 S.3     1  LIG1       -0.1400
     24 H          -6.6441   -2.4762    0.4689 H       1  LIG1        0.1072
@<TRIPOS>BOND
     1    22    21    1
     2     6     5    1
     3     7     1    1
     4    21    20    3
     5     5     1   ar
     6     5     4   ar
     7     1     2   ar
     8    20    14    1
     9    14    13   ar
    10    14    15   ar
    11     4    13    1
    12     4     3   ar
    13     2     8    1
    14     2     3   ar
    15    23    15    1
    16    23    24    1
    17    13    17   ar
    18    15    16   ar
    19     8     9    3
    20     3    11    1
    21    17    16   ar
    22    17    18    1
    23     9    10    1
    24    16    19    1
    25    12    11    1
