@<TRIPOS>MOLECULE
mol_data/opt/b3lyp/geoms/mol2/13eg.out
 13 13 0 0 0
SMALL
GASTEIGER

@<TRIPOS>ATOM
      1 C           1.1426   -0.4249   -0.0002 C.ar    1  LIG1        0.0183
      2 C           0.7342    0.9025   -0.0001 C.ar    1  LIG1        0.0551
      3 C          -0.7057    0.8896    0.0002 C.ar    1  LIG1        0.0375
      4 C          -1.1080   -0.4267    0.0003 C.ar    1  LIG1        0.0161
      5 N           0.0281   -1.2111    0.0001 N.ar    1  LIG1       -0.3650
      6 H           0.0317   -2.2179   -0.0000 H       1  LIG1        0.1648
      7 H          -2.0945   -0.8640    0.0006 H       1  LIG1        0.0818
      8 H           2.1382   -0.8401   -0.0004 H       1  LIG1        0.0819
      9 C           1.5716    2.0462   -0.0004 C.1     1  LIG1       -0.0671
     10 C           2.2694    3.0357   -0.0003 C.1     1  LIG1       -0.1138
     11 H           2.8841    3.9053    0.0009 H       1  LIG1        0.1232
     12 S          -1.6930    2.3641    0.0005 S.3     1  LIG1       -0.1400
     13 H          -2.8854    1.7358    0.0007 H       1  LIG1        0.1072
@<TRIPOS>BOND
     1     8     1    1
     2     9    10    3
     3     9     2    1
     4    10    11    1
     5     1     2   ar
     6     1     5   ar
     7     2     3   ar
     8     6     5    1
     9     5     4   ar
    10     3     4   ar
    11     3    12    1
    12     4     7    1
    13    12    13    1
