@<TRIPOS>MOLECULE
mol_data/opt/b3lyp/geoms/mol2/13eh13eh13eh-13eh.out
 50 53 0 0 0
SMALL
GASTEIGER

@<TRIPOS>ATOM
      1 C           1.2706   -0.1957   -0.5391 C.ar    1  LIG1        0.0195
      2 C           0.9557    0.9915    0.1084 C.ar    1  LIG1        0.0632
      3 C          -0.4736    1.0145    0.2916 C.ar    1  LIG1        0.0672
      4 C          -0.9791   -0.1622   -0.2608 C.ar    1  LIG1        0.0863
      5 N           0.1191   -0.8928   -0.7344 N.ar    1  LIG1       -0.3569
      6 H           0.0299   -1.6759   -1.3626 H       1  LIG1        0.1655
      7 H           2.2275   -0.5642   -0.8750 H       1  LIG1        0.0820
      8 C           1.8454    2.0064    0.5378 C.1     1  LIG1       -0.0663
      9 C           2.5629    2.9073    0.9158 C.1     1  LIG1       -0.1138
     10 H           3.2129    3.6825    1.2484 H       1  LIG1        0.1232
     11 N          -1.1504    1.9899    1.0047 N.pl3   1  LIG1       -0.3553
     12 H          -0.6009    2.8292    1.1402 H       1  LIG1        0.1424
     13 H          -2.0899    2.1904    0.6826 H       1  LIG1        0.1424
     14 C          -2.3059   -0.7193   -0.3106 C.ar    1  LIG1        0.0826
     15 C          -3.5713   -0.1196   -0.4498 C.ar    1  LIG1        0.0727
     16 C          -4.5446   -1.1717   -0.4565 C.ar    1  LIG1        0.0679
     17 C          -3.8679   -2.3769   -0.3247 C.ar    1  LIG1        0.0868
     18 N          -2.5124   -2.0745   -0.2681 N.ar    1  LIG1       -0.3493
     19 H          -1.8098   -2.7593   -0.0273 H       1  LIG1        0.1661
     20 C          -3.8675    1.2477   -0.6484 C.1     1  LIG1       -0.0656
     21 C          -4.1691    2.4131   -0.8106 C.1     1  LIG1       -0.1138
     22 H          -4.4211    3.4296   -1.0055 H       1  LIG1        0.1232
     23 N          -5.9453   -1.0299   -0.5748 N.pl3   1  LIG1       -0.3553
     24 H          -6.2111   -0.0523   -0.5018 H       1  LIG1        0.1424
     25 H          -6.2928   -1.3836   -1.4633 H       1  LIG1        0.1424
     26 C          -4.3676   -3.7173   -0.2155 C.ar    1  LIG1        0.0826
     27 C          -3.6943   -4.9519   -0.1819 C.ar    1  LIG1        0.0727
     28 C          -4.6951   -5.9692   -0.0385 C.ar    1  LIG1        0.0679
     29 C          -5.9332   -5.3423    0.0104 C.ar    1  LIG1        0.0868
     30 N          -5.7087   -3.9832   -0.0991 N.ar    1  LIG1       -0.3493
     31 H          -6.4165   -3.2629   -0.0000 H       1  LIG1        0.1661
     32 C          -2.2992   -5.1672   -0.2663 C.1     1  LIG1       -0.0656
     33 C          -1.1030   -5.3726   -0.3273 C.1     1  LIG1       -0.1138
     34 H          -0.0588   -5.5759   -0.3801 H       1  LIG1        0.1232
     35 N          -4.5115   -7.3863    0.0373 N.pl3   1  LIG1       -0.3553
     36 H          -3.8478   -7.6913   -0.6721 H       1  LIG1        0.1424
     37 H          -4.0992   -7.6422    0.9341 H       1  LIG1        0.1424
     38 C          -7.2469   -5.9221    0.1164 C.ar    1  LIG1        0.0821
     39 C          -8.5264   -5.3398    0.1800 C.ar    1  LIG1        0.0720
     40 C          -9.4754   -6.4175    0.2446 C.ar    1  LIG1        0.0584
     41 C          -8.7563   -7.5965    0.2138 C.ar    1  LIG1        0.0243
     42 N          -7.4150   -7.2746    0.1409 N.ar    1  LIG1       -0.3569
     43 H          -6.6155   -7.8961    0.0713 H       1  LIG1        0.1655
     44 H          -9.0891   -8.6218    0.2589 H       1  LIG1        0.0826
     45 C          -8.8409   -3.9624    0.1858 C.1     1  LIG1       -0.0656
     46 C          -9.1337   -2.7833    0.1795 C.1     1  LIG1       -0.1138
     47 H          -9.3802   -1.7490    0.2328 H       1  LIG1        0.1232
     48 N         -10.8586   -6.2512    0.3894 N.pl3   1  LIG1       -0.3559
     49 H         -11.1643   -5.3337    0.0865 H       1  LIG1        0.1424
     50 H         -11.4026   -6.9701   -0.0715 H       1  LIG1        0.1424
@<TRIPOS>BOND
     1    25    23    1
     2     6     5    1
     3    22    21    1
     4     7     1    1
     5    21    20    3
     6     5     1   ar
     7     5     4   ar
     8    36    35    1
     9    20    15    1
    10    23    24    1
    11    23    16    1
    12     1     2   ar
    13    16    15   ar
    14    16    17   ar
    15    15    14   ar
    16    34    33    1
    17    33    32    3
    18    17    18   ar
    19    17    26    1
    20    14    18   ar
    21    14     4    1
    22    18    19    1
    23    32    27    1
    24     4     3   ar
    25    26    27   ar
    26    26    30   ar
    27    27    28   ar
    28    30    31    1
    29    30    29   ar
    30    50    48    1
    31    28    29   ar
    32    28    35    1
    33    29    38    1
    34    35    37    1
    35    43    42    1
    36    49    48    1
    37     2     3   ar
    38     2     8    1
    39    38    42   ar
    40    38    39   ar
    41    42    41   ar
    42    46    45    3
    43    46    47    1
    44    39    45    1
    45    39    40   ar
    46    41    40   ar
    47    41    44    1
    48    40    48    1
    49     3    11    1
    50     8     9    3
    51    13    11    1
    52     9    10    1
    53    11    12    1
