@<TRIPOS>MOLECULE
mol_data/opt/b3lyp/geoms/mol2/13eh13eh-4eh13eh.out
 52 55 0 0 0
SMALL
GASTEIGER

@<TRIPOS>ATOM
      1 C           1.4011   -0.5613    0.4345 C.ar    1  LIG1        0.0195
      2 C           1.0220    0.7536    0.6935 C.ar    1  LIG1        0.0632
      3 C          -0.3922    0.8283    0.4686 C.ar    1  LIG1        0.0672
      4 C          -0.8244   -0.4389    0.0896 C.ar    1  LIG1        0.0863
      5 N           0.2935   -1.2576    0.0639 N.ar    1  LIG1       -0.3569
      6 H           0.2583   -2.2340   -0.1930 H       1  LIG1        0.1655
      7 H           2.3754   -1.0217    0.4846 H       1  LIG1        0.0820
      8 C           1.8459    1.8319    1.1010 C.1     1  LIG1       -0.0663
      9 C           2.5068    2.7862    1.4496 C.1     1  LIG1       -0.1138
     10 H           3.1076    3.6101    1.7569 H       1  LIG1        0.1232
     11 N          -1.2284    1.9549    0.6337 N.pl3   1  LIG1       -0.3553
     12 H          -0.7287    2.7069    1.0992 H       1  LIG1        0.1424
     13 H          -1.5785    2.3108   -0.2536 H       1  LIG1        0.1424
     14 C          -2.1518   -0.9149   -0.1845 C.ar    1  LIG1        0.0826
     15 C          -2.6110   -2.1801   -0.6025 C.ar    1  LIG1        0.0726
     16 C          -4.0375   -2.1053   -0.6741 C.ar    1  LIG1        0.0665
     17 C          -4.4186   -0.8108   -0.3132 C.ar    1  LIG1        0.0704
     18 N          -3.2428   -0.1163   -0.0412 N.ar    1  LIG1       -0.3505
     19 H          -3.1895    0.8179    0.3456 H       1  LIG1        0.1660
     20 C          -1.8299   -3.3142   -0.9200 C.1     1  LIG1       -0.0656
     21 C          -1.1780   -4.3007   -1.2011 C.1     1  LIG1       -0.1138
     22 H          -0.6170   -5.1710   -1.4509 H       1  LIG1        0.1232
     23 N          -4.8655   -3.1728   -1.0372 N.pl3   1  LIG1       -0.3554
     24 H          -5.6709   -2.8848   -1.5815 H       1  LIG1        0.1424
     25 H          -4.3508   -3.8989   -1.5235 H       1  LIG1        0.1424
     26 C          -6.0236    1.1574   -0.4130 C.ar    1  LIG1        0.0346
     27 C          -7.3337    1.6285   -0.2343 C.ar    1  LIG1       -0.0348
     28 C          -5.7445   -0.2234   -0.1955 C.ar    1  LIG1        0.0173
     29 C          -8.4040    0.8033    0.1256 C.ar    1  LIG1        0.0214
     30 H          -7.5195    2.6850   -0.3843 H       1  LIG1        0.0637
     31 C          -6.8256   -1.0529    0.1517 C.ar    1  LIG1       -0.0301
     32 C          -8.1297   -0.5813    0.2995 C.ar    1  LIG1        0.0345
     33 H          -6.6308   -2.1046    0.3410 H       1  LIG1        0.0643
     34 C          -5.0409    2.1008   -0.8465 C.1     1  LIG1       -0.0690
     35 C          -4.2595    2.9484   -1.2225 C.1     1  LIG1       -0.1139
     36 H          -3.6026    3.6984   -1.5974 H       1  LIG1        0.1232
     37 N          -9.1516   -1.4714    0.6847 N.pl3   1  LIG1       -0.3574
     38 H         -10.0246   -1.3156    0.1910 H       1  LIG1        0.1423
     39 H          -8.8728   -2.4426    0.6112 H       1  LIG1        0.1423
     40 C          -9.7335    1.3786    0.3377 C.ar    1  LIG1        0.0657
     41 C         -10.3463    2.5164   -0.2180 C.ar    1  LIG1        0.0705
     42 C         -11.6299    2.6701    0.4117 C.ar    1  LIG1        0.0583
     43 C         -11.7670    1.6375    1.3160 C.ar    1  LIG1        0.0242
     44 N         -10.6263    0.8602    1.2414 N.ar    1  LIG1       -0.3580
     45 H         -10.3985    0.0874    1.8496 H       1  LIG1        0.1654
     46 H         -12.5732    1.3919    1.9897 H       1  LIG1        0.0826
     47 C          -9.8734    3.3630   -1.2484 C.1     1  LIG1       -0.0657
     48 C          -9.5371    4.1237   -2.1320 C.1     1  LIG1       -0.1138
     49 H          -9.2116    4.7780   -2.9065 H       1  LIG1        0.1232
     50 N         -12.5172    3.7197    0.1551 N.pl3   1  LIG1       -0.3559
     51 H         -12.3112    4.1848   -0.7215 H       1  LIG1        0.1424
     52 H         -13.4925    3.4527    0.1959 H       1  LIG1        0.1424
@<TRIPOS>BOND
     1    49    48    1
     2    48    47    3
     3    36    35    1
     4    24    23    1
     5    25    23    1
     6    22    21    1
     7    47    41    1
     8    35    34    3
     9    21    20    3
    10    23    16    1
    11    20    15    1
    12    34    26    1
    13    51    50    1
    14    16    15   ar
    15    16    17   ar
    16    15    14   ar
    17    26    27   ar
    18    26    28   ar
    19    30    27    1
    20    17    28    1
    21    17    18   ar
    22    13    11    1
    23    27    29   ar
    24    41    40   ar
    25    41    42   ar
    26    28    31   ar
    27     6     5    1
    28    14    18   ar
    29    14     4    1
    30    18    19    1
    31     5     4   ar
    32     5     1   ar
    33     4     3   ar
    34    29    32   ar
    35    29    40    1
    36    31    32   ar
    37    31    33    1
    38    50    52    1
    39    50    42    1
    40    38    37    1
    41    32    37    1
    42    40    44   ar
    43    42    43   ar
    44     1     7    1
    45     1     2   ar
    46     3    11    1
    47     3     2   ar
    48    39    37    1
    49    11    12    1
    50     2     8    1
    51     8     9    3
    52    44    43   ar
    53    44    45    1
    54    43    46    1
    55     9    10    1
