@<TRIPOS>MOLECULE
mol_data/opt/b3lyp/geoms/mol2/13eh13eh13eh.out
 38 40 0 0 0
SMALL
GASTEIGER

@<TRIPOS>ATOM
      1 C           1.0405   -0.1934   -1.2034 C.ar    1  LIG1        0.0195
      2 C           0.9109    0.9339   -0.4054 C.ar    1  LIG1        0.0632
      3 C          -0.4375    0.9452    0.1065 C.ar    1  LIG1        0.0672
      4 C          -1.0824   -0.1783   -0.4053 C.ar    1  LIG1        0.0863
      5 N          -0.1395   -0.8741   -1.1773 N.ar    1  LIG1       -0.3569
      6 H          -0.4007   -1.5607   -1.8681 H       1  LIG1        0.1655
      7 H           1.8840   -0.5326   -1.7848 H       1  LIG1        0.0820
      8 C           1.9000    1.9039   -0.1100 C.1     1  LIG1       -0.0663
      9 C           2.7074    2.7651    0.1652 C.1     1  LIG1       -0.1138
     10 H           3.4349    3.5063    0.4006 H       1  LIG1        0.1232
     11 N          -0.9118    1.8583    1.0342 N.pl3   1  LIG1       -0.3553
     12 H          -0.3320    2.6855    1.1006 H       1  LIG1        0.1424
     13 H          -1.8959    2.0858    0.9477 H       1  LIG1        0.1424
     14 C          -2.3990   -0.7203   -0.1771 C.ar    1  LIG1        0.0826
     15 C          -3.6495   -0.0966   -0.0279 C.ar    1  LIG1        0.0727
     16 C          -4.6392   -1.1253    0.1462 C.ar    1  LIG1        0.0679
     17 C          -3.9822   -2.3518    0.0830 C.ar    1  LIG1        0.0868
     18 N          -2.6239   -2.0683   -0.1092 N.ar    1  LIG1       -0.3493
     19 H          -1.9044   -2.7693   -0.1803 H       1  LIG1        0.1661
     20 C          -3.9326    1.2857   -0.0981 C.1     1  LIG1       -0.0656
     21 C          -4.2140    2.4666   -0.1423 C.1     1  LIG1       -0.1138
     22 H          -4.4628    3.4983   -0.2321 H       1  LIG1        0.1232
     23 N          -5.9773   -0.8865    0.4174 N.pl3   1  LIG1       -0.3553
     24 H          -6.2578    0.0622    0.2033 H       1  LIG1        0.1424
     25 H          -6.6206   -1.5700    0.0345 H       1  LIG1        0.1424
     26 C          -4.4423   -3.7055    0.2661 C.ar    1  LIG1        0.0821
     27 C          -5.6344   -4.3417   -0.1084 C.ar    1  LIG1        0.0720
     28 C          -5.5645   -5.7067    0.3557 C.ar    1  LIG1        0.0584
     29 C          -4.3465   -5.8660    0.9725 C.ar    1  LIG1        0.0243
     30 N          -3.6617   -4.6546    0.8842 N.ar    1  LIG1       -0.3569
     31 H          -2.9003   -4.4087    1.4978 H       1  LIG1        0.1655
     32 H          -3.9016   -6.7282    1.4442 H       1  LIG1        0.0826
     33 C          -6.6872   -3.8086   -0.8849 C.1     1  LIG1       -0.0656
     34 C          -7.6151   -3.3823   -1.5432 C.1     1  LIG1       -0.1138
     35 H          -8.4053   -3.0164   -2.1564 H       1  LIG1        0.1232
     36 N          -6.5944   -6.6395    0.2069 N.pl3   1  LIG1       -0.3559
     37 H          -7.2269   -6.3990   -0.5473 H       1  LIG1        0.1424
     38 H          -6.2736   -7.5944    0.1122 H       1  LIG1        0.1424
@<TRIPOS>BOND
     1    35    34    1
     2     6     5    1
     3     7     1    1
     4    34    33    3
     5     1     5   ar
     6     1     2   ar
     7     5     4   ar
     8    33    27    1
     9    37    36    1
    10     2     8    1
    11     2     3   ar
    12     4    14    1
    13     4     3   ar
    14    22    21    1
    15    19    18    1
    16    14    18   ar
    17    14    15   ar
    18    21    20    3
    19     8     9    3
    20    18    17   ar
    21    27    26   ar
    22    27    28   ar
    23    20    15    1
    24    15    16   ar
    25    25    23    1
    26    17    16   ar
    27    17    26    1
    28     3    11    1
    29    38    36    1
    30    16    23    1
    31     9    10    1
    32    24    23    1
    33    36    28    1
    34    26    30   ar
    35    28    29   ar
    36    30    29   ar
    37    30    31    1
    38    13    11    1
    39    29    32    1
    40    11    12    1
