@<TRIPOS>MOLECULE
mol_data/opt/b3lyp/geoms/mol2/13eh13eh-.out
 26 27 0 0 0
SMALL
GASTEIGER

@<TRIPOS>ATOM
      1 C           1.2029   -0.3092   -0.0500 C.ar    1  LIG1        0.0195
      2 C           0.7901    1.0176   -0.0790 C.ar    1  LIG1        0.0632
      3 C          -0.6470    1.0019   -0.0728 C.ar    1  LIG1        0.0672
      4 C          -1.0523   -0.3256   -0.0424 C.ar    1  LIG1        0.0863
      5 N           0.0902   -1.0993   -0.0247 N.ar    1  LIG1       -0.3569
      6 H           0.0728   -2.1097   -0.0021 H       1  LIG1        0.1655
      7 H           2.1980   -0.7258   -0.0457 H       1  LIG1        0.0820
      8 C           1.6083    2.1747   -0.1132 C.1     1  LIG1       -0.0663
      9 C           2.2711    3.1885   -0.1443 C.1     1  LIG1       -0.1138
     10 H           2.8710    4.0681   -0.1702 H       1  LIG1        0.1232
     11 N          -1.5524    2.1113   -0.0917 N.pl3   1  LIG1       -0.3553
     12 H          -1.4706    2.6453    0.7729 H       1  LIG1        0.1424
     13 H          -1.2961    2.7556   -0.8379 H       1  LIG1        0.1424
     14 C          -2.3806   -0.8853   -0.0387 C.ar    1  LIG1        0.0821
     15 C          -2.8323   -2.2171   -0.0053 C.ar    1  LIG1        0.0720
     16 C          -4.2693   -2.1733   -0.0402 C.ar    1  LIG1        0.0584
     17 C          -4.6343   -0.8423   -0.0975 C.ar    1  LIG1        0.0243
     18 N          -3.4791   -0.0839   -0.0931 N.ar    1  LIG1       -0.3569
     19 H          -3.3788    0.9253   -0.1455 H       1  LIG1        0.1655
     20 H          -5.6106   -0.3841   -0.1241 H       1  LIG1        0.0826
     21 C          -2.0392   -3.3861    0.0418 C.1     1  LIG1       -0.0656
     22 C          -1.3693   -4.4000    0.0692 C.1     1  LIG1       -0.1138
     23 H          -0.7986   -5.2980    0.1168 H       1  LIG1        0.1232
     24 N          -5.1021   -3.2961    0.0462 N.pl3   1  LIG1       -0.3559
     25 H          -5.9728   -3.1926   -0.4597 H       1  LIG1        0.1424
     26 H          -4.6297   -4.1446   -0.2431 H       1  LIG1        0.1424
@<TRIPOS>BOND
     1    13    11    1
     2    25    24    1
     3    26    24    1
     4    10     9    1
     5    19    18    1
     6     9     8    3
     7    20    17    1
     8     8     2    1
     9    17    18   ar
    10    17    16   ar
    11    18    14   ar
    12    11     3    1
    13    11    12    1
    14     2     3   ar
    15     2     1   ar
    16     3     4   ar
    17     1     7    1
    18     1     5   ar
    19     4    14    1
    20     4     5   ar
    21    16    15   ar
    22    16    24    1
    23    14    15   ar
    24     5     6    1
    25    15    21    1
    26    21    22    3
    27    22    23    1
