@<TRIPOS>MOLECULE
mol_data/opt/b3lyp/geoms/mol2/13eh13eh-13eh13eh-.out
 50 53 0 0 0
SMALL
GASTEIGER

@<TRIPOS>ATOM
      1 C           1.3316   -0.3351    0.2800 C.ar    1  LIG1        0.0195
      2 C           0.9459    0.9970    0.1619 C.ar    1  LIG1        0.0632
      3 C          -0.4751    1.0002   -0.0340 C.ar    1  LIG1        0.0672
      4 C          -0.9044   -0.3221   -0.0197 C.ar    1  LIG1        0.0863
      5 N           0.2203   -1.1107    0.1567 N.ar    1  LIG1       -0.3569
      6 H           0.1889   -2.1199    0.1913 H       1  LIG1        0.1655
      7 H           2.3108   -0.7606    0.4351 H       1  LIG1        0.0820
      8 C           1.7697    2.1485    0.2209 C.1     1  LIG1       -0.0663
      9 C           2.4312    3.1630    0.2647 C.1     1  LIG1       -0.1138
     10 H           3.0334    4.0405    0.3062 H       1  LIG1        0.1232
     11 N          -1.3236    2.1253   -0.1962 N.pl3   1  LIG1       -0.3553
     12 H          -0.8494    2.9669    0.1203 H       1  LIG1        0.1424
     13 H          -1.5696    2.2678   -1.1742 H       1  LIG1        0.1424
     14 C          -2.2315   -0.8672   -0.1188 C.ar    1  LIG1        0.0826
     15 C          -2.6742   -2.2003   -0.2070 C.ar    1  LIG1        0.0727
     16 C          -4.1035   -2.1633   -0.2580 C.ar    1  LIG1        0.0679
     17 C          -4.4961   -0.8299   -0.1886 C.ar    1  LIG1        0.0868
     18 N          -3.3399   -0.0678   -0.1310 N.ar    1  LIG1       -0.3493
     19 H          -3.2955    0.9387   -0.0056 H       1  LIG1        0.1661
     20 C          -1.8778   -3.3681   -0.2485 C.1     1  LIG1       -0.0656
     21 C          -1.2138   -4.3852   -0.2765 C.1     1  LIG1       -0.1138
     22 H          -0.6415   -5.2826   -0.3213 H       1  LIG1        0.1232
     23 N          -4.9855   -3.2678   -0.3481 N.pl3   1  LIG1       -0.3553
     24 H          -5.3822   -3.3615   -1.2810 H       1  LIG1        0.1424
     25 H          -4.4954   -4.1317   -0.1350 H       1  LIG1        0.1424
     26 C          -5.8192   -0.2694   -0.1546 C.ar    1  LIG1        0.0826
     27 C          -6.2676    1.0626   -0.1974 C.ar    1  LIG1        0.0727
     28 C          -7.6975    1.0234   -0.1207 C.ar    1  LIG1        0.0679
     29 C          -8.0833   -0.3089   -0.0371 C.ar    1  LIG1        0.0868
     30 N          -6.9312   -1.0688   -0.0571 N.ar    1  LIG1       -0.3493
     31 H          -6.8818   -2.0747    0.0722 H       1  LIG1        0.1661
     32 C          -5.4825    2.2348   -0.2930 C.1     1  LIG1       -0.0656
     33 C          -4.8389    3.2612   -0.3699 C.1     1  LIG1       -0.1138
     34 H          -4.2699    4.1602   -0.4113 H       1  LIG1        0.1232
     35 N          -8.6099    2.1250   -0.1342 N.pl3   1  LIG1       -0.3553
     36 H          -8.6192    2.5874    0.7748 H       1  LIG1        0.1424
     37 H          -8.2946    2.8273   -0.8004 H       1  LIG1        0.1424
     38 C          -9.4085   -0.8700    0.0192 C.ar    1  LIG1        0.0821
     39 C          -9.8648   -2.1970    0.1243 C.ar    1  LIG1        0.0720
     40 C         -11.3015   -2.1509    0.0943 C.ar    1  LIG1        0.0584
     41 C         -11.6648   -0.8244   -0.0307 C.ar    1  LIG1        0.0243
     42 N         -10.5086   -0.0692   -0.0685 N.ar    1  LIG1       -0.3569
     43 H         -10.4096    0.9332   -0.1955 H       1  LIG1        0.1655
     44 H         -12.6404   -0.3656   -0.0719 H       1  LIG1        0.0826
     45 C          -9.0830   -3.3679    0.2405 C.1     1  LIG1       -0.0656
     46 C          -8.4338   -4.3911    0.3272 C.1     1  LIG1       -0.1138
     47 H          -7.8602   -5.2779    0.4606 H       1  LIG1        0.1232
     48 N         -12.1357   -3.2663    0.2460 N.pl3   1  LIG1       -0.3559
     49 H         -12.9969   -3.2008   -0.2822 H       1  LIG1        0.1424
     50 H         -11.6551   -4.1305    0.0234 H       1  LIG1        0.1424
@<TRIPOS>BOND
     1    24    23    1
     2    13    11    1
     3    37    35    1
     4    34    33    1
     5    33    32    3
     6    23    16    1
     7    23    25    1
     8    22    21    1
     9    32    27    1
    10    49    48    1
    11    21    20    3
    12    16    15   ar
    13    16    17   ar
    14    20    15    1
    15    15    14   ar
    16    27    26   ar
    17    27    28   ar
    18    11     3    1
    19    11    12    1
    20    43    42    1
    21    17    26    1
    22    17    18   ar
    23    26    30   ar
    24    35    28    1
    25    35    36    1
    26    18    14   ar
    27    18    19    1
    28    28    29   ar
    29    14     4    1
    30    44    41    1
    31    42    41   ar
    32    42    38   ar
    33    30    29   ar
    34    30    31    1
    35    29    38    1
    36     3     4   ar
    37     3     2   ar
    38    41    40   ar
    39     4     5   ar
    40    38    39   ar
    41    50    48    1
    42    40    39   ar
    43    40    48    1
    44    39    45    1
    45     5     6    1
    46     5     1   ar
    47     2     8    1
    48     2     1   ar
    49     8     9    3
    50    45    46    3
    51     9    10    1
    52     1     7    1
    53    46    47    1
