@<TRIPOS>MOLECULE
mol_data/opt/b3lyp/geoms/mol2/13eh13eh.out
 26 27 0 0 0
SMALL
GASTEIGER

@<TRIPOS>ATOM
      1 C           1.1711   -0.3381   -0.5902 C.ar    1  LIG1        0.0195
      2 C           0.8728    0.9329   -0.1185 C.ar    1  LIG1        0.0632
      3 C          -0.5404    0.9647    0.1666 C.ar    1  LIG1        0.0672
      4 C          -1.0531   -0.2913   -0.1494 C.ar    1  LIG1        0.0863
      5 N           0.0258   -1.0743   -0.5818 N.ar    1  LIG1       -0.3569
      6 H          -0.0943   -1.9384   -1.0865 H       1  LIG1        0.1655
      7 H           2.1104   -0.7430   -0.9337 H       1  LIG1        0.0820
      8 C           1.7655    2.0152    0.0767 C.1     1  LIG1       -0.0663
      9 C           2.4860    2.9742    0.2517 C.1     1  LIG1       -0.1138
     10 H           3.1385    3.8013    0.4071 H       1  LIG1        0.1232
     11 N          -1.1936    2.0336    0.7606 N.pl3   1  LIG1       -0.3553
     12 H          -0.6584    2.8917    0.7142 H       1  LIG1        0.1424
     13 H          -2.1546    2.1660    0.4664 H       1  LIG1        0.1424
     14 C          -2.3692   -0.8638   -0.0054 C.ar    1  LIG1        0.0821
     15 C          -3.6486   -0.3109   -0.1608 C.ar    1  LIG1        0.0720
     16 C          -4.6088   -1.3473    0.1331 C.ar    1  LIG1        0.0584
     17 C          -3.9006   -2.4862    0.4361 C.ar    1  LIG1        0.0243
     18 N          -2.5447   -2.1868    0.3195 N.ar    1  LIG1       -0.3569
     19 H          -1.8136   -2.7427    0.7346 H       1  LIG1        0.1655
     20 H          -4.2358   -3.4760    0.7036 H       1  LIG1        0.0826
     21 C          -3.9768    0.9859   -0.6149 C.1     1  LIG1       -0.0656
     22 C          -4.2974    2.0942   -0.9955 C.1     1  LIG1       -0.1138
     23 H          -4.5719    3.0519   -1.3720 H       1  LIG1        0.1232
     24 N          -5.9940   -1.1581    0.1311 N.pl3   1  LIG1       -0.3559
     25 H          -6.2718   -0.3569   -0.4235 H       1  LIG1        0.1424
     26 H          -6.5195   -1.9786   -0.1419 H       1  LIG1        0.1424
@<TRIPOS>BOND
     1    23    22    1
     2     6     5    1
     3    22    21    3
     4     7     1    1
     5    21    15    1
     6     1     5   ar
     7     1     2   ar
     8     5     4   ar
     9    25    24    1
    10    15    14   ar
    11    15    16   ar
    12     4    14    1
    13     4     3   ar
    14    26    24    1
    15     2     8    1
    16     2     3   ar
    17    14    18   ar
    18     8     9    3
    19    24    16    1
    20    16    17   ar
    21     3    11    1
    22     9    10    1
    23    18    17   ar
    24    18    19    1
    25    17    20    1
    26    13    11    1
    27    12    11    1
