@<TRIPOS>MOLECULE
mol_data/opt/b3lyp/geoms/mol2/13eh13eh-13eh.out
 38 40 0 0 0
SMALL
GASTEIGER

@<TRIPOS>ATOM
      1 C           1.2703   -0.3605    0.1167 C.ar    1  LIG1        0.0195
      2 C           0.8741    0.9673   -0.0148 C.ar    1  LIG1        0.0632
      3 C          -0.5557    0.9627   -0.1325 C.ar    1  LIG1        0.0672
      4 C          -0.9792   -0.3596   -0.0581 C.ar    1  LIG1        0.0863
      5 N           0.1565   -1.1411    0.0769 N.ar    1  LIG1       -0.3569
      6 H           0.1302   -2.1493    0.1360 H       1  LIG1        0.1655
      7 H           2.2582   -0.7798    0.2263 H       1  LIG1        0.0820
      8 C           1.6959    2.1216   -0.0324 C.1     1  LIG1       -0.0663
      9 C           2.3550    3.1384   -0.0525 C.1     1  LIG1       -0.1138
     10 H           2.9550    4.0182   -0.0681 H       1  LIG1        0.1232
     11 N          -1.4125    2.0827   -0.2758 N.pl3   1  LIG1       -0.3553
     12 H          -0.9160    2.9356   -0.0330 H       1  LIG1        0.1424
     13 H          -1.7393    2.1851   -1.2348 H       1  LIG1        0.1424
     14 C          -2.3088   -0.9089   -0.0662 C.ar    1  LIG1        0.0826
     15 C          -2.7576   -2.2402   -0.0913 C.ar    1  LIG1        0.0727
     16 C          -4.1907   -2.1969   -0.0682 C.ar    1  LIG1        0.0679
     17 C          -4.5735   -0.8619   -0.0318 C.ar    1  LIG1        0.0868
     18 N          -3.4186   -0.1051   -0.0314 N.ar    1  LIG1       -0.3493
     19 H          -3.3693    0.9047    0.0664 H       1  LIG1        0.1661
     20 C          -1.9604   -3.4079   -0.1356 C.1     1  LIG1       -0.0656
     21 C          -1.2884   -4.4194   -0.1678 C.1     1  LIG1       -0.1138
     22 H          -0.7143   -5.3158   -0.2087 H       1  LIG1        0.1232
     23 N          -5.1092   -3.2943   -0.0874 N.pl3   1  LIG1       -0.3553
     24 H          -4.8341   -3.9681   -0.7997 H       1  LIG1        0.1424
     25 H          -5.0790   -3.7969    0.7992 H       1  LIG1        0.1424
     26 C          -5.8973   -0.2934   -0.0263 C.ar    1  LIG1        0.0821
     27 C          -6.3476    1.0387    0.0224 C.ar    1  LIG1        0.0720
     28 C          -7.7836    0.9985   -0.0297 C.ar    1  LIG1        0.0584
     29 C          -8.1518   -0.3303   -0.1119 C.ar    1  LIG1        0.0243
     30 N          -6.9996   -1.0916   -0.1048 N.ar    1  LIG1       -0.3569
     31 H          -6.9029   -2.0996   -0.1777 H       1  LIG1        0.1655
     32 H          -9.1291   -0.7854   -0.1533 H       1  LIG1        0.0826
     33 C          -5.5604    2.2089    0.1089 C.1     1  LIG1       -0.0656
     34 C          -4.9058    3.2302    0.1709 C.1     1  LIG1       -0.1138
     35 H          -4.3279    4.1178    0.2785 H       1  LIG1        0.1232
     36 N          -8.6143    2.1224    0.0656 N.pl3   1  LIG1       -0.3559
     37 H          -8.1264    2.9759   -0.1806 H       1  LIG1        0.1424
     38 H          -9.4677    2.0407   -0.4730 H       1  LIG1        0.1424
@<TRIPOS>BOND
     1    13    11    1
     2    24    23    1
     3    38    36    1
     4    11     3    1
     5    11    12    1
     6    22    21    1
     7    37    36    1
     8    31    30    1
     9    21    20    3
    10    32    29    1
    11    20    15    1
    12     3     4   ar
    13     3     2   ar
    14    29    30   ar
    15    29    28   ar
    16    30    26   ar
    17    15    16   ar
    18    15    14   ar
    19    23    16    1
    20    23    25    1
    21    16    17   ar
    22    10     9    1
    23    14     4    1
    24    14    18   ar
    25     4     5   ar
    26     9     8    3
    27     8     2    1
    28    17    18   ar
    29    17    26    1
    30    18    19    1
    31    28    27   ar
    32    28    36    1
    33    26    27   ar
    34     2     1   ar
    35    27    33    1
    36     5     1   ar
    37     5     6    1
    38    33    34    3
    39     1     7    1
    40    34    35    1
