@<TRIPOS>MOLECULE
mol_data/opt/b3lyp/geoms/mol2/13eh13eh13eh-13eh-.out
 50 53 0 0 0
SMALL
GASTEIGER

@<TRIPOS>ATOM
      1 C           1.2401   -0.1802   -0.6452 C.ar    1  LIG1        0.0195
      2 C           0.9179    1.0726   -0.1408 C.ar    1  LIG1        0.0632
      3 C          -0.5074    1.0960    0.0708 C.ar    1  LIG1        0.0672
      4 C          -1.0036   -0.1466   -0.3223 C.ar    1  LIG1        0.0863
      5 N           0.0975   -0.9127   -0.7290 N.ar    1  LIG1       -0.3569
      6 H           0.0112   -1.7694   -1.2531 H       1  LIG1        0.1655
      7 H           2.1964   -0.5730   -0.9545 H       1  LIG1        0.0820
      8 C           1.7979    2.1458    0.1418 C.1     1  LIG1       -0.0663
      9 C           2.5066    3.0969    0.3914 C.1     1  LIG1       -0.1138
     10 H           3.1498    3.9165    0.6121 H       1  LIG1        0.1232
     11 N          -1.1873    2.1411    0.6744 N.pl3   1  LIG1       -0.3553
     12 H          -0.6459    2.9961    0.7002 H       1  LIG1        0.1424
     13 H          -2.1321    2.2928    0.3405 H       1  LIG1        0.1424
     14 C          -2.3211   -0.7262   -0.2686 C.ar    1  LIG1        0.0826
     15 C          -3.6009   -0.1723   -0.4446 C.ar    1  LIG1        0.0727
     16 C          -4.5507   -1.2374   -0.2885 C.ar    1  LIG1        0.0679
     17 C          -3.8428   -2.4043   -0.0437 C.ar    1  LIG1        0.0868
     18 N          -2.5000   -2.0703   -0.0363 N.ar    1  LIG1       -0.3493
     19 H          -1.7758   -2.7126    0.2555 H       1  LIG1        0.1661
     20 C          -3.9253    1.1567   -0.8012 C.1     1  LIG1       -0.0656
     21 C          -4.2426    2.2897   -1.1017 C.1     1  LIG1       -0.1138
     22 H          -4.5141    3.2719   -1.4121 H       1  LIG1        0.1232
     23 N          -5.9756   -1.1757   -0.3955 N.pl3   1  LIG1       -0.3553
     24 H          -6.3697   -0.7137    0.4238 H       1  LIG1        0.1424
     25 H          -6.2378   -0.5965   -1.1914 H       1  LIG1        0.1424
     26 C          -4.3143   -3.7478    0.1445 C.ar    1  LIG1        0.0826
     27 C          -3.6211   -4.9562    0.3386 C.ar    1  LIG1        0.0727
     28 C          -4.5982   -6.0080    0.3835 C.ar    1  LIG1        0.0679
     29 C          -5.8519   -5.4172    0.2067 C.ar    1  LIG1        0.0868
     30 N          -5.6431   -4.0423    0.0899 N.ar    1  LIG1       -0.3493
     31 H          -6.3095   -3.3407   -0.2196 H       1  LIG1        0.1661
     32 C          -2.2257   -5.1235    0.4887 C.1     1  LIG1       -0.0656
     33 C          -1.0274   -5.2872    0.6103 C.1     1  LIG1       -0.1138
     34 H           0.0153   -5.4480    0.7572 H       1  LIG1        0.1232
     35 N          -4.3107   -7.3316    0.6781 N.pl3   1  LIG1       -0.3553
     36 H          -4.9219   -8.0116    0.2400 H       1  LIG1        0.1424
     37 H          -3.3334   -7.5617    0.5507 H       1  LIG1        0.1424
     38 C          -7.1862   -5.9607    0.2441 C.ar    1  LIG1        0.0821
     39 C          -7.7078   -7.1994   -0.1645 C.ar    1  LIG1        0.0720
     40 C          -9.1197   -7.1946    0.1303 C.ar    1  LIG1        0.0584
     41 C          -9.4177   -5.9711    0.6834 C.ar    1  LIG1        0.0243
     42 N          -8.2424   -5.2269    0.7222 N.ar    1  LIG1       -0.3569
     43 H          -8.1224   -4.3912    1.2718 H       1  LIG1        0.1655
     44 H         -10.3523   -5.5642    1.0365 H       1  LIG1        0.0826
     45 C          -7.0358   -8.2406   -0.8416 C.1     1  LIG1       -0.0656
     46 C          -6.4944   -9.1620   -1.4202 C.1     1  LIG1       -0.1138
     47 H          -6.0258   -9.9456   -1.9686 H       1  LIG1        0.1232
     48 N          -9.9734   -8.2802   -0.0911 N.pl3   1  LIG1       -0.3559
     49 H         -10.9213   -8.0129   -0.3237 H       1  LIG1        0.1424
     50 H          -9.6057   -8.9205   -0.7852 H       1  LIG1        0.1424
@<TRIPOS>BOND
     1    47    46    1
     2    46    45    3
     3    22    21    1
     4     6     5    1
     5    25    23    1
     6    21    20    3
     7     7     1    1
     8    45    39    1
     9    20    15    1
    10    50    48    1
    11     5     1   ar
    12     5     4   ar
    13     1     2   ar
    14    15    16   ar
    15    15    14   ar
    16    23    16    1
    17    23    24    1
    18    49    48    1
    19     4    14    1
    20     4     3   ar
    21    16    17   ar
    22    14    18   ar
    23    31    30    1
    24    39    40   ar
    25    39    38   ar
    26     2     3   ar
    27     2     8    1
    28    48    40    1
    29    17    18   ar
    30    17    26    1
    31    18    19    1
    32     3    11    1
    33    30    26   ar
    34    30    29   ar
    35    40    41   ar
    36     8     9    3
    37    26    27   ar
    38    29    38    1
    39    29    28   ar
    40    36    35    1
    41    38    42   ar
    42    27    28   ar
    43    27    32    1
    44    13    11    1
    45    28    35    1
    46     9    10    1
    47    32    33    3
    48    37    35    1
    49    33    34    1
    50    11    12    1
    51    41    42   ar
    52    41    44    1
    53    42    43    1
