@<TRIPOS>MOLECULE
mol_data/opt/b3lyp/geoms/mol2/13eh13eh13eh13eh.out
 50 53 0 0 0
SMALL
GASTEIGER

@<TRIPOS>ATOM
      1 C           0.7412   -0.0450   -1.9030 C.ar    1  LIG1        0.0195
      2 C           0.8466    0.9069   -0.8997 C.ar    1  LIG1        0.0632
      3 C          -0.3697    0.8523   -0.1263 C.ar    1  LIG1        0.0672
      4 C          -1.1752   -0.1325   -0.6932 C.ar    1  LIG1        0.0863
      5 N          -0.4517   -0.6883   -1.7598 N.ar    1  LIG1       -0.3569
      6 H          -0.8900   -1.2132   -2.5011 H       1  LIG1        0.1655
      7 H           1.4277   -0.2844   -2.7005 H       1  LIG1        0.0820
      8 C           1.9355    1.7750   -0.6403 C.1     1  LIG1       -0.0663
      9 C           2.8352    2.5449   -0.3821 C.1     1  LIG1       -0.1138
     10 H           3.6412    3.2076   -0.1687 H       1  LIG1        0.1232
     11 N          -0.5893    1.5778    1.0332 N.pl3   1  LIG1       -0.3553
     12 H           0.0467    2.3591    1.1320 H       1  LIG1        0.1424
     13 H          -1.5535    1.8442    1.1971 H       1  LIG1        0.1424
     14 C          -2.4499   -0.6780   -0.2976 C.ar    1  LIG1        0.0826
     15 C          -3.6033   -0.0657    0.2211 C.ar    1  LIG1        0.0727
     16 C          -4.6020   -1.0841    0.4024 C.ar    1  LIG1        0.0679
     17 C          -4.0500   -2.2910   -0.0214 C.ar    1  LIG1        0.0868
     18 N          -2.7393   -2.0091   -0.4302 N.ar    1  LIG1       -0.3493
     19 H          -2.1021   -2.6902   -0.8098 H       1  LIG1        0.1661
     20 C          -3.8066    1.3101    0.4698 C.1     1  LIG1       -0.0656
     21 C          -4.0161    2.4832    0.7053 C.1     1  LIG1       -0.1138
     22 H          -4.2125    3.5182    0.8622 H       1  LIG1        0.1232
     23 N          -5.8396   -0.8714    0.9877 N.pl3   1  LIG1       -0.3553
     24 H          -6.0980    0.1068    1.0175 H       1  LIG1        0.1424
     25 H          -6.5884   -1.4541    0.6307 H       1  LIG1        0.1424
     26 C          -4.5527   -3.6410    0.0075 C.ar    1  LIG1        0.0826
     27 C          -5.8299   -4.1629   -0.2620 C.ar    1  LIG1        0.0727
     28 C          -5.7673   -5.5911   -0.1081 C.ar    1  LIG1        0.0679
     29 C          -4.4570   -5.9172    0.2331 C.ar    1  LIG1        0.0868
     30 N          -3.7474   -4.7107    0.2955 N.ar    1  LIG1       -0.3493
     31 H          -2.7803   -4.6419    0.5675 H       1  LIG1        0.1661
     32 C          -6.9752   -3.4509   -0.6826 C.1     1  LIG1       -0.0656
     33 C          -7.9836   -2.8723   -1.0349 C.1     1  LIG1       -0.1138
     34 H          -8.8508   -2.3673   -1.3919 H       1  LIG1        0.1232
     35 N          -6.8599   -6.4383   -0.2043 N.pl3   1  LIG1       -0.3553
     36 H          -7.6516   -6.0076   -0.6650 H       1  LIG1        0.1424
     37 H          -6.6568   -7.3594   -0.5757 H       1  LIG1        0.1424
     38 C          -3.8319   -7.1690    0.5799 C.ar    1  LIG1        0.0821
     39 C          -4.0086   -8.4663    0.0782 C.ar    1  LIG1        0.0720
     40 C          -3.1295   -9.3424    0.8151 C.ar    1  LIG1        0.0584
     41 C          -2.4412   -8.5655    1.7163 C.ar    1  LIG1        0.0243
     42 N          -2.8527   -7.2446    1.5431 N.ar    1  LIG1       -0.3569
     43 H          -2.7391   -6.5374    2.2529 H       1  LIG1        0.1655
     44 H          -1.6900   -8.8271    2.4450 H       1  LIG1        0.0826
     45 C          -4.8120   -8.8647   -1.0133 C.1     1  LIG1       -0.0656
     46 C          -5.4968   -9.2465   -1.9414 C.1     1  LIG1       -0.1138
     47 H          -6.0662   -9.5678   -2.7822 H       1  LIG1        0.1232
     48 N          -3.0611  -10.7254    0.6262 N.pl3   1  LIG1       -0.3559
     49 H          -3.4017  -11.0073   -0.2854 H       1  LIG1        0.1424
     50 H          -2.1460  -11.1196    0.8025 H       1  LIG1        0.1424
@<TRIPOS>BOND
     1    47    46    1
     2     7     1    1
     3     6     5    1
     4    46    45    3
     5     1     5   ar
     6     1     2   ar
     7     5     4   ar
     8    34    33    1
     9    33    32    3
    10    45    39    1
    11     2     8    1
    12     2     3   ar
    13    19    18    1
    14     4    14    1
    15     4     3   ar
    16    32    27    1
    17    36    35    1
    18     8     9    3
    19    37    35    1
    20    18    14   ar
    21    18    17   ar
    22     9    10    1
    23    14    15   ar
    24    49    48    1
    25    27    28   ar
    26    27    26   ar
    27    35    28    1
    28     3    11    1
    29    28    29   ar
    30    17    26    1
    31    17    16   ar
    32    26    30   ar
    33    39    38   ar
    34    39    40   ar
    35    15    16   ar
    36    15    20    1
    37    29    30   ar
    38    29    38    1
    39    30    31    1
    40    16    23    1
    41    20    21    3
    42    38    42   ar
    43    48    50    1
    44    48    40    1
    45    25    23    1
    46    21    22    1
    47    40    41   ar
    48    23    24    1
    49    11    12    1
    50    11    13    1
    51    42    41   ar
    52    42    43    1
    53    41    44    1
