@<TRIPOS>MOLECULE
mol_data/opt/b3lyp/geoms/mol2/13eh13eh-13eh-13eh-.out
 50 53 0 0 0
SMALL
GASTEIGER

@<TRIPOS>ATOM
      1 C           1.2708   -0.1558   -0.3667 C.ar    1  LIG1        0.0195
      2 C           0.7516    1.0673   -0.7755 C.ar    1  LIG1        0.0632
      3 C          -0.6764    0.9666   -0.6614 C.ar    1  LIG1        0.0672
      4 C          -0.9717   -0.3069   -0.1904 C.ar    1  LIG1        0.0863
      5 N           0.2292   -0.9652   -0.0186 N.ar    1  LIG1       -0.3569
      6 H           0.2953   -1.9195    0.3081 H       1  LIG1        0.1655
      7 H           2.2955   -0.4874   -0.3042 H       1  LIG1        0.0820
      8 C           1.4721    2.2031   -1.2234 C.1     1  LIG1       -0.0663
      9 C           2.0502    3.1943   -1.6121 C.1     1  LIG1       -0.1138
     10 H           2.5763    4.0556   -1.9520 H       1  LIG1        0.1232
     11 N          -1.6696    1.9512   -0.9726 N.pl3   1  LIG1       -0.3553
     12 H          -1.5395    2.7753   -0.3869 H       1  LIG1        0.1424
     13 H          -1.5470    2.2759   -1.9307 H       1  LIG1        0.1424
     14 C          -2.2482   -0.9135    0.0808 C.ar    1  LIG1        0.0826
     15 C          -2.5967   -2.2167    0.4753 C.ar    1  LIG1        0.0727
     16 C          -4.0305   -2.2803    0.5223 C.ar    1  LIG1        0.0679
     17 C          -4.5141   -1.0230    0.1476 C.ar    1  LIG1        0.0868
     18 N          -3.4024   -0.2136   -0.0907 N.ar    1  LIG1       -0.3493
     19 H          -3.3761    0.7026   -0.5312 H       1  LIG1        0.1661
     20 C          -1.7148   -3.2771    0.7853 C.1     1  LIG1       -0.0656
     21 C          -0.9699   -4.2008    1.0473 C.1     1  LIG1       -0.1138
     22 H          -0.3317   -5.0175    1.2929 H       1  LIG1        0.1232
     23 N          -4.7497   -3.3704    0.9847 N.pl3   1  LIG1       -0.3553
     24 H          -5.6626   -3.4942    0.5614 H       1  LIG1        0.1424
     25 H          -4.2117   -4.2275    0.9873 H       1  LIG1        0.1424
     26 C          -5.8484   -0.4818    0.1034 C.ar    1  LIG1        0.0826
     27 C          -7.0824   -1.0554   -0.2542 C.ar    1  LIG1        0.0727
     28 C          -8.0908   -0.0356   -0.1511 C.ar    1  LIG1        0.0679
     29 C          -7.4576    1.1393    0.2471 C.ar    1  LIG1        0.0868
     30 N          -6.1010    0.8295    0.4027 N.ar    1  LIG1       -0.3493
     31 H          -5.3935    1.5030    0.6477 H       1  LIG1        0.1661
     32 C          -7.3243   -2.3677   -0.7170 C.1     1  LIG1       -0.0656
     33 C          -7.5807   -3.4874   -1.1132 C.1     1  LIG1       -0.1138
     34 H          -7.7911   -4.4532   -1.5099 H       1  LIG1        0.1232
     35 N          -9.4474   -0.2557   -0.3319 N.pl3   1  LIG1       -0.3553
     36 H          -9.9596    0.5263   -0.7239 H       1  LIG1        0.1424
     37 H          -9.6423   -1.1213   -0.8191 H       1  LIG1        0.1424
     38 C          -7.9649    2.4454    0.5832 C.ar    1  LIG1        0.0821
     39 C          -9.0089    3.2079    0.0392 C.ar    1  LIG1        0.0720
     40 C          -9.0852    4.4393    0.7884 C.ar    1  LIG1        0.0584
     41 C          -8.0926    4.4014    1.7385 C.ar    1  LIG1        0.0243
     42 N          -7.3996    3.2014    1.5835 N.ar    1  LIG1       -0.3569
     43 H          -6.8352    2.7936    2.3126 H       1  LIG1        0.1655
     44 H          -7.8069    5.1207    2.4900 H       1  LIG1        0.0826
     45 C          -9.7932    2.9077   -1.0965 C.1     1  LIG1       -0.0656
     46 C         -10.4926    2.6811   -2.0639 C.1     1  LIG1       -0.1138
     47 H         -11.0713    2.4967   -2.9387 H       1  LIG1        0.1232
     48 N         -10.0397    5.4359    0.5648 N.pl3   1  LIG1       -0.3559
     49 H          -9.7101    6.3714    0.7648 H       1  LIG1        0.1424
     50 H         -10.4332    5.3887   -0.3677 H       1  LIG1        0.1424
@<TRIPOS>BOND
     1    47    46    1
     2    46    45    3
     3    10     9    1
     4    13    11    1
     5     9     8    3
     6    34    33    1
     7     8     2    1
     8    33    32    3
     9    45    39    1
    10    11     3    1
    11    11    12    1
    12    37    35    1
    13     2     3   ar
    14     2     1   ar
    15    36    35    1
    16    32    27    1
    17     3     4   ar
    18    19    18    1
    19    50    48    1
    20     1     7    1
    21     1     5   ar
    22    35    28    1
    23    27    28   ar
    24    27    26   ar
    25     4     5   ar
    26     4    14    1
    27    28    29   ar
    28    18    14   ar
    29    18    17   ar
    30     5     6    1
    31    39    38   ar
    32    39    40   ar
    33    14    15   ar
    34    26    17    1
    35    26    30   ar
    36    17    16   ar
    37    29    30   ar
    38    29    38    1
    39    30    31    1
    40    15    16   ar
    41    15    20    1
    42    16    23    1
    43    24    23    1
    44    48    49    1
    45    48    40    1
    46    38    42   ar
    47    20    21    3
    48    40    41   ar
    49    23    25    1
    50    21    22    1
    51    42    41   ar
    52    42    43    1
    53    41    44    1
