@<TRIPOS>MOLECULE
mol_data/opt/b3lyp/geoms/mol2/13eh13eh-13eh-13eh.out
 50 53 0 0 0
SMALL
GASTEIGER

@<TRIPOS>ATOM
      1 C           1.2927   -0.2878   -0.2066 C.ar    1  LIG1        0.0195
      2 C           0.8318    0.9561   -0.6244 C.ar    1  LIG1        0.0632
      3 C          -0.6013    0.9086   -0.5545 C.ar    1  LIG1        0.0672
      4 C          -0.9580   -0.3564   -0.1025 C.ar    1  LIG1        0.0863
      5 N           0.2125   -1.0578    0.1095 N.ar    1  LIG1       -0.3569
      6 H           0.2332   -2.0148    0.4338 H       1  LIG1        0.1655
      7 H           2.3022   -0.6574   -0.1158 H       1  LIG1        0.0820
      8 C           1.6058    2.0649   -1.0498 C.1     1  LIG1       -0.0663
      9 C           2.2293    3.0348   -1.4221 C.1     1  LIG1       -0.1138
     10 H           2.7952    3.8772   -1.7451 H       1  LIG1        0.1232
     11 N          -1.5442    1.9277   -0.8918 N.pl3   1  LIG1       -0.3553
     12 H          -1.6061    2.6235   -0.1492 H       1  LIG1        0.1424
     13 H          -1.2331    2.4296   -1.7209 H       1  LIG1        0.1424
     14 C          -2.2655   -0.9220    0.0966 C.ar    1  LIG1        0.0826
     15 C          -2.6752   -2.2123    0.4760 C.ar    1  LIG1        0.0727
     16 C          -4.1099   -2.2372    0.4257 C.ar    1  LIG1        0.0679
     17 C          -4.5322   -0.9710    0.0098 C.ar    1  LIG1        0.0868
     18 N          -3.3861   -0.1925   -0.1561 N.ar    1  LIG1       -0.3493
     19 H          -3.3117    0.7104   -0.6192 H       1  LIG1        0.1661
     20 C          -1.8457   -3.2934    0.8515 C.1     1  LIG1       -0.0656
     21 C          -1.1460   -4.2355    1.1672 C.1     1  LIG1       -0.1138
     22 H          -0.5482   -5.0657    1.4641 H       1  LIG1        0.1232
     23 N          -4.8883   -3.3037    0.8465 N.pl3   1  LIG1       -0.3553
     24 H          -5.7665   -3.4166    0.3532 H       1  LIG1        0.1424
     25 H          -4.3705   -4.1712    0.9070 H       1  LIG1        0.1424
     26 C          -5.8407   -0.3880   -0.1327 C.ar    1  LIG1        0.0826
     27 C          -7.0769   -0.9236   -0.5360 C.ar    1  LIG1        0.0727
     28 C          -8.0344    0.1462   -0.5028 C.ar    1  LIG1        0.0679
     29 C          -7.3721    1.2959   -0.1030 C.ar    1  LIG1        0.0868
     30 N          -6.0517    0.9492    0.1135 N.ar    1  LIG1       -0.3493
     31 H          -5.3761    1.5774    0.5268 H       1  LIG1        0.1661
     32 C          -7.3471   -2.2350   -0.9886 C.1     1  LIG1       -0.0656
     33 C          -7.6212   -3.3523   -1.3783 C.1     1  LIG1       -0.1138
     34 H          -7.8471   -4.3182   -1.7664 H       1  LIG1        0.1232
     35 N          -9.4248    0.1017   -0.8377 N.pl3   1  LIG1       -0.3553
     36 H          -9.5576   -0.4303   -1.6961 H       1  LIG1        0.1424
     37 H          -9.9439   -0.4005   -0.1179 H       1  LIG1        0.1424
     38 C          -7.8684    2.6360    0.0654 C.ar    1  LIG1        0.0821
     39 C          -7.2396    3.8159    0.5062 C.ar    1  LIG1        0.0720
     40 C          -8.2237    4.8632    0.4454 C.ar    1  LIG1        0.0584
     41 C          -9.3925    4.2970   -0.0240 C.ar    1  LIG1        0.0243
     42 N          -9.1564    2.9528   -0.2425 N.ar    1  LIG1       -0.3569
     43 H          -9.7883    2.2477   -0.6085 H       1  LIG1        0.1655
     44 H         -10.3625    4.7356   -0.1986 H       1  LIG1        0.0826
     45 C          -5.9046    3.9618    0.9452 C.1     1  LIG1       -0.0656
     46 C          -4.7562    4.1119    1.3152 C.1     1  LIG1       -0.1138
     47 H          -3.7769    4.2518    1.7097 H       1  LIG1        0.1232
     48 N          -8.0103    6.1810    0.8691 N.pl3   1  LIG1       -0.3559
     49 H          -7.0282    6.4304    0.8609 H       1  LIG1        0.1424
     50 H          -8.5476    6.8639    0.3497 H       1  LIG1        0.1424
@<TRIPOS>BOND
     1    34    33    1
     2    10     9    1
     3    13    11    1
     4    36    35    1
     5     9     8    3
     6    33    32    3
     7     8     2    1
     8    32    27    1
     9    11     3    1
    10    11    12    1
    11    35    28    1
    12    35    37    1
    13     2     3   ar
    14     2     1   ar
    15    19    18    1
    16    43    42    1
    17     3     4   ar
    18    27    28   ar
    19    27    26   ar
    20    28    29   ar
    21    42    41   ar
    22    42    38   ar
    23     1     7    1
    24     1     5   ar
    25    44    41    1
    26    18    17   ar
    27    18    14   ar
    28    26    17    1
    29    26    30   ar
    30    29    38    1
    31    29    30   ar
    32     4    14    1
    33     4     5   ar
    34    41    40   ar
    35    17    16   ar
    36    38    39   ar
    37    14    15   ar
    38     5     6    1
    39    30    31    1
    40    50    48    1
    41    24    23    1
    42    16    15   ar
    43    16    23    1
    44    40    39   ar
    45    40    48    1
    46    15    20    1
    47    39    45    1
    48    23    25    1
    49    20    21    3
    50    49    48    1
    51    45    46    3
    52    21    22    1
    53    46    47    1
