@<TRIPOS>MOLECULE
mol_data/opt/b3lyp/geoms/mol2/13eh13eh13eh13eh-.out
 50 53 0 0 0
SMALL
GASTEIGER

@<TRIPOS>ATOM
      1 C           0.8323    0.0085   -1.6961 C.ar    1  LIG1        0.0195
      2 C           0.8475    0.9655   -0.6918 C.ar    1  LIG1        0.0632
      3 C          -0.4172    0.8858   -0.0032 C.ar    1  LIG1        0.0672
      4 C          -1.1604   -0.1182   -0.6208 C.ar    1  LIG1        0.0863
      5 N          -0.3532   -0.6592   -1.6331 N.ar    1  LIG1       -0.3569
      6 H          -0.7243   -1.2076   -2.3935 H       1  LIG1        0.1655
      7 H           1.5774   -0.2184   -2.4430 H       1  LIG1        0.0820
      8 C           1.8962    1.8589   -0.3624 C.1     1  LIG1       -0.0663
      9 C           2.7585    2.6501   -0.0469 C.1     1  LIG1       -0.1138
     10 H           3.5329    3.3312    0.2188 H       1  LIG1        0.1232
     11 N          -0.7301    1.6088    1.1355 N.pl3   1  LIG1       -0.3553
     12 H          -0.1207    2.4050    1.2745 H       1  LIG1        0.1424
     13 H          -1.7093    1.8495    1.2387 H       1  LIG1        0.1424
     14 C          -2.4473   -0.6913   -0.3159 C.ar    1  LIG1        0.0826
     15 C          -3.6430   -0.1086    0.1381 C.ar    1  LIG1        0.0727
     16 C          -4.6289   -1.1492    0.2468 C.ar    1  LIG1        0.0679
     17 C          -4.0281   -2.3389   -0.1616 C.ar    1  LIG1        0.0868
     18 N          -2.7031   -2.0231   -0.4934 N.ar    1  LIG1       -0.3493
     19 H          -2.0125   -2.6985   -0.7787 H       1  LIG1        0.1661
     20 C          -3.8943    1.2596    0.3839 C.1     1  LIG1       -0.0656
     21 C          -4.1484    2.4249    0.6146 C.1     1  LIG1       -0.1138
     22 H          -4.3794    3.4534    0.7670 H       1  LIG1        0.1232
     23 N          -5.9024   -0.9658    0.7595 N.pl3   1  LIG1       -0.3553
     24 H          -6.1773    0.0078    0.7926 H       1  LIG1        0.1424
     25 H          -6.6206   -1.5550    0.3544 H       1  LIG1        0.1424
     26 C          -4.4951   -3.7001   -0.1945 C.ar    1  LIG1        0.0826
     27 C          -5.7521   -4.2583   -0.4840 C.ar    1  LIG1        0.0727
     28 C          -5.6199   -5.6851   -0.3773 C.ar    1  LIG1        0.0679
     29 C          -4.3035   -5.9649   -0.0497 C.ar    1  LIG1        0.0868
     30 N          -3.6431   -4.7540    0.0536 N.ar    1  LIG1       -0.3493
     31 H          -2.7128   -4.6743    0.4417 H       1  LIG1        0.1661
     32 C          -6.9216   -3.5817   -0.8994 C.1     1  LIG1       -0.0656
     33 C          -7.9466   -3.0342   -1.2526 C.1     1  LIG1       -0.1138
     34 H          -8.8297   -2.5557   -1.6072 H       1  LIG1        0.1232
     35 N          -6.6189   -6.6879   -0.5869 N.pl3   1  LIG1       -0.3553
     36 H          -7.3009   -6.6671    0.1708 H       1  LIG1        0.1424
     37 H          -7.1434   -6.4843   -1.4360 H       1  LIG1        0.1424
     38 C          -3.6457   -7.2289    0.1487 C.ar    1  LIG1        0.0821
     39 C          -2.3174   -7.5409    0.4948 C.ar    1  LIG1        0.0720
     40 C          -2.2189   -8.9752    0.5284 C.ar    1  LIG1        0.0584
     41 C          -3.4643   -9.4763    0.2030 C.ar    1  LIG1        0.0243
     42 N          -4.3101   -8.4056   -0.0176 N.ar    1  LIG1       -0.3569
     43 H          -5.2836   -8.4139   -0.3043 H       1  LIG1        0.1655
     44 H          -3.8126  -10.4949    0.1323 H       1  LIG1        0.0826
     45 C          -1.2702   -6.6301    0.7621 C.1     1  LIG1       -0.0656
     46 C          -0.3582   -5.8565    0.9817 C.1     1  LIG1       -0.1138
     47 H           0.4425   -5.1963    1.2232 H       1  LIG1        0.1232
     48 N          -1.0724   -9.6860    0.9034 N.pl3   1  LIG1       -0.3559
     49 H          -0.9811  -10.5810    0.4395 H       1  LIG1        0.1424
     50 H          -0.2267   -9.1412    0.7826 H       1  LIG1        0.1424
@<TRIPOS>BOND
     1     7     1    1
     2     6     5    1
     3     1     5   ar
     4     1     2   ar
     5     5     4   ar
     6    34    33    1
     7    37    35    1
     8    33    32    3
     9    32    27    1
    10    19    18    1
    11     2     8    1
    12     2     3   ar
    13     4    14    1
    14     4     3   ar
    15    35    28    1
    16    35    36    1
    17    18    14   ar
    18    18    17   ar
    19    27    28   ar
    20    27    26   ar
    21    28    29   ar
    22     8     9    3
    23    14    15   ar
    24    43    42    1
    25    26    17    1
    26    26    30   ar
    27    17    16   ar
    28    29    30   ar
    29    29    38    1
    30     9    10    1
    31    42    38   ar
    32    42    41   ar
    33     3    11    1
    34    30    31    1
    35    44    41    1
    36    15    16   ar
    37    15    20    1
    38    38    39   ar
    39    41    40   ar
    40    16    23    1
    41    25    23    1
    42    20    21    3
    43    49    48    1
    44    39    40   ar
    45    39    45    1
    46    40    48    1
    47    21    22    1
    48    23    24    1
    49    45    46    3
    50    50    48    1
    51    46    47    1
    52    11    13    1
    53    11    12    1
