@<TRIPOS>MOLECULE
mol_data/opt/b3lyp/geoms/mol2/13eh12ha13id-12hf-6il6ie-12ha-13he-.out
 96 103 0 0 0
SMALL
GASTEIGER

@<TRIPOS>ATOM
      1 C           0.3228    0.3145   -0.6066 C.ar    1  LIG1        0.0195
      2 C          -0.1369    1.3408   -1.4210 C.ar    1  LIG1        0.0633
      3 C          -1.5176    1.0633   -1.7070 C.ar    1  LIG1        0.0689
      4 C          -1.8598   -0.1093   -1.0436 C.ar    1  LIG1        0.1061
      5 N          -0.7128   -0.5502   -0.4003 N.ar    1  LIG1       -0.3556
      6 H          -0.6832   -1.3749    0.1764 H       1  LIG1        0.1655
      7 H           1.3006    0.1486   -0.1824 H       1  LIG1        0.0820
      8 C           0.5903    2.4546   -1.9100 C.1     1  LIG1       -0.0663
      9 C           1.1640    3.4251   -2.3546 C.1     1  LIG1       -0.1138
     10 H           1.6921    4.2697   -2.7317 H       1  LIG1        0.1232
     11 N          -2.3836    1.8343   -2.5316 N.pl3   1  LIG1       -0.3553
     12 H          -1.9815    2.7574   -2.6772 H       1  LIG1        0.1424
     13 H          -2.4886    1.4073   -3.4506 H       1  LIG1        0.1424
     14 C          -3.1067   -0.8145   -0.9393 C.ar    1  LIG1        0.1741
     15 C          -4.4309   -0.4363   -1.0732 C.ar    1  LIG1        0.0731
     16 C          -5.2099   -1.6113   -0.8275 C.ar    1  LIG1        0.0071
     17 C          -4.3332   -2.6267   -0.5345 C.ar    1  LIG1        0.1540
     18 O          -3.0457   -2.1609   -0.5954 O.2     1  LIG1       -0.4499
     19 N          -4.9180    0.8420   -1.2951 N.pl3   1  LIG1       -0.3550
     20 H          -4.2363    1.4691   -1.7286 H       1  LIG1        0.1424
     21 H          -5.8217    0.8656   -1.7482 H       1  LIG1        0.1424
     22 H          -6.2874   -1.6781   -0.8412 H       1  LIG1        0.0675
     23 C          -4.4857   -4.0137   -0.1975 C.ar    1  LIG1        0.0869
     24 C          -5.6166   -4.8073   -0.0502 C.ar    1  LIG1       -0.0041
     25 C          -5.1480   -6.1199    0.2803 C.ar    1  LIG1        0.0836
     26 C          -3.7397   -6.0925    0.3394 C.ar    1  LIG1        0.1024
     27 N          -3.3774   -4.8083    0.0423 N.ar    1  LIG1       -0.3481
     28 H          -2.4230   -4.4888   -0.0096 H       1  LIG1        0.1661
     29 C          -7.0468   -4.3961   -0.2134 C.3     1  LIG1       -0.0364
     30 H          -7.7153   -5.2451   -0.0511 H       1  LIG1        0.0279
     31 H          -7.2420   -4.0057   -1.2193 H       1  LIG1        0.0279
     32 H          -7.3249   -3.6116    0.5005 H       1  LIG1        0.0279
     33 N          -6.6244   -8.2154    0.5740 N.1     1  LIG1       -0.1908
     34 C          -5.9626   -7.2617    0.4461 C.1     1  LIG1        0.1017
     35 C          -2.7413   -7.0775    0.6251 C.ar    1  LIG1        0.1773
     36 C          -2.7151   -8.3413    1.1979 C.ar    1  LIG1        0.1153
     37 C          -1.3363   -8.7176    1.2086 C.ar    1  LIG1        0.1846
     38 C          -0.5914   -7.6966    0.6655 C.ar    1  LIG1        0.1807
     39 O          -1.4464   -6.6828    0.3173 O.2     1  LIG1       -0.4476
     40 N          -3.7017   -9.1035    1.7807 N.pl3   1  LIG1       -0.3521
     41 H          -4.6521   -8.9872    1.4534 H       1  LIG1        0.1425
     42 H          -3.4370  -10.0669    1.9306 H       1  LIG1        0.1425
     43 O          -0.9356   -9.9274    1.7088 O.3     1  LIG1       -0.5020
     44 H          -0.0618   -9.8280    2.1115 H       1  LIG1        0.2924
     45 C           1.5375   -6.3373    0.4156 C.ar    1  LIG1        0.0499
     46 C           0.8362   -7.5666    0.4245 C.ar    1  LIG1        0.0455
     47 C           1.5859   -8.7411    0.2082 C.ar    1  LIG1       -0.0053
     48 C           2.9584   -8.6743   -0.0032 C.ar    1  LIG1        0.1467
     49 C           3.5843   -7.4012   -0.0034 C.ar    1  LIG1        0.1145
     50 N           2.8578   -6.2952    0.2065 N.ar    1  LIG1       -0.2474
     51 H           1.0726   -9.6939    0.1722 H       1  LIG1        0.0662
     52 C           0.8738   -4.9990    0.6394 C.3     1  LIG1       -0.0216
     53 H           0.1887   -5.0213    1.4921 H       1  LIG1        0.0293
     54 H           0.2935   -4.6926   -0.2390 H       1  LIG1        0.0293
     55 H           1.6506   -4.2532    0.8146 H       1  LIG1        0.0293
     56 O           3.7498   -9.7643   -0.2102 O.3     1  LIG1       -0.4929
     57 C           3.1542  -11.0541   -0.1855 C.3     1  LIG1        0.0789
     58 H           3.9677  -11.7607   -0.3522 H       1  LIG1        0.0660
     59 H           2.6871  -11.2642    0.7852 H       1  LIG1        0.0660
     60 H           2.4048  -11.1700   -0.9782 H       1  LIG1        0.0660
     61 C           5.8391   -6.3552    0.5597 C.ar    1  LIG1        0.0484
     62 C           5.0397   -7.2217   -0.2355 C.ar    1  LIG1        0.0261
     63 C           5.6902   -7.8990   -1.2646 C.ar    1  LIG1       -0.0331
     64 C           7.0500   -7.6927   -1.5395 C.ar    1  LIG1        0.0543
     65 C           7.7364   -6.7122   -0.7658 C.ar    1  LIG1        0.1234
     66 N           7.1193   -6.1207    0.2828 N.ar    1  LIG1       -0.2468
     67 H           5.1498   -8.6235   -1.8610 H       1  LIG1        0.0638
     68 C           5.3088   -5.6505    1.7842 C.3     1  LIG1       -0.0217
     69 H           4.7000   -6.3163    2.4035 H       1  LIG1        0.0293
     70 H           4.6676   -4.8113    1.5011 H       1  LIG1        0.0293
     71 H           6.1528   -5.2766    2.3657 H       1  LIG1        0.0293
     72 C           7.6781   -8.5304   -2.5065 C.1     1  LIG1       -0.0674
     73 C           8.1747   -9.2752   -3.3241 C.1     1  LIG1       -0.1138
     74 H           8.6460   -9.9388   -4.0113 H       1  LIG1        0.1232
     75 C           9.0957   -6.2752   -1.0033 C.ar    1  LIG1        0.1756
     76 C           9.9327   -6.1116   -2.1088 C.ar    1  LIG1        0.0732
     77 C          11.1004   -5.4290   -1.6480 C.ar    1  LIG1        0.0071
     78 C          10.9212   -5.2051   -0.3042 C.ar    1  LIG1        0.1555
     79 O           9.7264   -5.7011    0.0983 O.2     1  LIG1       -0.4498
     80 N           9.7609   -6.4973   -3.4222 N.pl3   1  LIG1       -0.3550
     81 H           8.8787   -6.9156   -3.6735 H       1  LIG1        0.1424
     82 H          10.1345   -5.8604   -4.1101 H       1  LIG1        0.1424
     83 H          11.9793   -5.1982   -2.2315 H       1  LIG1        0.0675
     84 C          11.7225   -4.5963    0.7131 C.ar    1  LIG1        0.1043
     85 C          12.9289   -3.9035    0.6477 C.ar    1  LIG1        0.0688
     86 C          13.2817   -3.5373    1.9897 C.ar    1  LIG1        0.0633
     87 C          12.2718   -4.0186    2.8218 C.ar    1  LIG1        0.0195
     88 N          11.3456   -4.6383    2.0504 N.ar    1  LIG1       -0.3556
     89 H          10.4917   -5.0732    2.3634 H       1  LIG1        0.1655
     90 H          12.1691   -3.9417    3.8930 H       1  LIG1        0.0820
     91 N          13.6840   -3.6379   -0.4944 N.pl3   1  LIG1       -0.3553
     92 H          13.1287   -3.3323   -1.2856 H       1  LIG1        0.1424
     93 H          14.4309   -2.9779   -0.3082 H       1  LIG1        0.1424
     94 C          14.4382   -2.8073    2.3578 C.1     1  LIG1       -0.0663
     95 C          15.4379   -2.1727    2.6170 C.1     1  LIG1       -0.1138
     96 H          16.3154   -1.6253    2.8709 H       1  LIG1        0.1232
@<TRIPOS>BOND
     1    82    80    1
     2    74    73    1
     3    81    80    1
     4    13    11    1
     5    80    76    1
     6    73    72    3
     7    10     9    1
     8    12    11    1
     9    11     3    1
    10    72    64    1
    11     9     8    3
    12    83    77    1
    13    76    77   ar
    14    76    75   ar
    15     8     2    1
    16    67    63    1
    17    21    19    1
    18    20    19    1
    19     3     2   ar
    20     3     4   ar
    21    77    78   ar
    22    64    63   ar
    23    64    65   ar
    24     2     1   ar
    25    19    15    1
    26    92    91    1
    27    63    62   ar
    28    31    29    1
    29    15    14   ar
    30    15    16   ar
    31     4    14    1
    32     4     5   ar
    33    75    65    1
    34    75    79   ar
    35    60    57    1
    36    14    18   ar
    37    22    16    1
    38    16    17   ar
    39    65    66   ar
    40     1     5   ar
    41     1     7    1
    42    18    17   ar
    43    17    23    1
    44    91    93    1
    45    91    85    1
    46     5     6    1
    47    58    57    1
    48    78    79   ar
    49    78    84    1
    50    54    52    1
    51    62    49    1
    52    62    61   ar
    53    29    30    1
    54    29    24    1
    55    29    32    1
    56    56    57    1
    57    56    48    1
    58    23    24   ar
    59    23    27   ar
    60    57    59    1
    61    24    25   ar
    62    28    27    1
    63    49    48   ar
    64    49    50   ar
    65    48    47   ar
    66    27    26   ar
    67    51    47    1
    68    50    45   ar
    69    47    46   ar
    70    25    26   ar
    71    25    34    1
    72    66    61   ar
    73    39    35   ar
    74    39    38   ar
    75    26    35    1
    76    45    46   ar
    77    45    52    1
    78    46    38    1
    79    34    33    3
    80    61    68    1
    81    35    36   ar
    82    52    55    1
    83    52    53    1
    84    85    84   ar
    85    85    86   ar
    86    38    37   ar
    87    84    88   ar
    88    36    37   ar
    89    36    40    1
    90    37    43    1
    91    41    40    1
    92    70    68    1
    93    43    44    1
    94    40    42    1
    95    68    71    1
    96    68    69    1
    97    86    94    1
    98    86    87   ar
    99    88    89    1
   100    88    87   ar
   101    94    95    3
   102    95    96    1
   103    87    90    1
