@<TRIPOS>MOLECULE
mol_data/opt/b3lyp/geoms/mol2/13ei13ei13ei.out
 41 43 0 0 0
SMALL
GASTEIGER

@<TRIPOS>ATOM
      1 C           0.8626   -0.0645   -1.5239 C.ar    1  LIG1        0.0179
      2 C           0.8442    0.9653   -0.5946 C.ar    1  LIG1        0.0455
      3 C          -0.4325    0.9297    0.0704 C.ar    1  LIG1       -0.0084
      4 C          -1.1446   -0.1209   -0.4860 C.ar    1  LIG1        0.0682
      5 N          -0.3277   -0.7273   -1.4374 N.ar    1  LIG1       -0.3581
      6 H          -0.6556   -1.4061   -2.1066 H       1  LIG1        0.1654
      7 H           1.6326   -0.3589   -2.2203 H       1  LIG1        0.0819
      8 C           1.9049    1.8694   -0.3264 C.1     1  LIG1       -0.0679
      9 C           2.7991    2.6485   -0.0812 C.1     1  LIG1       -0.1139
     10 H           3.5876    3.3337    0.1255 H       1  LIG1        0.1232
     11 C          -0.8640    1.8367    1.1804 C.3     1  LIG1       -0.0365
     12 H          -1.6293    1.3640    1.8013 H       1  LIG1        0.0279
     13 H          -1.2944    2.7680    0.7957 H       1  LIG1        0.0279
     14 H          -0.0115    2.1028    1.8125 H       1  LIG1        0.0279
     15 C          -2.4645   -0.6532   -0.1980 C.ar    1  LIG1        0.0795
     16 C          -3.7135   -0.0347   -0.0681 C.ar    1  LIG1        0.0549
     17 C          -4.6921   -1.0548    0.1881 C.ar    1  LIG1       -0.0077
     18 C          -4.0211   -2.2682    0.1921 C.ar    1  LIG1        0.0687
     19 N          -2.6773   -2.0023   -0.0383 N.ar    1  LIG1       -0.3506
     20 H          -1.9537   -2.7026   -0.0827 H       1  LIG1        0.1660
     21 C          -3.9855    1.3504   -0.2037 C.1     1  LIG1       -0.0672
     22 C          -4.2524    2.5266   -0.3174 C.1     1  LIG1       -0.1138
     23 H          -4.4802    3.5606   -0.4313 H       1  LIG1        0.1232
     24 C          -6.1520   -0.8217    0.4219 C.3     1  LIG1       -0.0365
     25 H          -6.5925   -1.6344    1.0051 H       1  LIG1        0.0279
     26 H          -6.7081   -0.7651   -0.5207 H       1  LIG1        0.0279
     27 H          -6.3087    0.1208    0.9546 H       1  LIG1        0.0279
     28 C          -4.4799   -3.6253    0.4283 C.ar    1  LIG1        0.0790
     29 C          -5.5540   -4.3505   -0.0959 C.ar    1  LIG1        0.0542
     30 C          -5.5207   -5.6690    0.4854 C.ar    1  LIG1       -0.0171
     31 C          -4.4342   -5.7024    1.3255 C.ar    1  LIG1        0.0063
     32 N          -3.7999   -4.4788    1.2730 N.ar    1  LIG1       -0.3583
     33 H          -3.0843   -4.1740    1.9141 H       1  LIG1        0.1654
     34 H          -4.0592   -6.5000    1.9498 H       1  LIG1        0.0810
     35 C          -6.4747   -3.9091   -1.0796 C.1     1  LIG1       -0.0672
     36 C          -7.2740   -3.5684   -1.9241 C.1     1  LIG1       -0.1138
     37 H          -7.9690   -3.2620   -2.6705 H       1  LIG1        0.1232
     38 C          -6.4812   -6.7807    0.1946 C.3     1  LIG1       -0.0371
     39 H          -6.2292   -7.6792    0.7649 H       1  LIG1        0.0278
     40 H          -6.4790   -7.0438   -0.8692 H       1  LIG1        0.0278
     41 H          -7.5086   -6.4964    0.4480 H       1  LIG1        0.0278
@<TRIPOS>BOND
     1    37    36    1
     2     7     1    1
     3     6     5    1
     4    36    35    3
     5     1     5   ar
     6     1     2   ar
     7     5     4   ar
     8    35    29    1
     9    40    38    1
    10     2     8    1
    11     2     3   ar
    12    26    24    1
    13     4    15    1
    14     4     3   ar
    15    23    22    1
    16     8     9    3
    17    22    21    3
    18    21    16    1
    19    15    16   ar
    20    15    19   ar
    21    29    28   ar
    22    29    30   ar
    23    20    19    1
    24     9    10    1
    25    16    17   ar
    26    19    18   ar
    27     3    11    1
    28    17    18   ar
    29    17    24    1
    30    18    28    1
    31    38    41    1
    32    38    30    1
    33    38    39    1
    34    24    27    1
    35    24    25    1
    36    28    32   ar
    37    30    31   ar
    38    13    11    1
    39    11    12    1
    40    11    14    1
    41    32    31   ar
    42    32    33    1
    43    31    34    1
