@<TRIPOS>MOLECULE
mol_data/opt/b3lyp/geoms/mol2/13ei13ei-13ei13ei-.out
 54 57 0 0 0
SMALL
GASTEIGER

@<TRIPOS>ATOM
      1 C           1.3431   -0.3195    0.0113 C.ar    1  LIG1        0.0179
      2 C           0.9564    0.9638   -0.3587 C.ar    1  LIG1        0.0455
      3 C          -0.4783    0.9960   -0.3650 C.ar    1  LIG1       -0.0084
      4 C          -0.9102   -0.2766    0.0082 C.ar    1  LIG1        0.0682
      5 N           0.2180   -1.0492    0.2290 N.ar    1  LIG1       -0.3581
      6 H           0.1798   -2.0255    0.4891 H       1  LIG1        0.1654
      7 H           2.3295   -0.7409    0.1270 H       1  LIG1        0.0819
      8 C           1.8228    2.0407   -0.6796 C.1     1  LIG1       -0.0679
      9 C           2.5461    2.9719   -0.9576 C.1     1  LIG1       -0.1139
     10 H           3.1917    3.7831   -1.2008 H       1  LIG1        0.1232
     11 C          -1.3087    2.1891   -0.7306 C.3     1  LIG1       -0.0365
     12 H          -1.8654    2.5919    0.1259 H       1  LIG1        0.0279
     13 H          -2.0361    1.9609   -1.5191 H       1  LIG1        0.0279
     14 H          -0.6646    2.9909   -1.0999 H       1  LIG1        0.0279
     15 C          -2.2303   -0.8379    0.1704 C.ar    1  LIG1        0.0795
     16 C          -2.6358   -2.1678    0.3977 C.ar    1  LIG1        0.0549
     17 C          -4.0643   -2.1886    0.4844 C.ar    1  LIG1       -0.0077
     18 C          -4.4972   -0.8777    0.3043 C.ar    1  LIG1        0.0687
     19 N          -3.3731   -0.0887    0.1168 N.ar    1  LIG1       -0.3506
     20 H          -3.4092    0.9169    0.0327 H       1  LIG1        0.1660
     21 C          -1.7916   -3.2973    0.5317 C.1     1  LIG1       -0.0672
     22 C          -1.0771   -4.2711    0.6583 C.1     1  LIG1       -0.1138
     23 H          -0.4686   -5.1401    0.7554 H       1  LIG1        0.1232
     24 C          -4.8921   -3.4093    0.7490 C.3     1  LIG1       -0.0365
     25 H          -4.2639   -4.2115    1.1443 H       1  LIG1        0.0279
     26 H          -5.3708   -3.7977   -0.1598 H       1  LIG1        0.0279
     27 H          -5.6844   -3.2135    1.4794 H       1  LIG1        0.0279
     28 C          -5.8197   -0.3019    0.2977 C.ar    1  LIG1        0.0795
     29 C          -6.2392    1.0331    0.4498 C.ar    1  LIG1        0.0549
     30 C          -7.6678    1.0613    0.3592 C.ar    1  LIG1       -0.0077
     31 C          -8.0858   -0.2515    0.1566 C.ar    1  LIG1        0.0687
     32 N          -6.9547   -1.0488    0.1284 N.ar    1  LIG1       -0.3506
     33 H          -6.9806   -2.0346   -0.0934 H       1  LIG1        0.1660
     34 C          -5.4109    2.1598    0.6740 C.1     1  LIG1       -0.0672
     35 C          -4.7230    3.1427    0.8598 C.1     1  LIG1       -0.1138
     36 H          -4.1315    4.0075    1.0521 H       1  LIG1        0.1232
     37 C          -8.5079    2.2987    0.4665 C.3     1  LIG1       -0.0365
     38 H          -9.0817    2.3366    1.4034 H       1  LIG1        0.0279
     39 H          -9.2142    2.3903   -0.3678 H       1  LIG1        0.0279
     40 H          -7.8717    3.1869    0.4538 H       1  LIG1        0.0279
     41 C          -9.4007   -0.8229   -0.0114 C.ar    1  LIG1        0.0790
     42 C          -9.8024   -2.1126   -0.4002 C.ar    1  LIG1        0.0542
     43 C         -11.2416   -2.1474   -0.3955 C.ar    1  LIG1       -0.0171
     44 C         -11.6617   -0.8976   -0.0118 C.ar    1  LIG1        0.0063
     45 N         -10.5535   -0.1091    0.2126 N.ar    1  LIG1       -0.3583
     46 H         -10.5765    0.8392    0.5475 H       1  LIG1        0.1654
     47 H         -12.6595   -0.5053    0.1163 H       1  LIG1        0.0810
     48 C          -8.9590   -3.1914   -0.7600 C.1     1  LIG1       -0.0672
     49 C          -8.2563   -4.1311   -1.0729 C.1     1  LIG1       -0.1138
     50 H          -7.6606   -4.9619   -1.3720 H       1  LIG1        0.1232
     51 C         -12.0942   -3.3256   -0.7520 C.3     1  LIG1       -0.0371
     52 H         -11.8857   -4.1824   -0.1013 H       1  LIG1        0.0278
     53 H         -11.9118   -3.6561   -1.7809 H       1  LIG1        0.0278
     54 H         -13.1567   -3.0840   -0.6600 H       1  LIG1        0.0278
@<TRIPOS>BOND
     1    53    51    1
     2    13    11    1
     3    50    49    1
     4    10     9    1
     5    14    11    1
     6    49    48    3
     7     9     8    3
     8    48    42    1
     9    51    54    1
    10    51    43    1
    11    51    52    1
    12    11     3    1
    13    11    12    1
    14     8     2    1
    15    42    43   ar
    16    42    41   ar
    17    43    44   ar
    18    39    37    1
    19     3     2   ar
    20     3     4   ar
    21     2     1   ar
    22    26    24    1
    23    33    32    1
    24    44    47    1
    25    44    45   ar
    26    41    31    1
    27    41    45   ar
    28     4    15    1
    29     4     5   ar
    30     1     7    1
    31     1     5   ar
    32    20    19    1
    33    19    15   ar
    34    19    18   ar
    35    32    31   ar
    36    32    28   ar
    37    31    30   ar
    38    15    16   ar
    39    45    46    1
    40     5     6    1
    41    28    18    1
    42    28    29   ar
    43    18    17   ar
    44    30    29   ar
    45    30    37    1
    46    16    17   ar
    47    16    21    1
    48    29    34    1
    49    40    37    1
    50    37    38    1
    51    17    24    1
    52    21    22    3
    53    22    23    1
    54    34    35    3
    55    24    25    1
    56    24    27    1
    57    35    36    1
