@<TRIPOS>MOLECULE
mol_data/opt/b3lyp/geoms/mol2/13ei13ei.out
 28 29 0 0 0
SMALL
GASTEIGER

@<TRIPOS>ATOM
      1 C           1.1221   -0.2656   -0.7710 C.ar    1  LIG1        0.0179
      2 C           0.8621    0.9753   -0.2078 C.ar    1  LIG1        0.0455
      3 C          -0.5182    0.9876    0.2024 C.ar    1  LIG1       -0.0084
      4 C          -1.0466   -0.2487   -0.1340 C.ar    1  LIG1        0.0682
      5 N          -0.0246   -1.0030   -0.7041 N.ar    1  LIG1       -0.3581
      6 H          -0.1740   -1.8802   -1.1772 H       1  LIG1        0.1654
      7 H           2.0315   -0.6581   -1.1994 H       1  LIG1        0.0819
      8 C           1.7973    2.0294   -0.0380 C.1     1  LIG1       -0.0679
      9 C           2.5810    2.9396    0.1178 C.1     1  LIG1       -0.1139
     10 H           3.2741    3.7374    0.2481 H       1  LIG1        0.1232
     11 C          -1.2117    2.1170    0.8983 C.3     1  LIG1       -0.0365
     12 H          -2.0527    1.7553    1.4956 H       1  LIG1        0.0279
     13 H          -1.6155    2.8438    0.1845 H       1  LIG1        0.0279
     14 H          -0.5160    2.6488    1.5541 H       1  LIG1        0.0279
     15 C          -2.3665   -0.8219    0.0589 C.ar    1  LIG1        0.0790
     16 C          -3.6480   -0.3229   -0.1932 C.ar    1  LIG1        0.0542
     17 C          -4.5979   -1.3397    0.1832 C.ar    1  LIG1       -0.0171
     18 C          -3.8692   -2.4125    0.6364 C.ar    1  LIG1        0.0063
     19 N          -2.5282   -2.1037    0.5419 N.ar    1  LIG1       -0.3583
     20 H          -1.7813   -2.6399    0.9546 H       1  LIG1        0.1654
     21 H          -4.1973   -3.3712    1.0103 H       1  LIG1        0.0810
     22 C          -3.9710    0.9252   -0.7830 C.1     1  LIG1       -0.0672
     23 C          -4.2843    1.9796   -1.2911 C.1     1  LIG1       -0.1138
     24 H          -4.5488    2.9054   -1.7460 H       1  LIG1        0.1232
     25 C          -6.0875   -1.2348    0.0680 C.3     1  LIG1       -0.0371
     26 H          -6.5756   -2.1487    0.4183 H       1  LIG1        0.0278
     27 H          -6.3979   -1.0623   -0.9688 H       1  LIG1        0.0278
     28 H          -6.4753   -0.3968    0.6579 H       1  LIG1        0.0278
@<TRIPOS>BOND
     1    24    23    1
     2    23    22    3
     3     7     1    1
     4     6     5    1
     5    27    25    1
     6    22    16    1
     7     1     5   ar
     8     1     2   ar
     9     5     4   ar
    10     2     8    1
    11     2     3   ar
    12    16    15   ar
    13    16    17   ar
    14     4    15    1
    15     4     3   ar
    16     8     9    3
    17    15    19   ar
    18    25    17    1
    19    25    26    1
    20    25    28    1
    21     9    10    1
    22    17    18   ar
    23    13    11    1
    24     3    11    1
    25    19    18   ar
    26    19    20    1
    27    18    21    1
    28    11    12    1
    29    11    14    1
