@<TRIPOS>MOLECULE
mol_data/opt/b3lyp/geoms/mol2/13ei13ei-13ei-13ei.out
 54 57 0 0 0
SMALL
GASTEIGER

@<TRIPOS>ATOM
      1 C           1.2977   -0.3266   -0.2124 C.ar    1  LIG1        0.0179
      2 C           0.8845    0.9230   -0.6605 C.ar    1  LIG1        0.0455
      3 C          -0.5504    0.9357   -0.6362 C.ar    1  LIG1       -0.0084
      4 C          -0.9550   -0.3158   -0.1708 C.ar    1  LIG1        0.0682
      5 N           0.1881   -1.0566    0.0749 N.ar    1  LIG1       -0.3581
      6 H           0.1687   -2.0015    0.4351 H       1  LIG1        0.1654
      7 H           2.2926   -0.7241   -0.0853 H       1  LIG1        0.0819
      8 C           1.7274    1.9909   -1.0638 C.1     1  LIG1       -0.0679
      9 C           2.4291    2.9153   -1.4108 C.1     1  LIG1       -0.1139
     10 H           3.0569    3.7201   -1.7148 H       1  LIG1        0.1232
     11 C          -1.4044    2.0985   -1.0456 C.3     1  LIG1       -0.0365
     12 H          -2.0993    2.4090   -0.2544 H       1  LIG1        0.0279
     13 H          -1.9968    1.8869   -1.9468 H       1  LIG1        0.0279
     14 H          -0.7735    2.9596   -1.2791 H       1  LIG1        0.0279
     15 C          -2.2641   -0.8747    0.0656 C.ar    1  LIG1        0.0795
     16 C          -2.6552   -2.1238    0.5794 C.ar    1  LIG1        0.0549
     17 C          -4.0899   -2.1728    0.5989 C.ar    1  LIG1       -0.0077
     18 C          -4.5380   -0.9641    0.0893 C.ar    1  LIG1        0.0687
     19 N          -3.4202   -0.1896   -0.2051 N.ar    1  LIG1       -0.3506
     20 H          -3.4578    0.6725   -0.7251 H       1  LIG1        0.1660
     21 C          -1.7937   -3.1518    1.0357 C.1     1  LIG1       -0.0672
     22 C          -1.0621   -4.0385    1.4264 C.1     1  LIG1       -0.1138
     23 H          -0.4430   -4.8304    1.7793 H       1  LIG1        0.1232
     24 C          -4.9111   -3.3027    1.1362 C.3     1  LIG1       -0.0365
     25 H          -4.3954   -3.7881    1.9703 H       1  LIG1        0.0279
     26 H          -5.1002   -4.0663    0.3735 H       1  LIG1        0.0279
     27 H          -5.8854   -2.9510    1.4839 H       1  LIG1        0.0279
     28 C          -5.8628   -0.4085   -0.0876 C.ar    1  LIG1        0.0795
     29 C          -7.0623   -0.9528   -0.5703 C.ar    1  LIG1        0.0549
     30 C          -8.0512    0.0859   -0.5605 C.ar    1  LIG1       -0.0077
     31 C          -7.4272    1.2378   -0.0856 C.ar    1  LIG1        0.0687
     32 N          -6.1101    0.9142    0.1811 N.ar    1  LIG1       -0.3506
     33 H          -5.4696    1.5455    0.6452 H       1  LIG1        0.1660
     34 C          -7.2606   -2.2640   -1.0708 C.1     1  LIG1       -0.0672
     35 C          -7.4679   -3.3716   -1.5169 C.1     1  LIG1       -0.1138
     36 H          -7.6315   -4.3460   -1.9145 H       1  LIG1        0.1232
     37 C          -9.4709   -0.0804   -1.0145 C.3     1  LIG1       -0.0365
     38 H          -9.6315   -1.1007   -1.3706 H       1  LIG1        0.0279
     39 H          -9.7244    0.5934   -1.8438 H       1  LIG1        0.0279
     40 H         -10.1905    0.0936   -0.2029 H       1  LIG1        0.0279
     41 C          -7.9129    2.5776    0.1423 C.ar    1  LIG1        0.0790
     42 C          -7.2505    3.7241    0.6162 C.ar    1  LIG1        0.0542
     43 C          -8.2046    4.8014    0.6531 C.ar    1  LIG1       -0.0171
     44 C          -9.3965    4.2832    0.2091 C.ar    1  LIG1        0.0063
     45 N          -9.2130    2.9509   -0.0945 N.ar    1  LIG1       -0.3583
     46 H          -9.9266    2.3312   -0.4393 H       1  LIG1        0.1654
     47 H         -10.3596    4.7552    0.0849 H       1  LIG1        0.0810
     48 C          -5.8916    3.8172    1.0039 C.1     1  LIG1       -0.0672
     49 C          -4.7290    3.9088    1.3443 C.1     1  LIG1       -0.1138
     50 H          -3.7186    4.0174    1.6647 H       1  LIG1        0.1232
     51 C          -7.9299    6.2054    1.0955 C.3     1  LIG1       -0.0371
     52 H          -8.8294    6.8230    1.0243 H       1  LIG1        0.0278
     53 H          -7.1508    6.6736    0.4833 H       1  LIG1        0.0278
     54 H          -7.5806    6.2373    2.1337 H       1  LIG1        0.0278
@<TRIPOS>BOND
     1    13    11    1
     2    36    35    1
     3    39    37    1
     4    10     9    1
     5    35    34    3
     6     9     8    3
     7    38    37    1
     8    14    11    1
     9    34    29    1
    10     8     2    1
    11    11     3    1
    12    11    12    1
    13    37    30    1
    14    37    40    1
    15    20    19    1
    16     2     3   ar
    17     2     1   ar
    18     3     4   ar
    19    29    30   ar
    20    29    28   ar
    21    30    31   ar
    22    46    45    1
    23     1     7    1
    24     1     5   ar
    25    19    15   ar
    26    19    18   ar
    27     4    15    1
    28     4     5   ar
    29    45    41   ar
    30    45    44   ar
    31    28    18    1
    32    28    32   ar
    33    31    41    1
    34    31    32   ar
    35    15    16   ar
    36     5     6    1
    37    47    44    1
    38    18    17   ar
    39    41    42   ar
    40    32    33    1
    41    44    43   ar
    42    26    24    1
    43    53    51    1
    44    16    17   ar
    45    16    21    1
    46    17    24    1
    47    42    43   ar
    48    42    48    1
    49    43    51    1
    50    48    49    3
    51    52    51    1
    52    21    22    3
    53    51    54    1
    54    24    27    1
    55    24    25    1
    56    49    50    1
    57    22    23    1
