@<TRIPOS>MOLECULE
mol_data/opt/b3lyp/geoms/mol2/13ei13ei-12lh4ii.out
 50 53 0 0 0
SMALL
GASTEIGER

@<TRIPOS>ATOM
      1 C           0.9924   -0.1435    0.8105 C.ar    1  LIG1        0.0213
      2 C           0.6700    1.0848    0.2495 C.ar    1  LIG1        0.0840
      3 C          -0.7172    1.0179   -0.1140 C.ar    1  LIG1        0.1590
      4 C          -1.1922   -0.2449    0.2286 C.ar    1  LIG1        0.1098
      5 N          -0.1128   -0.9455    0.7737 N.ar    1  LIG1       -0.3553
      6 H          -0.2127   -1.7798    1.3302 H       1  LIG1        0.1655
      7 H           1.9273   -0.4828    1.2289 H       1  LIG1        0.0820
      8 C           1.5438    2.1845    0.0587 C.1     1  LIG1       -0.0645
      9 C           2.2915    3.1230   -0.0995 C.1     1  LIG1       -0.1137
     10 H           2.9424    3.9528   -0.2456 H       1  LIG1        0.1232
     11 O          -1.3724    2.0267   -0.7234 O.3     1  LIG1       -0.5035
     12 H          -2.3330    1.8489   -0.6747 H       1  LIG1        0.2923
     13 C          -2.4894   -0.8393    0.0304 C.ar    1  LIG1        0.1105
     14 C          -3.7341   -0.2482   -0.1376 C.ar    1  LIG1        0.1628
     15 C          -4.7208   -1.2690   -0.3109 C.ar    1  LIG1        0.0952
     16 C          -4.0342   -2.4895   -0.2423 C.ar    1  LIG1        0.1018
     17 N          -2.7032   -2.2048   -0.0334 N.ar    1  LIG1       -0.3466
     18 H          -1.9815   -2.9053   -0.1009 H       1  LIG1        0.1662
     19 O          -3.9380    1.1113   -0.1720 O.3     1  LIG1       -0.4917
     20 C          -4.6578    1.6510    0.9518 C.3     1  LIG1        0.0789
     21 H          -4.7101    2.7289    0.7914 H       1  LIG1        0.0660
     22 H          -5.6675    1.2333    0.9914 H       1  LIG1        0.0660
     23 H          -4.1292    1.4387    1.8874 H       1  LIG1        0.0660
     24 C          -6.1085   -1.0831   -0.5124 C.1     1  LIG1       -0.0637
     25 C          -7.2969   -0.9121   -0.6778 C.1     1  LIG1       -0.1137
     26 H          -8.3379   -0.7577   -0.8431 H       1  LIG1        0.1232
     27 C          -4.4916   -3.8428   -0.3654 C.ar    1  LIG1        0.1543
     28 C          -5.7133   -4.4346   -0.5306 C.ar    1  LIG1        0.0017
     29 C          -5.4857   -5.8518   -0.5729 C.ar    1  LIG1        0.0711
     30 C          -4.1205   -6.0415   -0.4228 C.ar    1  LIG1        0.1545
     31 O          -3.5172   -4.8116   -0.3029 O.2     1  LIG1       -0.4519
     32 H          -6.6631   -3.9320   -0.6213 H       1  LIG1        0.0668
     33 C          -6.4931   -6.8192   -0.8220 C.1     1  LIG1       -0.0658
     34 C          -7.3947   -7.5893   -1.0643 C.1     1  LIG1       -0.1138
     35 H          -8.1791   -8.2751   -1.2845 H       1  LIG1        0.1232
     36 C          -3.5380   -8.4214    0.1603 C.ar    1  LIG1        0.1308
     37 C          -2.6392   -9.4917    0.0957 C.ar    1  LIG1       -0.0192
     38 C          -3.2111   -7.1825   -0.4458 C.ar    1  LIG1        0.0601
     39 C          -1.4060   -9.3368   -0.5392 C.ar    1  LIG1       -0.0583
     40 H          -2.8892  -10.4408    0.5536 H       1  LIG1        0.0654
     41 C          -1.9553   -7.0542   -1.0614 C.ar    1  LIG1       -0.0475
     42 C          -1.0554   -8.1155   -1.1118 C.ar    1  LIG1       -0.0609
     43 H          -1.7025   -6.1055   -1.5229 H       1  LIG1        0.0626
     44 H          -0.7201  -10.1778   -0.5791 H       1  LIG1        0.0619
     45 O          -4.7287   -8.4714    0.8113 O.3     1  LIG1       -0.4944
     46 C          -5.1645   -9.7053    1.3589 C.3     1  LIG1        0.0788
     47 H          -6.1562   -9.5125    1.7687 H       1  LIG1        0.0660
     48 H          -5.2351  -10.4845    0.5901 H       1  LIG1        0.0660
     49 H          -4.4996  -10.0490    2.1615 H       1  LIG1        0.0660
     50 H          -0.0968   -7.9926   -1.6055 H       1  LIG1        0.0618
@<TRIPOS>BOND
     1    50    42    1
     2    43    41    1
     3    35    34    1
     4    42    41   ar
     5    42    39   ar
     6    34    33    3
     7    41    38   ar
     8    26    25    1
     9    33    29    1
    10    11    12    1
    11    11     3    1
    12    25    24    3
    13    32    28    1
    14    44    39    1
    15    29    28   ar
    16    29    30   ar
    17    39    37   ar
    18    28    27   ar
    19    24    15    1
    20    38    30    1
    21    38    36   ar
    22    30    31   ar
    23    27    31   ar
    24    27    16    1
    25    15    16   ar
    26    15    14   ar
    27    10     9    1
    28    16    17   ar
    29    19    14    1
    30    19    20    1
    31    14    13   ar
    32     3     4   ar
    33     3     2   ar
    34    18    17    1
    35     9     8    3
    36    17    13   ar
    37    13     4    1
    38     8     2    1
    39    37    36   ar
    40    37    40    1
    41    36    45    1
    42     4     5   ar
    43     2     1   ar
    44    48    46    1
    45     5     1   ar
    46     5     6    1
    47    21    20    1
    48     1     7    1
    49    45    46    1
    50    20    22    1
    51    20    23    1
    52    46    47    1
    53    46    49    1
