@<TRIPOS>MOLECULE
mol_data/opt/b3lyp/geoms/mol2/13ei13ei13ei-13ei.out
 54 57 0 0 0
SMALL
GASTEIGER

@<TRIPOS>ATOM
      1 C           1.2189   -0.1366   -0.7028 C.ar    1  LIG1        0.0179
      2 C           0.9460    1.0004    0.0448 C.ar    1  LIG1        0.0455
      3 C          -0.4659    1.0109    0.3238 C.ar    1  LIG1       -0.0084
      4 C          -0.9997   -0.1213   -0.2741 C.ar    1  LIG1        0.0682
      5 N           0.0479   -0.8146   -0.8737 N.ar    1  LIG1       -0.3581
      6 H          -0.0796   -1.6042   -1.4872 H       1  LIG1        0.1654
      7 H           2.1522   -0.4932   -1.1104 H       1  LIG1        0.0819
      8 C           1.8947    1.9615    0.4814 C.1     1  LIG1       -0.0679
      9 C           2.6896    2.7909    0.8650 C.1     1  LIG1       -0.1139
     10 H           3.3933    3.5182    1.1962 H       1  LIG1        0.1232
     11 C          -1.1805    2.0318    1.1534 C.3     1  LIG1       -0.0365
     12 H          -2.0784    1.6104    1.6125 H       1  LIG1        0.0279
     13 H          -1.5010    2.8904    0.5528 H       1  LIG1        0.0279
     14 H          -0.5245    2.4077    1.9442 H       1  LIG1        0.0279
     15 C          -2.3444   -0.6614   -0.3099 C.ar    1  LIG1        0.0795
     16 C          -3.5924   -0.0633   -0.5377 C.ar    1  LIG1        0.0549
     17 C          -4.5874   -1.0944   -0.5069 C.ar    1  LIG1       -0.0077
     18 C          -3.9215   -2.2955   -0.2685 C.ar    1  LIG1        0.0687
     19 N          -2.5721   -2.0052   -0.1638 N.ar    1  LIG1       -0.3506
     20 H          -1.8758   -2.6875    0.1042 H       1  LIG1        0.1660
     21 C          -3.8359    1.2999   -0.8414 C.1     1  LIG1       -0.0672
     22 C          -4.0817    2.4548   -1.1141 C.1     1  LIG1       -0.1138
     23 H          -4.2804    3.4716   -1.3605 H       1  LIG1        0.1232
     24 C          -6.0524   -0.8772   -0.7361 C.3     1  LIG1       -0.0365
     25 H          -6.6428   -1.0264    0.1773 H       1  LIG1        0.0279
     26 H          -6.4544   -1.5493   -1.5032 H       1  LIG1        0.0279
     27 H          -6.2290    0.1482   -1.0698 H       1  LIG1        0.0279
     28 C          -4.3901   -3.6532   -0.1380 C.ar    1  LIG1        0.0795
     29 C          -3.6665   -4.8584   -0.0435 C.ar    1  LIG1        0.0549
     30 C          -4.6062   -5.9321    0.0716 C.ar    1  LIG1       -0.0077
     31 C          -5.8762   -5.3620    0.0453 C.ar    1  LIG1        0.0687
     32 N          -5.7152   -3.9923   -0.0833 N.ar    1  LIG1       -0.3506
     33 H          -6.4891   -3.3422   -0.0747 H       1  LIG1        0.1660
     34 C          -2.2576   -5.0038   -0.0485 C.1     1  LIG1       -0.0672
     35 C          -1.0511   -5.1441   -0.0402 C.1     1  LIG1       -0.1138
     36 H           0.0040   -5.2911   -0.0304 H       1  LIG1        0.1232
     37 C          -4.2374   -7.3798    0.2027 C.3     1  LIG1       -0.0365
     38 H          -3.1573   -7.4826    0.3318 H       1  LIG1        0.0279
     39 H          -4.5049   -7.9632   -0.6897 H       1  LIG1        0.0279
     40 H          -4.7147   -7.8499    1.0715 H       1  LIG1        0.0279
     41 C          -7.1901   -5.9550    0.1254 C.ar    1  LIG1        0.0790
     42 C          -8.4631   -5.3710    0.2423 C.ar    1  LIG1        0.0542
     43 C          -9.4354   -6.4320    0.2740 C.ar    1  LIG1       -0.0171
     44 C          -8.7336   -7.6085    0.1777 C.ar    1  LIG1        0.0063
     45 N          -7.3899   -7.3146    0.0923 N.ar    1  LIG1       -0.3583
     46 H          -6.6563   -7.9927   -0.0242 H       1  LIG1        0.1654
     47 H          -9.0819   -8.6305    0.1659 H       1  LIG1        0.0810
     48 C          -8.7619   -3.9899    0.3308 C.1     1  LIG1       -0.0672
     49 C          -9.0514   -2.8134    0.4085 C.1     1  LIG1       -0.1138
     50 H          -9.3238   -1.7867    0.4880 H       1  LIG1        0.1232
     51 C         -10.9181   -6.2631    0.3966 C.3     1  LIG1       -0.0371
     52 H         -11.4255   -7.2318    0.3936 H       1  LIG1        0.0278
     53 H         -11.3233   -5.6676   -0.4293 H       1  LIG1        0.0278
     54 H         -11.1872   -5.7447    1.3239 H       1  LIG1        0.0278
@<TRIPOS>BOND
     1    26    24    1
     2     6     5    1
     3    23    22    1
     4    22    21    3
     5     7     1    1
     6    27    24    1
     7     5     1   ar
     8     5     4   ar
     9    21    16    1
    10    24    17    1
    11    24    25    1
    12     1     2   ar
    13    39    37    1
    14    16    17   ar
    15    16    15   ar
    16    17    18   ar
    17    53    51    1
    18    15     4    1
    19    15    19   ar
    20     4     3   ar
    21    18    19   ar
    22    18    28    1
    23    19    20    1
    24    28    32   ar
    25    28    29   ar
    26    32    33    1
    27    32    31   ar
    28    34    29    1
    29    34    35    3
    30    29    30   ar
    31    35    36    1
    32    46    45    1
    33     2     3   ar
    34     2     8    1
    35    31    30   ar
    36    31    41    1
    37    30    37    1
    38    45    41   ar
    39    45    44   ar
    40    41    42   ar
    41    47    44    1
    42    44    43   ar
    43    37    38    1
    44    37    40    1
    45    42    43   ar
    46    42    48    1
    47    43    51    1
    48     3    11    1
    49    48    49    3
    50    52    51    1
    51    51    54    1
    52    49    50    1
    53     8     9    3
    54    13    11    1
    55     9    10    1
    56    11    12    1
    57    11    14    1
