@<TRIPOS>MOLECULE
mol_data/opt/b3lyp/geoms/mol2/13ei13ei-13ei-13ei-.out
 54 57 0 0 0
SMALL
GASTEIGER

@<TRIPOS>ATOM
      1 C           1.2627   -0.2525   -0.5580 C.ar    1  LIG1        0.0179
      2 C           0.7969    1.0099   -0.9081 C.ar    1  LIG1        0.0455
      3 C          -0.6289    1.0023   -0.7444 C.ar    1  LIG1       -0.0084
      4 C          -0.9755   -0.2732   -0.2988 C.ar    1  LIG1        0.0682
      5 N           0.1927   -1.0088   -0.1977 N.ar    1  LIG1       -0.3581
      6 H           0.2168   -1.9687    0.1198 H       1  LIG1        0.1654
      7 H           2.2687   -0.6420   -0.5453 H       1  LIG1        0.0819
      8 C           1.5866    2.1058   -1.3424 C.1     1  LIG1       -0.0679
      9 C           2.2423    3.0543   -1.7137 C.1     1  LIG1       -0.1139
     10 H           2.8298    3.8799   -2.0411 H       1  LIG1        0.1232
     11 C          -1.5283    2.1719   -1.0127 C.3     1  LIG1       -0.0365
     12 H          -2.1491    2.4267   -0.1443 H       1  LIG1        0.0279
     13 H          -2.1972    2.0003   -1.8680 H       1  LIG1        0.0279
     14 H          -0.9298    3.0537   -1.2541 H       1  LIG1        0.0279
     15 C          -2.2506   -0.8620    0.0334 C.ar    1  LIG1        0.0795
     16 C          -2.5740   -2.1322    0.5395 C.ar    1  LIG1        0.0549
     17 C          -4.0023   -2.2139    0.6696 C.ar    1  LIG1       -0.0077
     18 C          -4.5138   -1.0031    0.2350 C.ar    1  LIG1        0.0687
     19 N          -3.4387   -0.1913   -0.1197 N.ar    1  LIG1       -0.3506
     20 H          -3.5350    0.6602   -0.6498 H       1  LIG1        0.1660
     21 C          -1.6594   -3.1538    0.8959 C.1     1  LIG1       -0.0672
     22 C          -0.8830   -4.0362    1.2005 C.1     1  LIG1       -0.1138
     23 H          -0.2232   -4.8244    1.4803 H       1  LIG1        0.1232
     24 C          -4.7589   -3.3791    1.2259 C.3     1  LIG1       -0.0365
     25 H          -4.1932   -3.8572    2.0315 H       1  LIG1        0.0279
     26 H          -4.9506   -4.1384    0.4597 H       1  LIG1        0.0279
     27 H          -5.7304   -3.0667    1.6159 H       1  LIG1        0.0279
     28 C          -5.8690   -0.4918    0.1722 C.ar    1  LIG1        0.0795
     29 C          -7.0604   -1.0482   -0.3105 C.ar    1  LIG1        0.0549
     30 C          -8.1032   -0.0726   -0.1550 C.ar    1  LIG1       -0.0077
     31 C          -7.5220    1.0573    0.4003 C.ar    1  LIG1        0.0687
     32 N          -6.1745    0.7817    0.5929 N.ar    1  LIG1       -0.3506
     33 H          -5.5083    1.4277    0.9866 H       1  LIG1        0.1660
     34 C          -7.2176   -2.3292   -0.8976 C.1     1  LIG1       -0.0672
     35 C          -7.3878   -3.4141   -1.4096 C.1     1  LIG1       -0.1138
     36 H          -7.5271   -4.3634   -1.8716 H       1  LIG1        0.1232
     37 C          -9.5420   -0.2708   -0.5166 C.3     1  LIG1       -0.0365
     38 H          -9.8441   -1.3063   -0.3340 H       1  LIG1        0.0279
     39 H          -9.7259   -0.0545   -1.5750 H       1  LIG1        0.0279
     40 H         -10.1887    0.3932    0.0626 H       1  LIG1        0.0279
     41 C          -8.0845    2.3325    0.8072 C.ar    1  LIG1        0.0790
     42 C          -8.9334    3.2285    0.1506 C.ar    1  LIG1        0.0542
     43 C          -9.1520    4.3510    1.0279 C.ar    1  LIG1       -0.0171
     44 C          -8.4293    4.1055    2.1702 C.ar    1  LIG1        0.0063
     45 N          -7.7733    2.9010    2.0254 N.ar    1  LIG1       -0.3583
     46 H          -7.3151    2.4027    2.7722 H       1  LIG1        0.1654
     47 H          -8.3244    4.6944    3.0696 H       1  LIG1        0.0810
     48 C          -9.4352    3.1076   -1.1698 C.1     1  LIG1       -0.0672
     49 C          -9.8758    3.0415   -2.2965 C.1     1  LIG1       -0.1138
     50 H         -10.2534    2.9779   -3.2903 H       1  LIG1        0.1232
     51 C          -9.9883    5.5549    0.7209 C.3     1  LIG1       -0.0371
     52 H         -11.0282    5.2766    0.5167 H       1  LIG1        0.0278
     53 H          -9.6211    6.0811   -0.1675 H       1  LIG1        0.0278
     54 H          -9.9853    6.2607    1.5562 H       1  LIG1        0.0278
@<TRIPOS>BOND
     1    50    49    1
     2    49    48    3
     3    10     9    1
     4    36    35    1
     5    13    11    1
     6     9     8    3
     7    39    37    1
     8    35    34    3
     9     8     2    1
    10    14    11    1
    11    48    42    1
    12    11     3    1
    13    11    12    1
    14     2     3   ar
    15     2     1   ar
    16    34    29    1
    17     3     4   ar
    18    20    19    1
    19     1     7    1
    20     1     5   ar
    21    37    38    1
    22    37    30    1
    23    37    40    1
    24    29    30   ar
    25    29    28   ar
    26     4     5   ar
    27     4    15    1
    28     5     6    1
    29    53    51    1
    30    30    31   ar
    31    19    15   ar
    32    19    18   ar
    33    15    16   ar
    34    42    41   ar
    35    42    43   ar
    36    28    18    1
    37    28    32   ar
    38    18    17   ar
    39    31    32   ar
    40    31    41    1
    41    26    24    1
    42    52    51    1
    43    16    17   ar
    44    16    21    1
    45    32    33    1
    46    17    24    1
    47    51    43    1
    48    51    54    1
    49    41    45   ar
    50    21    22    3
    51    43    44   ar
    52    22    23    1
    53    24    27    1
    54    24    25    1
    55    45    44   ar
    56    45    46    1
    57    44    47    1
