@<TRIPOS>MOLECULE
mol_data/opt/b3lyp/geoms/mol2/13ei13ei13ei13ei-.out
 54 57 0 0 0
SMALL
GASTEIGER

@<TRIPOS>ATOM
      1 C           0.4385    0.3029   -2.1978 C.ar    1  LIG1        0.0179
      2 C           0.6822    1.0361   -1.0456 C.ar    1  LIG1        0.0455
      3 C          -0.4221    0.8175   -0.1477 C.ar    1  LIG1       -0.0084
      4 C          -1.2993   -0.0394   -0.7937 C.ar    1  LIG1        0.0682
      5 N          -0.7437   -0.3583   -2.0305 N.ar    1  LIG1       -0.3581
      6 H          -1.2460   -0.8309   -2.7656 H       1  LIG1        0.1654
      7 H           1.0222    0.2125   -3.1010 H       1  LIG1        0.0819
      8 C           1.8288    1.8316   -0.7867 C.1     1  LIG1       -0.0679
      9 C           2.8005    2.5132   -0.5461 C.1     1  LIG1       -0.1139
     10 H           3.6554    3.1149   -0.3432 H       1  LIG1        0.1232
     11 C          -0.5474    1.3812    1.2334 C.3     1  LIG1       -0.0365
     12 H          -1.1830    0.7514    1.8612 H       1  LIG1        0.0279
     13 H          -0.9981    2.3799    1.2221 H       1  LIG1        0.0279
     14 H           0.4370    1.4682    1.7028 H       1  LIG1        0.0279
     15 C          -2.5544   -0.6355   -0.3734 C.ar    1  LIG1        0.0795
     16 C          -3.7031   -0.0867    0.2093 C.ar    1  LIG1        0.0549
     17 C          -4.6628   -1.1410    0.3843 C.ar    1  LIG1       -0.0077
     18 C          -4.0846   -2.3006   -0.1123 C.ar    1  LIG1        0.0687
     19 N          -2.8113   -1.9728   -0.5607 N.ar    1  LIG1       -0.3506
     20 H          -2.1524   -2.6308   -0.9472 H       1  LIG1        0.1660
     21 C          -3.9130    1.2772    0.5359 C.1     1  LIG1       -0.0672
     22 C          -4.1269    2.4348    0.8223 C.1     1  LIG1       -0.1138
     23 H          -4.3106    3.4564    1.0601 H       1  LIG1        0.1232
     24 C          -6.0109   -0.9893    1.0170 C.3     1  LIG1       -0.0365
     25 H          -6.3476   -1.9298    1.4606 H       1  LIG1        0.0279
     26 H          -6.7710   -0.6888    0.2873 H       1  LIG1        0.0279
     27 H          -5.9800   -0.2229    1.7968 H       1  LIG1        0.0279
     28 C          -4.5484   -3.6728   -0.1692 C.ar    1  LIG1        0.0795
     29 C          -5.7747   -4.2370   -0.5484 C.ar    1  LIG1        0.0549
     30 C          -5.6511   -5.6628   -0.4544 C.ar    1  LIG1       -0.0077
     31 C          -4.3508   -5.9312   -0.0323 C.ar    1  LIG1        0.0687
     32 N          -3.7075   -4.7174    0.1224 N.ar    1  LIG1       -0.3506
     33 H          -2.7861   -4.6313    0.5321 H       1  LIG1        0.1660
     34 C          -6.9148   -3.5457   -1.0301 C.1     1  LIG1       -0.0672
     35 C          -7.9049   -2.9927   -1.4570 C.1     1  LIG1       -0.1138
     36 H          -8.7650   -2.4912   -1.8353 H       1  LIG1        0.1232
     37 C          -6.7388   -6.6397   -0.7889 C.3     1  LIG1       -0.0365
     38 H          -7.0659   -7.2162    0.0875 H       1  LIG1        0.0279
     39 H          -6.4341   -7.3503   -1.5686 H       1  LIG1        0.0279
     40 H          -7.6158   -6.1071   -1.1643 H       1  LIG1        0.0279
     41 C          -3.6570   -7.1682    0.2366 C.ar    1  LIG1        0.0790
     42 C          -2.3256   -7.4067    0.6210 C.ar    1  LIG1        0.0542
     43 C          -2.1539   -8.8292    0.7587 C.ar    1  LIG1       -0.0171
     44 C          -3.3668   -9.3997    0.4589 C.ar    1  LIG1        0.0063
     45 N          -4.2609   -8.3980    0.1464 N.ar    1  LIG1       -0.3583
     46 H          -5.2264   -8.5385   -0.0994 H       1  LIG1        0.1654
     47 H          -3.6649  -10.4373    0.4424 H       1  LIG1        0.0810
     48 C          -1.3223   -6.4317    0.8420 C.1     1  LIG1       -0.0672
     49 C          -0.4569   -5.6022    1.0380 C.1     1  LIG1       -0.1138
     50 H           0.3203   -4.8973    1.2239 H       1  LIG1        0.1232
     51 C          -0.8901   -9.5290    1.1527 C.3     1  LIG1       -0.0371
     52 H          -0.5414   -9.2012    2.1385 H       1  LIG1        0.0278
     53 H          -0.0798   -9.3232    0.4441 H       1  LIG1        0.0278
     54 H          -1.0358  -10.6121    1.1907 H       1  LIG1        0.0278
@<TRIPOS>BOND
     1     7     1    1
     2     6     5    1
     3     1     5   ar
     4     1     2   ar
     5     5     4   ar
     6    36    35    1
     7    39    37    1
     8    35    34    3
     9    40    37    1
    10     2     8    1
    11     2     3   ar
    12    34    29    1
    13    20    19    1
    14     4    15    1
    15     4     3   ar
    16    37    30    1
    17    37    38    1
    18     8     9    3
    19    19    15   ar
    20    19    18   ar
    21    29    30   ar
    22    29    28   ar
    23     9    10    1
    24    30    31   ar
    25    15    16   ar
    26    28    18    1
    27    28    32   ar
    28     3    11    1
    29    18    17   ar
    30    46    45    1
    31    31    32   ar
    32    31    41    1
    33    32    33    1
    34    45    41   ar
    35    45    44   ar
    36    16    17   ar
    37    16    21    1
    38    41    42   ar
    39    26    24    1
    40    17    24    1
    41    47    44    1
    42    53    51    1
    43    44    43   ar
    44    21    22    3
    45    42    43   ar
    46    42    48    1
    47    43    51    1
    48    22    23    1
    49    48    49    3
    50    24    25    1
    51    24    27    1
    52    49    50    1
    53    51    54    1
    54    51    52    1
    55    13    11    1
    56    11    14    1
    57    11    12    1
