@<TRIPOS>MOLECULE
mol_data/opt/b3lyp/geoms/mol2/13ei13ei-.out
 28 29 0 0 0
SMALL
GASTEIGER

@<TRIPOS>ATOM
      1 C           1.2005   -0.3300   -0.0180 C.ar    1  LIG1        0.0179
      2 C           0.8270    1.0087    0.0022 C.ar    1  LIG1        0.0455
      3 C          -0.6080    1.0540    0.0136 C.ar    1  LIG1       -0.0084
      4 C          -1.0524   -0.2673   -0.0000 C.ar    1  LIG1        0.0682
      5 N           0.0670   -1.0805   -0.0193 N.ar    1  LIG1       -0.3581
      6 H           0.0168   -2.0906   -0.0306 H       1  LIG1        0.1654
      7 H           2.1824   -0.7769   -0.0309 H       1  LIG1        0.0819
      8 C           1.7019    2.1255    0.0098 C.1     1  LIG1       -0.0679
      9 C           2.4304    3.0934    0.0167 C.1     1  LIG1       -0.1139
     10 H           3.0820    3.9358    0.0226 H       1  LIG1        0.1232
     11 C          -1.4245    2.3121    0.0359 C.3     1  LIG1       -0.0365
     12 H          -2.0587    2.3834    0.9300 H       1  LIG1        0.0279
     13 H          -2.0709    2.4070   -0.8473 H       1  LIG1        0.0279
     14 H          -0.7649    3.1832    0.0428 H       1  LIG1        0.0279
     15 C          -2.3798   -0.8386    0.0021 C.ar    1  LIG1        0.0790
     16 C          -2.8045   -2.1783   -0.0123 C.ar    1  LIG1        0.0542
     17 C          -4.2442   -2.1860   -0.0019 C.ar    1  LIG1       -0.0171
     18 C          -4.6415   -0.8717    0.0180 C.ar    1  LIG1        0.0063
     19 N          -3.5183   -0.0717    0.0203 N.ar    1  LIG1       -0.3583
     20 H          -3.5231    0.9343    0.0326 H       1  LIG1        0.1654
     21 H          -5.6317   -0.4414    0.0310 H       1  LIG1        0.0810
     22 C          -1.9770   -3.3273   -0.0328 C.1     1  LIG1       -0.0672
     23 C          -1.2756   -4.3187   -0.0503 C.1     1  LIG1       -0.1138
     24 H          -0.6833   -5.2039   -0.0660 H       1  LIG1        0.1232
     25 C          -5.1176   -3.4023   -0.0113 C.3     1  LIG1       -0.0371
     26 H          -4.9264   -4.0401    0.8592 H       1  LIG1        0.0278
     27 H          -4.9396   -4.0171   -0.9009 H       1  LIG1        0.0278
     28 H          -6.1757   -3.1265    0.0003 H       1  LIG1        0.0278
@<TRIPOS>BOND
     1    27    25    1
     2    13    11    1
     3    24    23    1
     4    23    22    3
     5    22    16    1
     6     7     1    1
     7     6     5    1
     8     5     1   ar
     9     5     4   ar
    10     1     2   ar
    11    16    17   ar
    12    16    15   ar
    13    25    17    1
    14    25    28    1
    15    25    26    1
    16    17    18   ar
    17     4    15    1
    18     4     3   ar
    19    15    19   ar
    20     2     8    1
    21     2     3   ar
    22     8     9    3
    23     3    11    1
    24     9    10    1
    25    18    19   ar
    26    18    21    1
    27    19    20    1
    28    11    14    1
    29    11    12    1
