@<TRIPOS>MOLECULE
mol_data/opt/b3lyp/geoms/mol2/13ei13ei-13ei.out
 41 43 0 0 0
SMALL
GASTEIGER

@<TRIPOS>ATOM
      1 C           1.2836   -0.3752    0.0193 C.ar    1  LIG1        0.0179
      2 C           0.9172    0.9658    0.0036 C.ar    1  LIG1        0.0455
      3 C          -0.5166    1.0200   -0.0034 C.ar    1  LIG1       -0.0084
      4 C          -0.9695   -0.2992    0.0086 C.ar    1  LIG1        0.0682
      5 N           0.1472   -1.1191    0.0222 N.ar    1  LIG1       -0.3581
      6 H           0.0948   -2.1288    0.0311 H       1  LIG1        0.1654
      7 H           2.2632   -0.8273    0.0283 H       1  LIG1        0.0819
      8 C           1.8006    2.0762   -0.0042 C.1     1  LIG1       -0.0679
      9 C           2.5393    3.0363   -0.0111 C.1     1  LIG1       -0.1139
     10 H           3.1983    3.8728   -0.0170 H       1  LIG1        0.1232
     11 C          -1.3256    2.2817   -0.0205 C.3     1  LIG1       -0.0365
     12 H          -1.9690    2.3755    0.8632 H       1  LIG1        0.0279
     13 H          -1.9673    2.3528   -0.9075 H       1  LIG1        0.0279
     14 H          -0.6596    3.1482   -0.0307 H       1  LIG1        0.0279
     15 C          -2.2970   -0.8688    0.0079 C.ar    1  LIG1        0.0795
     16 C          -2.7075   -2.2160    0.0133 C.ar    1  LIG1        0.0549
     17 C          -4.1388   -2.2445    0.0093 C.ar    1  LIG1       -0.0077
     18 C          -4.5693   -0.9207    0.0016 C.ar    1  LIG1        0.0687
     19 N          -3.4407   -0.1168    0.0007 N.ar    1  LIG1       -0.3506
     20 H          -3.4822    0.8931   -0.0010 H       1  LIG1        0.1660
     21 C          -1.8707   -3.3588    0.0211 C.1     1  LIG1       -0.0672
     22 C          -1.1667   -4.3485    0.0282 C.1     1  LIG1       -0.1138
     23 H          -0.5643   -5.2271    0.0337 H       1  LIG1        0.1232
     24 C          -4.9657   -3.4956    0.0138 C.3     1  LIG1       -0.0365
     25 H          -4.3168   -4.3744    0.0308 H       1  LIG1        0.0279
     26 H          -5.5961   -3.5821   -0.8816 H       1  LIG1        0.0279
     27 H          -5.6163   -3.5615    0.8962 H       1  LIG1        0.0279
     28 C          -5.8958   -0.3502   -0.0052 C.ar    1  LIG1        0.0790
     29 C          -6.3306    0.9866   -0.0012 C.ar    1  LIG1        0.0542
     30 C          -7.7701    0.9842   -0.0124 C.ar    1  LIG1       -0.0171
     31 C          -8.1590   -0.3325   -0.0226 C.ar    1  LIG1        0.0063
     32 N          -7.0313   -1.1249   -0.0180 N.ar    1  LIG1       -0.3583
     33 H          -7.0320   -2.1305   -0.0260 H       1  LIG1        0.1654
     34 H          -9.1464   -0.7694   -0.0326 H       1  LIG1        0.0810
     35 C          -5.5213    2.1479    0.0125 C.1     1  LIG1       -0.0672
     36 C          -4.8592    3.1656    0.0239 C.1     1  LIG1       -0.1138
     37 H          -4.2905    4.0660    0.0345 H       1  LIG1        0.1232
     38 C          -8.6510    2.1951   -0.0124 C.3     1  LIG1       -0.0371
     39 H          -9.7074    1.9127   -0.0233 H       1  LIG1        0.0278
     40 H          -8.4620    2.8279   -0.8869 H       1  LIG1        0.0278
     41 H          -8.4773    2.8169    0.8732 H       1  LIG1        0.0278
@<TRIPOS>BOND
     1    13    11    1
     2    40    38    1
     3    26    24    1
     4    34    31    1
     5    14    11    1
     6    33    32    1
     7    39    38    1
     8    31    32   ar
     9    31    30   ar
    10    11     3    1
    11    11    12    1
    12    32    28   ar
    13    10     9    1
    14    30    38    1
    15    30    29   ar
    16    38    41    1
    17     9     8    3
    18    28    29   ar
    19    28    18    1
    20     8     2    1
    21     3     2   ar
    22     3     4   ar
    23    29    35    1
    24    20    19    1
    25    19    18   ar
    26    19    15   ar
    27    18    17   ar
    28     2     1   ar
    29    15     4    1
    30    15    16   ar
    31     4     5   ar
    32    17    16   ar
    33    17    24    1
    34    35    36    3
    35    16    21    1
    36    24    25    1
    37    24    27    1
    38     1     5   ar
    39     1     7    1
    40    21    22    3
    41     5     6    1
    42    36    37    1
    43    22    23    1
