@<TRIPOS>MOLECULE
mol_data/opt/b3lyp/geoms/mol2/13ei13ei13ei13ei.out
 54 57 0 0 0
SMALL
GASTEIGER

@<TRIPOS>ATOM
      1 C           0.3918    0.1614   -2.3393 C.ar    1  LIG1        0.0179
      2 C           0.6984    0.9266   -1.2236 C.ar    1  LIG1        0.0455
      3 C          -0.3762    0.7691   -0.2782 C.ar    1  LIG1       -0.0084
      4 C          -1.2991   -0.0853   -0.8600 C.ar    1  LIG1        0.0682
      5 N          -0.7999   -0.4618   -2.1047 N.ar    1  LIG1       -0.3581
      6 H          -1.3438   -0.9405   -2.8056 H       1  LIG1        0.1654
      7 H           0.9377    0.0246   -3.2601 H       1  LIG1        0.0819
      8 C           1.8743    1.6990   -1.0354 C.1     1  LIG1       -0.0679
      9 C           2.8717    2.3617   -0.8545 C.1     1  LIG1       -0.1139
     10 H           3.7490    2.9465   -0.7046 H       1  LIG1        0.1232
     11 C          -0.4352    1.3849    1.0849 C.3     1  LIG1       -0.0365
     12 H          -1.0699    0.8002    1.7558 H       1  LIG1        0.0279
     13 H          -0.8523    2.3976    1.0519 H       1  LIG1        0.0279
     14 H           0.5669    1.4545    1.5185 H       1  LIG1        0.0279
     15 C          -2.5531   -0.6304   -0.3712 C.ar    1  LIG1        0.0795
     16 C          -3.6678   -0.0257    0.2214 C.ar    1  LIG1        0.0549
     17 C          -4.6471   -1.0460    0.4745 C.ar    1  LIG1       -0.0077
     18 C          -4.1138   -2.2417    0.0183 C.ar    1  LIG1        0.0687
     19 N          -2.8467   -1.9692   -0.4825 N.ar    1  LIG1       -0.3506
     20 H          -2.2307   -2.6538   -0.8925 H       1  LIG1        0.1660
     21 C          -3.8320    1.3564    0.4927 C.1     1  LIG1       -0.0672
     22 C          -4.0061    2.5307    0.7342 C.1     1  LIG1       -0.1138
     23 H          -4.1562    3.5666    0.9307 H       1  LIG1        0.1232
     24 C          -5.9774   -0.8338    1.1268 C.3     1  LIG1       -0.0365
     25 H          -6.3455   -1.7571    1.5811 H       1  LIG1        0.0279
     26 H          -6.7337   -0.5085    0.4038 H       1  LIG1        0.0279
     27 H          -5.9070   -0.0627    1.8997 H       1  LIG1        0.0279
     28 C          -4.6275   -3.5998    0.0424 C.ar    1  LIG1        0.0795
     29 C          -5.8524   -4.1417   -0.3644 C.ar    1  LIG1        0.0549
     30 C          -5.8082   -5.5606   -0.1447 C.ar    1  LIG1       -0.0077
     31 C          -4.5555   -5.8511    0.3742 C.ar    1  LIG1        0.0687
     32 N          -3.8601   -4.6537    0.4816 N.ar    1  LIG1       -0.3506
     33 H          -2.9242   -4.5673    0.8458 H       1  LIG1        0.1660
     34 C          -6.9390   -3.4306   -0.9343 C.1     1  LIG1       -0.0672
     35 C          -7.8827   -2.8531   -1.4278 C.1     1  LIG1       -0.1138
     36 H          -8.7046   -2.3398   -1.8697 H       1  LIG1        0.1232
     37 C          -6.9241   -6.5204   -0.4168 C.3     1  LIG1       -0.0365
     38 H          -6.8450   -7.4062    0.2186 H       1  LIG1        0.0279
     39 H          -6.9126   -6.8692   -1.4555 H       1  LIG1        0.0279
     40 H          -7.8920   -6.0430   -0.2386 H       1  LIG1        0.0279
     41 C          -3.9591   -7.0992    0.8162 C.ar    1  LIG1        0.0790
     42 C          -3.8737   -8.3562    0.2105 C.ar    1  LIG1        0.0542
     43 C          -3.1486   -9.2261    1.1020 C.ar    1  LIG1       -0.0171
     44 C          -2.8140   -8.4735    2.2017 C.ar    1  LIG1        0.0063
     45 N          -3.2857   -7.1908    2.0172 N.ar    1  LIG1       -0.3583
     46 H          -3.3297   -6.4858    2.7363 H       1  LIG1        0.1654
     47 H          -2.2731   -8.7467    3.0957 H       1  LIG1        0.0810
     48 C          -4.3432   -8.7084   -1.0801 C.1     1  LIG1       -0.0672
     49 C          -4.7240   -9.0424   -2.1808 C.1     1  LIG1       -0.1138
     50 H          -5.0580   -9.3269   -3.1511 H       1  LIG1        0.1232
     51 C          -2.8130  -10.6631    0.8465 C.3     1  LIG1       -0.0371
     52 H          -2.2476  -11.0901    1.6796 H       1  LIG1        0.0278
     53 H          -2.2131  -10.7784   -0.0633 H       1  LIG1        0.0278
     54 H          -3.7176  -11.2655    0.7078 H       1  LIG1        0.0278
@<TRIPOS>BOND
     1     7     1    1
     2    50    49    1
     3     6     5    1
     4     1     5   ar
     5     1     2   ar
     6    49    48    3
     7     5     4   ar
     8    36    35    1
     9    39    37    1
    10    35    34    3
    11     2     8    1
    12     2     3   ar
    13    48    42    1
    14     8     9    3
    15    34    29    1
    16    20    19    1
    17     4    15    1
    18     4     3   ar
    19     9    10    1
    20    19    15   ar
    21    19    18   ar
    22    37    40    1
    23    37    30    1
    24    37    38    1
    25    15    16   ar
    26    29    30   ar
    27    29    28   ar
    28     3    11    1
    29    30    31   ar
    30    53    51    1
    31    18    28    1
    32    18    17   ar
    33    28    32   ar
    34    42    41   ar
    35    42    43   ar
    36    16    17   ar
    37    16    21    1
    38    31    32   ar
    39    31    41    1
    40    26    24    1
    41    17    24    1
    42    32    33    1
    43    21    22    3
    44    54    51    1
    45    22    23    1
    46    41    45   ar
    47    51    43    1
    48    51    52    1
    49    13    11    1
    50    11    14    1
    51    11    12    1
    52    43    44   ar
    53    24    25    1
    54    24    27    1
    55    45    44   ar
    56    45    46    1
    57    44    47    1
