@<TRIPOS>MOLECULE
mol_data/opt/b3lyp/geoms/mol2/13ei13ei-4ei13ei.out
 56 59 0 0 0
SMALL
GASTEIGER

@<TRIPOS>ATOM
      1 C           1.4391   -0.4473   -0.0242 C.ar    1  LIG1        0.0179
      2 C           1.0935    0.7687   -0.6034 C.ar    1  LIG1        0.0455
      3 C          -0.3397    0.8376   -0.6366 C.ar    1  LIG1       -0.0084
      4 C          -0.8115   -0.3457   -0.0686 C.ar    1  LIG1        0.0682
      5 N           0.2912   -1.1022    0.2911 N.ar    1  LIG1       -0.3581
      6 H           0.2211   -2.0204    0.7087 H       1  LIG1        0.1654
      7 H           2.4118   -0.8699    0.1743 H       1  LIG1        0.0819
      8 C           1.9939    1.7558   -1.0813 C.1     1  LIG1       -0.0679
      9 C           2.7462    2.6102   -1.4955 C.1     1  LIG1       -0.1139
     10 H           3.4173    3.3539   -1.8567 H       1  LIG1        0.1232
     11 C          -1.1322    1.9762   -1.2050 C.3     1  LIG1       -0.0365
     12 H          -1.7053    2.5161   -0.4390 H       1  LIG1        0.0279
     13 H          -1.8408    1.6423   -1.9730 H       1  LIG1        0.0279
     14 H          -0.4603    2.7008   -1.6714 H       1  LIG1        0.0279
     15 C          -2.1496   -0.8360    0.1623 C.ar    1  LIG1        0.0794
     16 C          -2.6017   -2.0926    0.6088 C.ar    1  LIG1        0.0548
     17 C          -4.0321   -2.0552    0.6622 C.ar    1  LIG1       -0.0091
     18 C          -4.4216   -0.7825    0.2515 C.ar    1  LIG1        0.0523
     19 N          -3.2651   -0.0761   -0.0431 N.ar    1  LIG1       -0.3518
     20 H          -3.2562    0.9064   -0.2689 H       1  LIG1        0.1660
     21 C          -1.7959   -3.2034    0.9600 C.1     1  LIG1       -0.0672
     22 C          -1.1127   -4.1575    1.2725 C.1     1  LIG1       -0.1138
     23 H          -0.5342   -5.0122    1.5365 H       1  LIG1        0.1232
     24 C          -4.8862   -3.1940    1.1331 C.3     1  LIG1       -0.0365
     25 H          -4.3356   -3.8018    1.8569 H       1  LIG1        0.0279
     26 H          -5.1763   -3.8638    0.3131 H       1  LIG1        0.0279
     27 H          -5.8036   -2.8401    1.6111 H       1  LIG1        0.0279
     28 C          -6.0404    1.1808    0.3164 C.ar    1  LIG1        0.0344
     29 C          -7.3466    1.6524    0.1242 C.ar    1  LIG1       -0.0363
     30 C          -5.7529   -0.1955    0.0945 C.ar    1  LIG1        0.0142
     31 C          -8.4047    0.8207   -0.2649 C.ar    1  LIG1        0.0036
     32 H          -7.5411    2.7042    0.2945 H       1  LIG1        0.0637
     33 C          -6.8249   -1.0122   -0.3021 C.ar    1  LIG1       -0.0479
     34 C          -8.1318   -0.5552   -0.4737 C.ar    1  LIG1       -0.0406
     35 H          -6.6229   -2.0584   -0.5018 H       1  LIG1        0.0627
     36 C          -5.0577    2.1251    0.7517 C.1     1  LIG1       -0.0690
     37 C          -4.2598    2.9623    1.1144 C.1     1  LIG1       -0.1139
     38 H          -3.5713    3.6919    1.4738 H       1  LIG1        0.1232
     39 C          -9.1984   -1.5551   -0.8624 C.3     1  LIG1       -0.0391
     40 H          -8.8889   -2.5675   -0.5906 H       1  LIG1        0.0278
     41 H          -9.3845   -1.5678   -1.9453 H       1  LIG1        0.0278
     42 H         -10.1505   -1.3447   -0.3685 H       1  LIG1        0.0278
     43 C          -9.7359    1.4205   -0.4248 C.ar    1  LIG1        0.0626
     44 C         -10.3866    2.4064    0.3310 C.ar    1  LIG1        0.0528
     45 C         -11.6633    2.6643   -0.2801 C.ar    1  LIG1       -0.0172
     46 C         -11.7452    1.8417   -1.3786 C.ar    1  LIG1        0.0063
     47 N         -10.5937    1.0915   -1.4491 N.ar    1  LIG1       -0.3594
     48 H         -10.3580    0.4703   -2.2049 H       1  LIG1        0.1654
     49 H         -12.5322    1.7278   -2.1095 H       1  LIG1        0.0810
     50 C          -9.9143    3.0283    1.5148 C.1     1  LIG1       -0.0673
     51 C          -9.5457    3.5850    2.5261 C.1     1  LIG1       -0.1138
     52 H          -9.2125    4.0601    3.4190 H       1  LIG1        0.1232
     53 C         -12.6940    3.6338    0.2104 C.3     1  LIG1       -0.0371
     54 H         -13.5697    3.6432   -0.4448 H       1  LIG1        0.0278
     55 H         -12.2942    4.6530    0.2554 H       1  LIG1        0.0278
     56 H         -13.0319    3.3814    1.2218 H       1  LIG1        0.0278
@<TRIPOS>BOND
     1    48    47    1
     2    49    46    1
     3    13    11    1
     4    41    39    1
     5    10     9    1
     6    14    11    1
     7     9     8    3
     8    47    46   ar
     9    47    43   ar
    10    46    45   ar
    11    11     3    1
    12    11    12    1
    13     8     2    1
    14    39    40    1
    15    39    34    1
    16    39    42    1
    17     3     2   ar
    18     3     4   ar
    19     2     1   ar
    20    35    33    1
    21    34    33   ar
    22    34    31   ar
    23    54    53    1
    24    43    31    1
    25    43    44   ar
    26    33    30   ar
    27    45    53    1
    28    45    44   ar
    29    20    19    1
    30    31    29   ar
    31     4    15    1
    32     4     5   ar
    33    19    15   ar
    34    19    18   ar
    35     1     7    1
    36     1     5   ar
    37    30    18    1
    38    30    28   ar
    39    29    32    1
    40    29    28   ar
    41    15    16   ar
    42    53    55    1
    43    53    56    1
    44    18    17   ar
    45     5     6    1
    46    26    24    1
    47    28    36    1
    48    44    50    1
    49    16    17   ar
    50    16    21    1
    51    17    24    1
    52    36    37    3
    53    21    22    3
    54    37    38    1
    55    24    27    1
    56    24    25    1
    57    22    23    1
    58    50    51    3
    59    51    52    1
