@<TRIPOS>MOLECULE
mol_data/opt/b3lyp/geoms/mol2/13ei4dd6ie13ie.out
 54 57 0 0 0
SMALL
GASTEIGER

@<TRIPOS>ATOM
      1 C           0.9855    0.6540   -1.4115 C.ar    1  LIG1        0.0179
      2 C           0.9896    1.1954   -0.1335 C.ar    1  LIG1        0.0454
      3 C          -0.2759    0.8866    0.4741 C.ar    1  LIG1       -0.0098
      4 C          -1.0048    0.1663   -0.4661 C.ar    1  LIG1        0.0519
      5 N          -0.2029    0.0150   -1.5922 N.ar    1  LIG1       -0.3593
      6 H          -0.5247   -0.3632   -2.4693 H       1  LIG1        0.1654
      7 H           1.7380    0.6910   -2.1841 H       1  LIG1        0.0819
      8 C           2.0602    1.9000    0.4758 C.1     1  LIG1       -0.0679
      9 C           2.9629    2.5005    1.0142 C.1     1  LIG1       -0.1139
     10 H           3.7592    3.0333    1.4797 H       1  LIG1        0.1232
     11 C          -0.6460    1.2257    1.8853 C.3     1  LIG1       -0.0365
     12 H          -1.4009    0.5414    2.2821 H       1  LIG1        0.0279
     13 H          -1.0518    2.2400    1.9633 H       1  LIG1        0.0279
     14 H           0.2374    1.1716    2.5278 H       1  LIG1        0.0279
     15 C          -3.4804    0.1474    0.0850 C.ar    1  LIG1        0.0615
     16 C          -4.7022   -0.5422    0.1479 C.ar    1  LIG1       -0.0347
     17 C          -2.3121   -0.4879   -0.4085 C.ar    1  LIG1        0.0172
     18 C          -4.8367   -1.8572   -0.2993 C.ar    1  LIG1        0.0025
     19 H          -5.5710   -0.0293    0.5461 H       1  LIG1        0.0637
     20 C          -2.4556   -1.8020   -0.8787 C.ar    1  LIG1       -0.0334
     21 C          -3.6833   -2.4738   -0.8432 C.ar    1  LIG1        0.0602
     22 H          -1.5861   -2.3256   -1.2612 H       1  LIG1        0.0637
     23 N          -3.5265    2.6495    0.7749 N.1     1  LIG1       -0.1908
     24 C          -3.4759    1.5272    0.4723 C.1     1  LIG1        0.0998
     25 N          -3.7623   -4.8714   -1.8403 N.1     1  LIG1       -0.1908
     26 C          -3.7431   -3.7997   -1.3882 C.1     1  LIG1        0.0998
     27 C          -6.4386   -3.6626    0.5566 C.ar    1  LIG1        0.0468
     28 C          -6.1658   -2.5267   -0.2439 C.ar    1  LIG1        0.0056
     29 C          -7.2134   -2.0167   -1.0092 C.ar    1  LIG1       -0.0347
     30 C          -8.4918   -2.5944   -0.9840 C.ar    1  LIG1        0.0526
     31 C          -8.6958   -3.6726   -0.0816 C.ar    1  LIG1        0.1030
     32 N          -7.6640   -4.1854    0.6229 N.ar    1  LIG1       -0.2486
     33 H          -7.0356   -1.1815   -1.6793 H       1  LIG1        0.0637
     34 C          -5.3918   -4.3393    1.4060 C.3     1  LIG1       -0.0217
     35 H          -4.6599   -3.6289    1.7993 H       1  LIG1        0.0293
     36 H          -4.8466   -5.0904    0.8236 H       1  LIG1        0.0293
     37 H          -5.8809   -4.8484    2.2379 H       1  LIG1        0.0293
     38 C          -9.4568   -2.1451   -1.9321 C.1     1  LIG1       -0.0675
     39 C         -10.2003   -1.7416   -2.7979 C.1     1  LIG1       -0.1138
     40 H         -10.8742   -1.4055   -3.5518 H       1  LIG1        0.1232
     41 C          -9.9683   -4.3529    0.1465 C.ar    1  LIG1        0.0703
     42 C         -11.3109   -3.9706    0.1758 C.ar    1  LIG1       -0.0083
     43 C         -12.0569   -5.1340    0.5640 C.ar    1  LIG1        0.0455
     44 C         -11.1477   -6.1674    0.7741 C.ar    1  LIG1        0.0179
     45 N          -9.9084   -5.6835    0.5297 N.ar    1  LIG1       -0.3581
     46 H          -9.0255   -6.1499    0.6752 H       1  LIG1        0.1654
     47 H         -11.3186   -7.1901    1.0741 H       1  LIG1        0.0819
     48 C         -11.9276   -2.6198   -0.0203 C.3     1  LIG1       -0.0365
     49 H         -12.8011   -2.5196    0.6306 H       1  LIG1        0.0279
     50 H         -12.2642   -2.4658   -1.0509 H       1  LIG1        0.0279
     51 H         -11.2279   -1.8142    0.2117 H       1  LIG1        0.0279
     52 C         -13.4635   -5.2101    0.7349 C.1     1  LIG1       -0.0679
     53 C         -14.6652   -5.2567    0.8787 C.1     1  LIG1       -0.1139
     54 H         -15.7213   -5.3069    1.0055 H       1  LIG1        0.1232
@<TRIPOS>BOND
     1    40    39    1
     2    39    38    3
     3     6     5    1
     4     7     1    1
     5    38    30    1
     6    25    26    3
     7    33    29    1
     8     5     1   ar
     9     5     4   ar
    10     1     2   ar
    11    26    21    1
    12    22    20    1
    13    50    48    1
    14    29    30   ar
    15    29    28   ar
    16    30    31   ar
    17    20    21   ar
    18    20    17   ar
    19    21    18   ar
    20     4    17    1
    21     4     3   ar
    22    17    15   ar
    23    18    28    1
    24    18    16   ar
    25    28    27   ar
    26     2     3   ar
    27     2     8    1
    28    31    41    1
    29    31    32   ar
    30    48    42    1
    31    48    51    1
    32    48    49    1
    33    15    16   ar
    34    15    24    1
    35    41    42   ar
    36    41    45   ar
    37    16    19    1
    38    42    43   ar
    39    24    23    3
    40     3    11    1
    41     8     9    3
    42    45    46    1
    43    45    44   ar
    44    27    32   ar
    45    27    34    1
    46    43    52    1
    47    43    44   ar
    48    52    53    3
    49    44    47    1
    50    36    34    1
    51    53    54    1
    52     9    10    1
    53    34    35    1
    54    34    37    1
    55    11    13    1
    56    11    12    1
    57    11    14    1
