@<TRIPOS>MOLECULE
mol_data/opt/b3lyp/geoms/mol2/13ei13ei13ei-13ei-.out
 54 57 0 0 0
SMALL
GASTEIGER

@<TRIPOS>ATOM
      1 C           1.1540   -0.1322   -1.0046 C.ar    1  LIG1        0.0179
      2 C           0.9206    1.0295   -0.2820 C.ar    1  LIG1        0.0455
      3 C          -0.4678    1.0360    0.0971 C.ar    1  LIG1       -0.0084
      4 C          -1.0281   -0.1236   -0.4187 C.ar    1  LIG1        0.0682
      5 N          -0.0172   -0.8280   -1.0659 N.ar    1  LIG1       -0.3581
      6 H          -0.1768   -1.6423   -1.6380 H       1  LIG1        0.1654
      7 H           2.0603   -0.4949   -1.4644 H       1  LIG1        0.0819
      8 C           1.8853    2.0162    0.0499 C.1     1  LIG1       -0.0679
      9 C           2.6943    2.8677    0.3451 C.1     1  LIG1       -0.1139
     10 H           3.4104    3.6142    0.5980 H       1  LIG1        0.1232
     11 C          -1.1328    2.0805    0.9385 C.3     1  LIG1       -0.0365
     12 H          -1.9885    1.6679    1.4792 H       1  LIG1        0.0279
     13 H          -1.5078    2.9126    0.3322 H       1  LIG1        0.0279
     14 H          -0.4244    2.4927    1.6631 H       1  LIG1        0.0279
     15 C          -2.3652   -0.6778   -0.3346 C.ar    1  LIG1        0.0795
     16 C          -3.6326   -0.0998   -0.4950 C.ar    1  LIG1        0.0549
     17 C          -4.6115   -1.1345   -0.3337 C.ar    1  LIG1       -0.0077
     18 C          -3.9163   -2.3184   -0.0922 C.ar    1  LIG1        0.0687
     19 N          -2.5666   -2.0158   -0.1093 N.ar    1  LIG1       -0.3506
     20 H          -1.8498   -2.6760    0.1640 H       1  LIG1        0.1660
     21 C          -3.9145    1.2468   -0.8369 C.1     1  LIG1       -0.0672
     22 C          -4.1959    2.3866   -1.1370 C.1     1  LIG1       -0.1138
     23 H          -4.4245    3.3902   -1.4106 H       1  LIG1        0.1232
     24 C          -6.0938   -0.9329   -0.4379 C.3     1  LIG1       -0.0365
     25 H          -6.6207   -1.2534    0.4701 H       1  LIG1        0.0279
     26 H          -6.5309   -1.4708   -1.2909 H       1  LIG1        0.0279
     27 H          -6.3161    0.1266   -0.5854 H       1  LIG1        0.0279
     28 C          -4.3666   -3.6669    0.1476 C.ar    1  LIG1        0.0795
     29 C          -3.6451   -4.8387    0.4363 C.ar    1  LIG1        0.0549
     30 C          -4.5798   -5.9210    0.5676 C.ar    1  LIG1       -0.0077
     31 C          -5.8402   -5.3899    0.3494 C.ar    1  LIG1        0.0687
     32 N          -5.6918   -4.0247    0.1225 N.ar    1  LIG1       -0.3506
     33 H          -6.4272   -3.4358   -0.2339 H       1  LIG1        0.1660
     34 C          -2.2432   -4.9415    0.6126 C.1     1  LIG1       -0.0672
     35 C          -1.0425   -5.0392    0.7656 C.1     1  LIG1       -0.1138
     36 H           0.0058   -5.1500    0.9199 H       1  LIG1        0.1232
     37 C          -4.2325   -7.3316    0.9269 C.3     1  LIG1       -0.0365
     38 H          -3.3763   -7.3557    1.6077 H       1  LIG1        0.0279
     39 H          -3.9705   -7.9215    0.0416 H       1  LIG1        0.0279
     40 H          -5.0764   -7.8338    1.4062 H       1  LIG1        0.0279
     41 C          -7.1608   -5.9868    0.3855 C.ar    1  LIG1        0.0790
     42 C          -7.6662   -7.1754   -0.1521 C.ar    1  LIG1        0.0542
     43 C          -9.0648   -7.2512    0.1880 C.ar    1  LIG1       -0.0171
     44 C          -9.3601   -6.1150    0.9015 C.ar    1  LIG1        0.0063
     45 N          -8.2179   -5.3487    1.0007 N.ar    1  LIG1       -0.3583
     46 H          -8.1098   -4.5495    1.6052 H       1  LIG1        0.1654
     47 H         -10.2921   -5.7882    1.3387 H       1  LIG1        0.0810
     48 C          -6.9675   -8.1082   -0.9588 C.1     1  LIG1       -0.0672
     49 C          -6.4067   -8.9233   -1.6585 C.1     1  LIG1       -0.1138
     50 H          -5.9097   -9.6304   -2.2807 H       1  LIG1        0.1232
     51 C         -10.0033   -8.3527   -0.1980 C.3     1  LIG1       -0.0371
     52 H          -9.6665   -9.3192    0.1931 H       1  LIG1        0.0278
     53 H         -10.0713   -8.4580   -1.2867 H       1  LIG1        0.0278
     54 H         -11.0100   -8.1654    0.1861 H       1  LIG1        0.0278
@<TRIPOS>BOND
     1    50    49    1
     2    49    48    3
     3     6     5    1
     4     7     1    1
     5    23    22    1
     6    26    24    1
     7    53    51    1
     8    22    21    3
     9     5     1   ar
    10     5     4   ar
    11     1     2   ar
    12    48    42    1
    13    21    16    1
    14    27    24    1
    15    16    15   ar
    16    16    17   ar
    17    24    17    1
    18    24    25    1
    19     4    15    1
    20     4     3   ar
    21    15    19   ar
    22    17    18   ar
    23     2     8    1
    24     2     3   ar
    25    33    32    1
    26    51    54    1
    27    51    43    1
    28    51    52    1
    29    42    43   ar
    30    42    41   ar
    31    19    18   ar
    32    19    20    1
    33    18    28    1
    34    39    37    1
    35     8     9    3
    36     3    11    1
    37    32    28   ar
    38    32    31   ar
    39    28    29   ar
    40    43    44   ar
    41    13    11    1
    42     9    10    1
    43    31    41    1
    44    31    30   ar
    45    41    45   ar
    46    29    30   ar
    47    29    34    1
    48    30    37    1
    49    34    35    3
    50    35    36    1
    51    44    45   ar
    52    44    47    1
    53    37    40    1
    54    37    38    1
    55    11    12    1
    56    11    14    1
    57    45    46    1
