@<TRIPOS>MOLECULE
mol_data/opt/b3lyp/geoms/mol2/13el13el-13el-13el.out
 58 61 0 0 0
SMALL
GASTEIGER

@<TRIPOS>ATOM
      1 C           1.2096   -0.2929    0.0565 C.ar    1  LIG1        0.0213
      2 C           0.8063    1.0108   -0.2275 C.ar    1  LIG1        0.0842
      3 C          -0.6238    0.9666   -0.3225 C.ar    1  LIG1        0.1620
      4 C          -1.0373   -0.3412   -0.0911 C.ar    1  LIG1        0.1077
      5 N           0.1058   -1.0827    0.1410 N.ar    1  LIG1       -0.3554
      6 H           0.0867   -2.0743    0.3384 H       1  LIG1        0.1655
      7 H           2.2044   -0.6830    0.2041 H       1  LIG1        0.0820
      8 C           1.6597    2.1366   -0.3497 C.1     1  LIG1       -0.0645
      9 C           2.3923    3.0957   -0.4527 C.1     1  LIG1       -0.1137
     10 H           3.0383    3.9392   -0.5284 H       1  LIG1        0.1232
     11 O          -1.5063    1.9978   -0.5367 O.3     1  LIG1       -0.4917
     12 C          -1.2779    2.7744   -1.7270 C.3     1  LIG1        0.0789
     13 H          -2.0805    3.5132   -1.7600 H       1  LIG1        0.0660
     14 H          -0.3095    3.2785   -1.6840 H       1  LIG1        0.0660
     15 H          -1.3210    2.1371   -2.6175 H       1  LIG1        0.0660
     16 C          -2.3640   -0.8922   -0.0482 C.ar    1  LIG1        0.0862
     17 C          -2.8317   -2.1982    0.1682 C.ar    1  LIG1        0.0937
     18 C          -4.2611   -2.1446    0.0835 C.ar    1  LIG1        0.1627
     19 C          -4.6357   -0.8283   -0.1794 C.ar    1  LIG1        0.1082
     20 N          -3.4569   -0.0955   -0.2390 N.ar    1  LIG1       -0.3478
     21 H          -3.3608    0.8749   -0.5064 H       1  LIG1        0.1661
     22 C          -2.0394   -3.3410    0.4312 C.1     1  LIG1       -0.0638
     23 C          -1.3373   -4.3035    0.6623 C.1     1  LIG1       -0.1137
     24 H          -0.7602   -5.1777    0.8561 H       1  LIG1        0.1232
     25 O          -5.0713   -3.2260    0.2417 O.3     1  LIG1       -0.4917
     26 C          -5.7542   -3.2908    1.4973 C.3     1  LIG1        0.0789
     27 H          -6.3348   -4.2146    1.4815 H       1  LIG1        0.0660
     28 H          -5.0408   -3.3191    2.3300 H       1  LIG1        0.0660
     29 H          -6.4333   -2.4409    1.6272 H       1  LIG1        0.0660
     30 C          -5.9003   -0.1458   -0.3076 C.ar    1  LIG1        0.0862
     31 C          -7.1846   -0.5493   -0.7252 C.ar    1  LIG1        0.0937
     32 C          -8.0070    0.6258   -0.6789 C.ar    1  LIG1        0.1627
     33 C          -7.2285    1.6988   -0.2683 C.ar    1  LIG1        0.1081
     34 N          -5.9576    1.2025   -0.0593 N.ar    1  LIG1       -0.3478
     35 H          -5.2295    1.7553    0.3735 H       1  LIG1        0.1661
     36 C          -7.5617   -1.8227   -1.2151 C.1     1  LIG1       -0.0638
     37 C          -7.9046   -2.9036   -1.6419 C.1     1  LIG1       -0.1137
     38 H          -8.1706   -3.8546   -2.0404 H       1  LIG1        0.1232
     39 O          -9.3208    0.7701   -1.0442 O.3     1  LIG1       -0.4917
     40 C         -10.2436   -0.1299   -0.4119 C.3     1  LIG1        0.0789
     41 H         -11.2324    0.1350   -0.7910 H       1  LIG1        0.0660
     42 H         -10.0186   -1.1677   -0.6680 H       1  LIG1        0.0660
     43 H         -10.2205   -0.0075    0.6778 H       1  LIG1        0.0660
     44 C          -7.5471    3.0899   -0.1011 C.ar    1  LIG1        0.0858
     45 C          -6.7349    4.1741    0.2800 C.ar    1  LIG1        0.0930
     46 C          -7.5852    5.3367    0.2666 C.ar    1  LIG1        0.1533
     47 C          -8.8470    4.9358   -0.1093 C.ar    1  LIG1        0.0457
     48 N          -8.8043    3.5757   -0.3316 N.ar    1  LIG1       -0.3554
     49 H          -9.5509    2.9859   -0.6696 H       1  LIG1        0.1655
     50 H          -9.7458    5.5152   -0.2461 H       1  LIG1        0.0845
     51 C          -5.3467    4.1028    0.5475 C.1     1  LIG1       -0.0638
     52 C          -4.1566    3.9912    0.7704 C.1     1  LIG1       -0.1137
     53 H          -3.1067    3.8865    0.9278 H       1  LIG1        0.1232
     54 O          -7.2272    6.6309    0.5078 O.3     1  LIG1       -0.4924
     55 C          -6.7206    6.8871    1.8199 C.3     1  LIG1        0.0789
     56 H          -6.5007    7.9558    1.8590 H       1  LIG1        0.0660
     57 H          -7.4683    6.6401    2.5844 H       1  LIG1        0.0660
     58 H          -5.8039    6.3213    2.0167 H       1  LIG1        0.0660
@<TRIPOS>BOND
     1    15    12    1
     2    38    37    1
     3    13    12    1
     4    12    14    1
     5    12    11    1
     6    37    36    3
     7    36    31    1
     8    39    32    1
     9    39    40    1
    10    41    40    1
    11    31    32   ar
    12    31    30   ar
    13    32    33   ar
    14    49    48    1
    15    42    40    1
    16    11     3    1
    17    10     9    1
    18    21    20    1
    19     9     8    3
    20    40    43    1
    21     8     2    1
    22    48    47   ar
    23    48    44   ar
    24     3     2   ar
    25     3     4   ar
    26    30    19    1
    27    30    34   ar
    28    33    44    1
    29    33    34   ar
    30    50    47    1
    31    20    19   ar
    32    20    16   ar
    33     2     1   ar
    34    19    18   ar
    35    47    46   ar
    36    44    45   ar
    37     4    16    1
    38     4     5   ar
    39    34    35    1
    40    16    17   ar
    41     1     5   ar
    42     1     7    1
    43    18    17   ar
    44    18    25    1
    45     5     6    1
    46    17    22    1
    47    25    26    1
    48    46    45   ar
    49    46    54    1
    50    45    51    1
    51    22    23    3
    52    54    55    1
    53    51    52    3
    54    23    24    1
    55    52    53    1
    56    27    26    1
    57    26    29    1
    58    26    28    1
    59    55    56    1
    60    55    58    1
    61    55    57    1
