@<TRIPOS>MOLECULE
mol_data/opt/b3lyp/geoms/mol2/13el13el13el13el.out
 58 61 0 0 0
SMALL
GASTEIGER

@<TRIPOS>ATOM
      1 C           0.5211    0.2404   -2.3971 C.ar    1  LIG1        0.0213
      2 C           0.9043    0.9286   -1.2530 C.ar    1  LIG1        0.0842
      3 C          -0.1695    0.7688   -0.3046 C.ar    1  LIG1        0.1620
      4 C          -1.1582    0.0000   -0.8981 C.ar    1  LIG1        0.1077
      5 N          -0.6934   -0.3350   -2.1686 N.ar    1  LIG1       -0.3554
      6 H          -1.2748   -0.7452   -2.8826 H       1  LIG1        0.1655
      7 H           1.0390    0.1288   -3.3372 H       1  LIG1        0.0820
      8 C           2.1452    1.5889   -1.0635 C.1     1  LIG1       -0.0645
      9 C           3.2073    2.1506   -0.9110 C.1     1  LIG1       -0.1137
     10 H           4.1465    2.6329   -0.7709 H       1  LIG1        0.1232
     11 O          -0.2026    1.1667    0.9937 O.3     1  LIG1       -0.4917
     12 C          -0.0385    2.5717    1.2205 C.3     1  LIG1        0.0789
     13 H          -0.1016    2.7093    2.3013 H       1  LIG1        0.0660
     14 H           0.9336    2.9230    0.8624 H       1  LIG1        0.0660
     15 H          -0.8426    3.1342    0.7342 H       1  LIG1        0.0660
     16 C          -2.4182   -0.5121   -0.3945 C.ar    1  LIG1        0.0862
     17 C          -3.4951    0.1206    0.2413 C.ar    1  LIG1        0.0937
     18 C          -4.4973   -0.8861    0.4608 C.ar    1  LIG1        0.1627
     19 C          -4.0269   -2.0893   -0.0439 C.ar    1  LIG1        0.1082
     20 N          -2.7568   -1.8343   -0.5457 N.ar    1  LIG1       -0.3478
     21 H          -2.1654   -2.5240   -0.9824 H       1  LIG1        0.1661
     22 C          -3.5747    1.4879    0.6031 C.1     1  LIG1       -0.0638
     23 C          -3.6749    2.6563    0.9084 C.1     1  LIG1       -0.1137
     24 H          -3.7595    3.6776    1.1980 H       1  LIG1        0.1232
     25 O          -5.6714   -0.7603    1.1336 O.3     1  LIG1       -0.4917
     26 C          -6.6069    0.1793    0.5887 C.3     1  LIG1        0.0789
     27 H          -7.4826    0.1402    1.2390 H       1  LIG1        0.0660
     28 H          -6.1975    1.1935    0.5863 H       1  LIG1        0.0660
     29 H          -6.8946   -0.1124   -0.4267 H       1  LIG1        0.0660
     30 C          -4.5893   -3.4259   -0.0294 C.ar    1  LIG1        0.0862
     31 C          -5.8252   -3.9184   -0.4663 C.ar    1  LIG1        0.0937
     32 C          -5.8091   -5.3375   -0.2447 C.ar    1  LIG1        0.1627
     33 C          -4.5830   -5.6828    0.3049 C.ar    1  LIG1        0.1081
     34 N          -3.8613   -4.5021    0.4194 N.ar    1  LIG1       -0.3478
     35 H          -2.9279   -4.4407    0.7951 H       1  LIG1        0.1661
     36 C          -6.8596   -3.1788   -1.0903 C.1     1  LIG1       -0.0638
     37 C          -7.7564   -2.5770   -1.6397 C.1     1  LIG1       -0.1137
     38 H          -8.5405   -2.0561   -2.1378 H       1  LIG1        0.1232
     39 O          -6.7888   -6.2306   -0.5462 O.3     1  LIG1       -0.4917
     40 C          -8.0263   -6.0403    0.1471 C.3     1  LIG1        0.0789
     41 H          -8.6907   -6.8345   -0.1980 H       1  LIG1        0.0660
     42 H          -7.8842   -6.1292    1.2315 H       1  LIG1        0.0660
     43 H          -8.4700   -5.0666   -0.0825 H       1  LIG1        0.0660
     44 C          -4.0489   -6.9505    0.7585 C.ar    1  LIG1        0.0858
     45 C          -4.0461   -8.2188    0.1690 C.ar    1  LIG1        0.0930
     46 C          -3.3485   -9.0917    1.0804 C.ar    1  LIG1        0.1533
     47 C          -2.9500   -8.3487    2.1657 C.ar    1  LIG1        0.0457
     48 N          -3.3522   -7.0462    1.9456 N.ar    1  LIG1       -0.3554
     49 H          -3.3666   -6.3308    2.6554 H       1  LIG1        0.1655
     50 H          -2.3984   -8.6415    3.0448 H       1  LIG1        0.0845
     51 C          -4.5321   -8.5521   -1.1189 C.1     1  LIG1       -0.0638
     52 C          -4.9313   -8.8542   -2.2216 C.1     1  LIG1       -0.1137
     53 H          -5.2861   -9.1010   -3.1947 H       1  LIG1        0.1232
     54 O          -3.0335  -10.4060    0.8963 O.3     1  LIG1       -0.4924
     55 C          -4.1521  -11.2829    0.7343 C.3     1  LIG1        0.0789
     56 H          -3.7367  -12.2836    0.6004 H       1  LIG1        0.0660
     57 H          -4.7917  -11.2700    1.6263 H       1  LIG1        0.0660
     58 H          -4.7487  -11.0153   -0.1431 H       1  LIG1        0.0660
@<TRIPOS>BOND
     1     7     1    1
     2    53    52    1
     3     6     5    1
     4     1     5   ar
     5     1     2   ar
     6    52    51    3
     7     5     4   ar
     8    38    37    1
     9    37    36    3
    10     2     8    1
    11     2     3   ar
    12    51    45    1
    13    36    31    1
    14     8     9    3
    15    21    20    1
    16     9    10    1
    17     4    16    1
    18     4     3   ar
    19    39    32    1
    20    39    40    1
    21    20    16   ar
    22    20    19   ar
    23    31    32   ar
    24    31    30   ar
    25    29    26    1
    26    16    17   ar
    27     3    11    1
    28    32    33   ar
    29    41    40    1
    30    58    55    1
    31    43    40    1
    32    19    30    1
    33    19    18   ar
    34    30    34   ar
    35    40    42    1
    36    45    44   ar
    37    45    46   ar
    38    17    18   ar
    39    17    22    1
    40    33    34   ar
    41    33    44    1
    42    34    35    1
    43    18    25    1
    44    28    26    1
    45    26    25    1
    46    26    27    1
    47    56    55    1
    48    22    23    3
    49    15    12    1
    50    55    54    1
    51    55    57    1
    52    44    48   ar
    53    14    12    1
    54    54    46    1
    55    23    24    1
    56    11    12    1
    57    46    47   ar
    58    12    13    1
    59    48    47   ar
    60    48    49    1
    61    47    50    1
