@<TRIPOS>MOLECULE
mol_data/opt/b3lyp/geoms/mol2/13el13el13el-13el.out
 58 61 0 0 0
SMALL
GASTEIGER

@<TRIPOS>ATOM
      1 C           1.2916   -0.3390   -0.9393 C.ar    1  LIG1        0.0213
      2 C           1.1264    0.8205   -0.1913 C.ar    1  LIG1        0.0842
      3 C          -0.2704    0.8829    0.1570 C.ar    1  LIG1        0.1620
      4 C          -0.9003   -0.2276   -0.3875 C.ar    1  LIG1        0.1077
      5 N           0.0880   -0.9713   -1.0274 N.ar    1  LIG1       -0.3554
      6 H          -0.1094   -1.7488   -1.6377 H       1  LIG1        0.1655
      7 H           2.1825   -0.7375   -1.3995 H       1  LIG1        0.0820
      8 C           2.1661    1.7055    0.1927 C.1     1  LIG1       -0.0645
      9 C           3.0631    2.4533    0.5141 C.1     1  LIG1       -0.1137
     10 H           3.8525    3.1042    0.8097 H       1  LIG1        0.1232
     11 O          -0.8914    1.7695    0.9768 O.3     1  LIG1       -0.4917
     12 C          -0.7622    3.1508    0.6218 C.3     1  LIG1        0.0789
     13 H          -1.3298    3.7060    1.3704 H       1  LIG1        0.0660
     14 H           0.2830    3.4723    0.6413 H       1  LIG1        0.0660
     15 H          -1.1906    3.3347   -0.3695 H       1  LIG1        0.0660
     16 C          -2.2630   -0.7042   -0.3109 C.ar    1  LIG1        0.0862
     17 C          -3.4938   -0.0353   -0.4109 C.ar    1  LIG1        0.0937
     18 C          -4.5073   -1.0407   -0.2991 C.ar    1  LIG1        0.1627
     19 C          -3.8938   -2.2782   -0.1527 C.ar    1  LIG1        0.1082
     20 N          -2.5298   -2.0460   -0.1834 N.ar    1  LIG1       -0.3478
     21 H          -1.8501   -2.7513    0.0682 H       1  LIG1        0.1661
     22 C          -3.7053    1.3374   -0.6858 C.1     1  LIG1       -0.0638
     23 C          -3.9308    2.5007   -0.9393 C.1     1  LIG1       -0.1137
     24 H          -4.1260    3.5213   -1.1724 H       1  LIG1        0.1232
     25 O          -5.8645   -0.8896   -0.3846 O.3     1  LIG1       -0.4917
     26 C          -6.4476   -0.0213    0.6009 C.3     1  LIG1        0.0789
     27 H          -7.5265   -0.0745    0.4466 H       1  LIG1        0.0660
     28 H          -6.2042   -0.3657    1.6126 H       1  LIG1        0.0660
     29 H          -6.1010    1.0071    0.4702 H       1  LIG1        0.0660
     30 C          -4.4740   -3.5823    0.0058 C.ar    1  LIG1        0.0862
     31 C          -3.8781   -4.8298    0.2836 C.ar    1  LIG1        0.0937
     32 C          -4.9508   -5.7757    0.3478 C.ar    1  LIG1        0.1627
     33 C          -6.1457   -5.1061    0.1144 C.ar    1  LIG1        0.1081
     34 N          -5.8232   -3.7776   -0.0841 N.ar    1  LIG1       -0.3478
     35 H          -6.4819   -3.0401   -0.3057 H       1  LIG1        0.1661
     36 C          -2.5016   -5.0629    0.5114 C.1     1  LIG1       -0.0638
     37 C          -1.3151   -5.2464    0.6969 C.1     1  LIG1       -0.1137
     38 H          -0.2883   -5.4333    0.9110 H       1  LIG1        0.1232
     39 O          -4.8868   -7.1134    0.6476 O.3     1  LIG1       -0.4917
     40 C          -4.0629   -7.8982   -0.2279 C.3     1  LIG1        0.0789
     41 H          -4.1352   -8.9279    0.1272 H       1  LIG1        0.0660
     42 H          -4.4238   -7.8365   -1.2614 H       1  LIG1        0.0660
     43 H          -3.0206   -7.5708   -0.1854 H       1  LIG1        0.0660
     44 C          -7.4923   -5.6126    0.0928 C.ar    1  LIG1        0.0858
     45 C          -8.7122   -4.9984   -0.2396 C.ar    1  LIG1        0.0930
     46 C          -9.7293   -6.0036   -0.0674 C.ar    1  LIG1        0.1533
     47 C          -9.1163   -7.1612    0.3547 C.ar    1  LIG1        0.0457
     48 N          -7.7647   -6.9094    0.4380 N.ar    1  LIG1       -0.3554
     49 H          -7.0390   -7.5467    0.7331 H       1  LIG1        0.1655
     50 H          -9.5388   -8.1269    0.5810 H       1  LIG1        0.0845
     51 C          -8.8754   -3.6761   -0.7145 C.1     1  LIG1       -0.0638
     52 C          -8.9991   -2.5373   -1.1171 C.1     1  LIG1       -0.1137
     53 H          -9.1081   -1.5625   -1.5321 H       1  LIG1        0.1232
     54 O         -11.0629   -5.8902   -0.3343 O.3     1  LIG1       -0.4924
     55 C         -11.7581   -4.9192    0.4516 C.3     1  LIG1        0.0789
     56 H         -12.8019   -4.9596    0.1338 H       1  LIG1        0.0660
     57 H         -11.6927   -5.1598    1.5206 H       1  LIG1        0.0660
     58 H         -11.3670   -3.9103    0.2846 H       1  LIG1        0.0660
@<TRIPOS>BOND
     1     6     5    1
     2    53    52    1
     3     7     1    1
     4    42    40    1
     5    24    23    1
     6    52    51    3
     7     5     1   ar
     8     5     4   ar
     9     1     2   ar
    10    23    22    3
    11    51    45    1
    12    22    17    1
    13    17    16   ar
    14    17    18   ar
    15     4    16    1
    16     4     3   ar
    17    25    18    1
    18    25    26    1
    19    15    12    1
    20    54    46    1
    21    54    55    1
    22    16    20   ar
    23    35    34    1
    24    18    19   ar
    25    45    46   ar
    26    45    44   ar
    27    40    43    1
    28    40    41    1
    29    40    39    1
    30     2     3   ar
    31     2     8    1
    32    20    19   ar
    33    20    21    1
    34    19    30    1
    35    34    30   ar
    36    34    33   ar
    37    46    47   ar
    38    30    31   ar
    39    44    33    1
    40    44    48   ar
    41    33    32   ar
    42    56    55    1
    43     3    11    1
    44     8     9    3
    45    31    32   ar
    46    31    36    1
    47    58    55    1
    48    32    39    1
    49    47    48   ar
    50    47    50    1
    51    48    49    1
    52    27    26    1
    53    55    57    1
    54    29    26    1
    55    36    37    3
    56     9    10    1
    57    26    28    1
    58    12    14    1
    59    12    11    1
    60    12    13    1
    61    37    38    1
