@<TRIPOS>MOLECULE
mol_data/opt/b3lyp/geoms/mol2/13el4ha-6ff-6ii.out
 54 57 0 0 0
SMALL
GASTEIGER

@<TRIPOS>ATOM
      1 C           1.2822    0.0663    1.1079 C.ar    1  LIG1        0.0213
      2 C           1.0506    1.2723    0.4614 C.ar    1  LIG1        0.0842
      3 C          -0.3312    1.2522    0.0710 C.ar    1  LIG1        0.1606
      4 C          -0.9014    0.0547    0.4788 C.ar    1  LIG1        0.0917
      5 N           0.1208   -0.6477    1.1036 N.ar    1  LIG1       -0.3565
      6 H          -0.0275   -1.5103    1.6029 H       1  LIG1        0.1655
      7 H           2.1825   -0.3078    1.5701 H       1  LIG1        0.0820
      8 C           1.9877    2.3119    0.2355 C.1     1  LIG1       -0.0645
      9 C           2.7817    3.2033    0.0317 C.1     1  LIG1       -0.1137
     10 H           3.4800    3.9910   -0.1302 H       1  LIG1        0.1232
     11 O          -0.9982    2.2625   -0.5744 O.3     1  LIG1       -0.4918
     12 C          -0.6340    2.4541   -1.9490 C.3     1  LIG1        0.0789
     13 H          -1.2482    3.2775   -2.3179 H       1  LIG1        0.0660
     14 H           0.4239    2.7193   -2.0343 H       1  LIG1        0.0660
     15 H          -0.8372    1.5497   -2.5341 H       1  LIG1        0.0660
     16 C          -3.4411    0.2061    0.4930 C.ar    1  LIG1        0.0345
     17 C          -4.6697   -0.4746    0.4162 C.ar    1  LIG1       -0.0325
     18 C          -2.2366   -0.5411    0.3399 C.ar    1  LIG1        0.0226
     19 C          -4.7577   -1.8538    0.2075 C.ar    1  LIG1       -0.0109
     20 H          -5.5860    0.1016    0.5168 H       1  LIG1        0.0642
     21 C          -2.3420   -1.9224    0.1101 C.ar    1  LIG1       -0.0502
     22 C          -3.5645   -2.5836    0.0467 C.ar    1  LIG1       -0.0531
     23 H          -1.4296   -2.4949   -0.0342 H       1  LIG1        0.0625
     24 N          -3.4244    1.5583    0.7775 N.pl3   1  LIG1       -0.3574
     25 H          -2.6679    2.0968    0.3682 H       1  LIG1        0.1423
     26 H          -4.3222    2.0165    0.7137 H       1  LIG1        0.1423
     27 H          -3.5903   -3.6610   -0.0833 H       1  LIG1        0.0624
     28 C          -6.4419   -3.4304   -0.8694 C.ar    1  LIG1        0.2210
     29 C          -6.0850   -2.5182    0.1585 C.ar    1  LIG1        0.0470
     30 C          -7.0574   -2.2635    1.1244 C.ar    1  LIG1       -0.0052
     31 C          -8.3022   -2.8913    1.0632 C.ar    1  LIG1        0.1436
     32 C          -8.5517   -3.7785    0.0015 C.ar    1  LIG1        0.1178
     33 N          -7.6190   -4.0280   -0.9332 N.ar    1  LIG1       -0.2088
     34 H          -6.8468   -1.5981    1.9553 H       1  LIG1        0.0662
     35 O          -5.5938   -3.7450   -1.8869 O.3     1  LIG1       -0.4920
     36 H          -4.8044   -3.1872   -1.8125 H       1  LIG1        0.2937
     37 O          -9.2013   -2.6180    2.0579 O.3     1  LIG1       -0.5046
     38 H          -9.9566   -3.2166    1.9613 H       1  LIG1        0.2922
     39 C          -9.9752   -5.8769   -0.2687 C.ar    1  LIG1        0.0475
     40 C          -9.8672   -4.4690   -0.1327 C.ar    1  LIG1        0.0253
     41 C         -11.0487   -3.7184   -0.1394 C.ar    1  LIG1       -0.0464
     42 C         -12.2954   -4.3386   -0.2798 C.ar    1  LIG1       -0.0317
     43 C         -12.2772   -5.7277   -0.4071 C.ar    1  LIG1        0.0308
     44 N         -11.1664   -6.4743   -0.4012 N.ar    1  LIG1       -0.2592
     45 H         -10.9922   -2.6343   -0.0622 H       1  LIG1        0.0628
     46 H         -13.2140   -6.2730   -0.5210 H       1  LIG1        0.0832
     47 C          -8.7709   -6.7832   -0.2636 C.3     1  LIG1       -0.0217
     48 H          -8.1434   -6.6100    0.6176 H       1  LIG1        0.0293
     49 H          -8.1407   -6.5966   -1.1373 H       1  LIG1        0.0293
     50 H          -9.1091   -7.8202   -0.2670 H       1  LIG1        0.0293
     51 C         -13.5815   -3.5522   -0.3075 C.3     1  LIG1       -0.0383
     52 H         -14.4467   -4.2150   -0.3953 H       1  LIG1        0.0278
     53 H         -13.6067   -2.8573   -1.1545 H       1  LIG1        0.0278
     54 H         -13.7085   -2.9556    0.6029 H       1  LIG1        0.0278
@<TRIPOS>BOND
     1    15    12    1
     2    13    12    1
     3    14    12    1
     4    12    11    1
     5    35    36    1
     6    35    28    1
     7    53    51    1
     8    49    47    1
     9    33    28   ar
    10    33    32   ar
    11    28    29   ar
    12    11     3    1
    13    46    43    1
    14    43    44   ar
    15    43    42   ar
    16    44    39   ar
    17    52    51    1
    18    51    42    1
    19    51    54    1
    20    42    41   ar
    21    39    47    1
    22    39    40   ar
    23    50    47    1
    24    47    48    1
    25    41    40   ar
    26    41    45    1
    27    40    32    1
    28    10     9    1
    29    27    22    1
    30    23    21    1
    31    32    31   ar
    32     9     8    3
    33    22    21   ar
    34    22    19   ar
    35     3     2   ar
    36     3     4   ar
    37    21    18   ar
    38    29    19    1
    39    29    30   ar
    40    19    17   ar
    41     8     2    1
    42    18     4    1
    43    18    16   ar
    44    25    24    1
    45    17    16   ar
    46    17    20    1
    47     2     1   ar
    48     4     5   ar
    49    16    24    1
    50    26    24    1
    51    31    30   ar
    52    31    37    1
    53     5     1   ar
    54     5     6    1
    55     1     7    1
    56    30    34    1
    57    38    37    1
