@<TRIPOS>MOLECULE
mol_data/opt/b3lyp/geoms/mol2/13el13el-13el.out
 44 46 0 0 0
SMALL
GASTEIGER

@<TRIPOS>ATOM
      1 C           1.2425   -0.5009    0.2474 C.ar    1  LIG1        0.0213
      2 C           0.9366    0.8570    0.3056 C.ar    1  LIG1        0.0842
      3 C          -0.4922    0.9418    0.2191 C.ar    1  LIG1        0.1620
      4 C          -1.0024   -0.3474    0.1156 C.ar    1  LIG1        0.1077
      5 N           0.0830   -1.2048    0.1428 N.ar    1  LIG1       -0.3554
      6 H          -0.0042   -2.2084    0.0641 H       1  LIG1        0.1655
      7 H           2.2046   -0.9877    0.2817 H       1  LIG1        0.0820
      8 C           1.8654    1.9175    0.4571 C.1     1  LIG1       -0.0645
      9 C           2.6600    2.8228    0.5839 C.1     1  LIG1       -0.1137
     10 H           3.3597    3.6153    0.7130 H       1  LIG1        0.1232
     11 O          -1.2879    2.0541    0.2756 O.3     1  LIG1       -0.4917
     12 C          -1.0393    3.0383   -0.7402 C.3     1  LIG1        0.0789
     13 H          -1.8012    3.8080   -0.6065 H       1  LIG1        0.0660
     14 H          -0.0433    3.4751   -0.6274 H       1  LIG1        0.0660
     15 H          -1.1353    2.5972   -1.7392 H       1  LIG1        0.0660
     16 C          -2.3655   -0.7929    0.0063 C.ar    1  LIG1        0.0862
     17 C          -2.9017   -2.0787   -0.2058 C.ar    1  LIG1        0.0937
     18 C          -4.3237   -1.9149   -0.2376 C.ar    1  LIG1        0.1627
     19 C          -4.6181   -0.5705   -0.0489 C.ar    1  LIG1        0.1081
     20 N          -3.4094    0.0839    0.0904 N.ar    1  LIG1       -0.3478
     21 H          -3.2963    1.0751    0.2693 H       1  LIG1        0.1661
     22 C          -2.1628   -3.2703   -0.3946 C.1     1  LIG1       -0.0638
     23 C          -1.5130   -4.2854   -0.5451 C.1     1  LIG1       -0.1137
     24 H          -0.9723   -5.1873   -0.7160 H       1  LIG1        0.1232
     25 O          -5.2821   -2.8699   -0.4695 O.3     1  LIG1       -0.4917
     26 C          -5.3032   -3.9527    0.4738 C.3     1  LIG1        0.0789
     27 H          -6.1201   -4.6086    0.1669 H       1  LIG1        0.0660
     28 H          -4.3623   -4.5092    0.4543 H       1  LIG1        0.0660
     29 H          -5.4874   -3.5808    1.4885 H       1  LIG1        0.0660
     30 C          -5.8945    0.0934   -0.0178 C.ar    1  LIG1        0.0858
     31 C          -6.2456    1.4225    0.2756 C.ar    1  LIG1        0.0930
     32 C          -7.6777    1.4995    0.1416 C.ar    1  LIG1        0.1533
     33 C          -8.1387    0.2548   -0.2216 C.ar    1  LIG1        0.0457
     34 N          -7.0492   -0.5839   -0.3052 N.ar    1  LIG1       -0.3554
     35 H          -7.0448   -1.5601   -0.5638 H       1  LIG1        0.1655
     36 H          -9.1448   -0.0854   -0.4068 H       1  LIG1        0.0845
     37 C          -5.3599    2.4450    0.6887 C.1     1  LIG1       -0.0638
     38 C          -4.5865    3.3135    1.0379 C.1     1  LIG1       -0.1137
     39 H          -3.9258    4.0614    1.4098 H       1  LIG1        0.1232
     40 O          -8.4787    2.5755    0.3932 O.3     1  LIG1       -0.4924
     41 C          -8.2471    3.7128   -0.4410 C.3     1  LIG1        0.0789
     42 H          -8.9663    4.4726   -0.1283 H       1  LIG1        0.0660
     43 H          -7.2314    4.1029   -0.3185 H       1  LIG1        0.0660
     44 H          -8.4143    3.4654   -1.4974 H       1  LIG1        0.0660
@<TRIPOS>BOND
     1    15    12    1
     2    44    41    1
     3    12    14    1
     4    12    13    1
     5    12    11    1
     6    24    23    1
     7    35    34    1
     8    23    22    3
     9    25    18    1
    10    25    26    1
    11    41    43    1
    12    41    42    1
    13    41    40    1
    14    36    33    1
    15    22    17    1
    16    34    33   ar
    17    34    30   ar
    18    18    17   ar
    19    18    19   ar
    20    33    32   ar
    21    17    16   ar
    22    19    30    1
    23    19    20   ar
    24    30    31   ar
    25    16    20   ar
    26    16     4    1
    27     6     5    1
    28    20    21    1
    29     4     5   ar
    30     4     3   ar
    31    32    31   ar
    32    32    40    1
    33     5     1   ar
    34    27    26    1
    35     3    11    1
    36     3     2   ar
    37     1     7    1
    38     1     2   ar
    39    31    37    1
    40     2     8    1
    41    28    26    1
    42     8     9    3
    43    26    29    1
    44     9    10    1
    45    37    38    3
    46    38    39    1
