@<TRIPOS>MOLECULE
mol_data/opt/b3lyp/geoms/mol2/13el13el-13el-13el-.out
 58 61 0 0 0
SMALL
GASTEIGER

@<TRIPOS>ATOM
      1 C           0.8386    0.3691   -1.2872 C.ar    1  LIG1        0.0213
      2 C           0.1991    1.5944   -1.4672 C.ar    1  LIG1        0.0842
      3 C          -1.1852    1.3605   -1.1750 C.ar    1  LIG1        0.1620
      4 C          -1.3388    0.0228   -0.8268 C.ar    1  LIG1        0.1077
      5 N          -0.0840   -0.5523   -0.9010 N.ar    1  LIG1       -0.3554
      6 H           0.0859   -1.5279   -0.6964 H       1  LIG1        0.1655
      7 H           1.8811    0.1189   -1.4068 H       1  LIG1        0.0820
      8 C           0.8266    2.8144   -1.8257 C.1     1  LIG1       -0.0645
      9 C           1.3667    3.8545   -2.1320 C.1     1  LIG1       -0.1137
     10 H           1.8473    4.7705   -2.3859 H       1  LIG1        0.1232
     11 O          -2.2263    2.2566   -1.1568 O.3     1  LIG1       -0.4917
     12 C          -2.4282    3.0002   -2.3722 C.3     1  LIG1        0.0789
     13 H          -3.3053    3.6256   -2.1971 H       1  LIG1        0.0660
     14 H          -1.5617    3.6276   -2.5943 H       1  LIG1        0.0660
     15 H          -2.6155    2.3222   -3.2128 H       1  LIG1        0.0660
     16 C          -2.5183   -0.6951   -0.4275 C.ar    1  LIG1        0.0862
     17 C          -2.7272   -2.0424   -0.0916 C.ar    1  LIG1        0.0937
     18 C          -4.1220   -2.1831    0.2056 C.ar    1  LIG1        0.1627
     19 C          -4.7311   -0.9400    0.0465 C.ar    1  LIG1        0.1082
     20 N          -3.7222   -0.0589   -0.3234 N.ar    1  LIG1       -0.3478
     21 H          -3.8359    0.9060   -0.6037 H       1  LIG1        0.1661
     22 C          -1.7433   -3.0585   -0.0448 C.1     1  LIG1       -0.0638
     23 C          -0.8787   -3.9092   -0.0060 C.1     1  LIG1       -0.1137
     24 H          -0.1556   -4.6906    0.0314 H       1  LIG1        0.1232
     25 O          -4.7012   -3.3565    0.5772 O.3     1  LIG1       -0.4917
     26 C          -5.0546   -3.4457    1.9614 C.3     1  LIG1        0.0789
     27 H          -5.4794   -4.4407    2.1038 H       1  LIG1        0.0660
     28 H          -4.1696   -3.3286    2.5987 H       1  LIG1        0.0660
     29 H          -5.8031   -2.6935    2.2328 H       1  LIG1        0.0660
     30 C          -6.0697   -0.4388    0.2475 C.ar    1  LIG1        0.0862
     31 C          -7.3501   -1.0185    0.1427 C.ar    1  LIG1        0.0937
     32 C          -8.2886    0.0371    0.3936 C.ar    1  LIG1        0.1627
     33 C          -7.5858    1.2101    0.6296 C.ar    1  LIG1        0.1081
     34 N          -6.2475    0.8907    0.5385 N.ar    1  LIG1       -0.3478
     35 H          -5.5171    1.5466    0.7828 H       1  LIG1        0.1661
     36 C          -7.6597   -2.3608   -0.1832 C.1     1  LIG1       -0.0638
     37 C          -7.9503   -3.5025   -0.4660 C.1     1  LIG1       -0.1137
     38 H          -8.1758   -4.5143   -0.7099 H       1  LIG1        0.1232
     39 O          -9.6581   -0.0298    0.4432 O.3     1  LIG1       -0.4917
     40 C         -10.2946   -0.4688   -0.7679 C.3     1  LIG1        0.0789
     41 H         -11.3675   -0.4637   -0.5666 H       1  LIG1        0.0660
     42 H         -10.0699    0.2164   -1.5942 H       1  LIG1        0.0660
     43 H          -9.9757   -1.4795   -1.0338 H       1  LIG1        0.0660
     44 C          -8.0395    2.5418    0.9210 C.ar    1  LIG1        0.0858
     45 C          -7.3163    3.7421    1.0392 C.ar    1  LIG1        0.0930
     46 C          -8.2800    4.7636    1.3326 C.ar    1  LIG1        0.1533
     47 C          -9.5293    4.1783    1.3850 C.ar    1  LIG1        0.0457
     48 N          -9.3571    2.8281    1.1312 N.ar    1  LIG1       -0.3554
     49 H         -10.0713    2.1151    1.1108 H       1  LIG1        0.1655
     50 H         -10.5037    4.5943    1.5787 H       1  LIG1        0.0845
     51 C          -5.9176    3.8879    0.8826 C.1     1  LIG1       -0.0638
     52 C          -4.7122    3.9547    0.7449 C.1     1  LIG1       -0.1137
     53 H          -3.6555    4.0116    0.6127 H       1  LIG1        0.1232
     54 O          -7.9215    6.0598    1.5093 O.3     1  LIG1       -0.4924
     55 C          -8.9850    6.9510    1.8026 C.3     1  LIG1        0.0789
     56 H          -8.5397    7.9401    1.9173 H       1  LIG1        0.0660
     57 H          -9.7211    6.9749    0.9874 H       1  LIG1        0.0660
     58 H          -9.4943    6.6698    2.7344 H       1  LIG1        0.0660
@<TRIPOS>BOND
     1    15    12    1
     2    14    12    1
     3    10     9    1
     4    12    13    1
     5    12    11    1
     6     9     8    3
     7     8     2    1
     8    42    40    1
     9     2     1   ar
    10     2     3   ar
    11     7     1    1
    12     1     5   ar
    13     3    11    1
    14     3     4   ar
    15    43    40    1
    16     5     4   ar
    17     5     6    1
    18     4    16    1
    19    40    41    1
    20    40    39    1
    21    38    37    1
    22    21    20    1
    23    37    36    3
    24    16    20   ar
    25    16    17   ar
    26    20    19   ar
    27    36    31    1
    28    17    22    1
    29    17    18   ar
    30    22    23    3
    31    23    24    1
    32    19    18   ar
    33    19    30    1
    34    31    30   ar
    35    31    32   ar
    36    18    25    1
    37    30    34   ar
    38    32    39    1
    39    32    33   ar
    40    34    33   ar
    41    34    35    1
    42    25    26    1
    43    53    52    1
    44    33    44    1
    45    52    51    3
    46    51    45    1
    47    44    45   ar
    48    44    48   ar
    49    57    55    1
    50    45    46   ar
    51    49    48    1
    52    48    47   ar
    53    46    47   ar
    54    46    54    1
    55    47    50    1
    56    54    55    1
    57    55    56    1
    58    55    58    1
    59    26    27    1
    60    26    29    1
    61    26    28    1
