@<TRIPOS>MOLECULE
mol_data/opt/b3lyp/geoms/mol2/13el13el13el.out
 44 46 0 0 0
SMALL
GASTEIGER

@<TRIPOS>ATOM
      1 C           1.1207   -0.1671   -1.3407 C.ar    1  LIG1        0.0213
      2 C           1.0752    0.9006   -0.4535 C.ar    1  LIG1        0.0842
      3 C          -0.2653    0.9314    0.0759 C.ar    1  LIG1        0.1620
      4 C          -0.9808   -0.1055   -0.5015 C.ar    1  LIG1        0.1077
      5 N          -0.0971   -0.7804   -1.3415 N.ar    1  LIG1       -0.3554
      6 H          -0.3915   -1.4650   -2.0203 H       1  LIG1        0.1655
      7 H           1.9374   -0.5166   -1.9534 H       1  LIG1        0.0820
      8 C           2.1695    1.7341   -0.1076 C.1     1  LIG1       -0.0645
      9 C           3.1093    2.4411    0.1817 C.1     1  LIG1       -0.1137
     10 H           3.9383    3.0551    0.4462 H       1  LIG1        0.1232
     11 O          -0.7570    1.7290    1.0598 O.3     1  LIG1       -0.4917
     12 C          -0.6849    3.1386    0.8124 C.3     1  LIG1        0.0789
     13 H          -1.1279    3.6189    1.6865 H       1  LIG1        0.0660
     14 H           0.3511    3.4709    0.6979 H       1  LIG1        0.0660
     15 H          -1.2631    3.4012   -0.0798 H       1  LIG1        0.0660
     16 C          -2.3385   -0.5704   -0.2977 C.ar    1  LIG1        0.0862
     17 C          -3.5655    0.1047   -0.3183 C.ar    1  LIG1        0.0937
     18 C          -4.5865   -0.8837   -0.1073 C.ar    1  LIG1        0.1627
     19 C          -3.9780   -2.1228    0.0285 C.ar    1  LIG1        0.1081
     20 N          -2.6125   -1.9015   -0.0945 N.ar    1  LIG1       -0.3478
     21 H          -1.9124   -2.6250   -0.0472 H       1  LIG1        0.1661
     22 C          -3.7715    1.4809   -0.5824 C.1     1  LIG1       -0.0638
     23 C          -3.9819    2.6508   -0.8178 C.1     1  LIG1       -0.1137
     24 H          -4.1728    3.6741   -1.0424 H       1  LIG1        0.1232
     25 O          -5.9316   -0.6880   -0.0797 O.3     1  LIG1       -0.4917
     26 C          -6.4067    0.1584    0.9718 C.3     1  LIG1        0.0789
     27 H          -7.4914    0.2011    0.8581 H       1  LIG1        0.0660
     28 H          -6.1595   -0.2633    1.9542 H       1  LIG1        0.0660
     29 H          -5.9907    1.1677    0.8943 H       1  LIG1        0.0660
     30 C          -4.5149   -3.4410    0.2970 C.ar    1  LIG1        0.0858
     31 C          -5.5920   -4.1351   -0.2634 C.ar    1  LIG1        0.0930
     32 C          -5.6357   -5.4196    0.3907 C.ar    1  LIG1        0.1533
     33 C          -4.6068   -5.4729    1.3003 C.ar    1  LIG1        0.0457
     34 N          -3.9145   -4.2812    1.2123 N.ar    1  LIG1       -0.3554
     35 H          -3.2422   -3.9658    1.8937 H       1  LIG1        0.1655
     36 H          -4.3085   -6.2659    1.9674 H       1  LIG1        0.0845
     37 C          -6.4058   -3.7024   -1.3388 C.1     1  LIG1       -0.0638
     38 C          -7.1039   -3.3533   -2.2647 C.1     1  LIG1       -0.1137
     39 H          -7.7059   -3.0305   -3.0815 H       1  LIG1        0.1232
     40 O          -6.4707   -6.4635    0.1200 O.3     1  LIG1       -0.4924
     41 C          -7.8634   -6.1936    0.3042 C.3     1  LIG1        0.0789
     42 H          -8.3874   -7.1185    0.0555 H       1  LIG1        0.0660
     43 H          -8.0750   -5.9240    1.3470 H       1  LIG1        0.0660
     44 H          -8.2079   -5.3907   -0.3545 H       1  LIG1        0.0660
@<TRIPOS>BOND
     1    39    38    1
     2    38    37    3
     3     6     5    1
     4     7     1    1
     5     5     1   ar
     6     5     4   ar
     7     1     2   ar
     8    37    31    1
     9    24    23    1
    10    23    22    3
    11    22    17    1
    12     4    16    1
    13     4     3   ar
    14     2     8    1
    15     2     3   ar
    16    44    41    1
    17    17    16   ar
    18    17    18   ar
    19    16    20   ar
    20    31    30   ar
    21    31    32   ar
    22     8     9    3
    23    18    25    1
    24    18    19   ar
    25    20    21    1
    26    20    19   ar
    27    15    12    1
    28    25    26    1
    29    19    30    1
    30    42    41    1
    31     3    11    1
    32    40    41    1
    33    40    32    1
    34     9    10    1
    35    30    34   ar
    36    41    43    1
    37    32    33   ar
    38    14    12    1
    39    12    11    1
    40    12    13    1
    41    27    26    1
    42    29    26    1
    43    26    28    1
    44    34    33   ar
    45    34    35    1
    46    33    36    1
