@<TRIPOS>MOLECULE
mol_data/opt/b3lyp/geoms/mol2/13el13el-13el13el-.out
 58 61 0 0 0
SMALL
GASTEIGER

@<TRIPOS>ATOM
      1 C           1.3671   -0.3440    0.0029 C.ar    1  LIG1        0.0213
      2 C           0.9979    0.9982   -0.0559 C.ar    1  LIG1        0.0842
      3 C          -0.4358    1.0111   -0.0645 C.ar    1  LIG1        0.1620
      4 C          -0.8863   -0.3034   -0.0147 C.ar    1  LIG1        0.1077
      5 N           0.2402   -1.1057    0.0188 N.ar    1  LIG1       -0.3554
      6 H           0.1980   -2.1138    0.0754 H       1  LIG1        0.1655
      7 H           2.3526   -0.7823    0.0261 H       1  LIG1        0.0820
      8 C           1.8797    2.1060   -0.1279 C.1     1  LIG1       -0.0645
      9 C           2.6333    3.0526   -0.1863 C.1     1  LIG1       -0.1137
     10 H           3.2989    3.8811   -0.2551 H       1  LIG1        0.1232
     11 O          -1.2799    2.0855   -0.1575 O.3     1  LIG1       -0.4917
     12 C          -1.1529    3.0555    0.8939 C.3     1  LIG1        0.0789
     13 H          -1.9335    3.7971    0.7156 H       1  LIG1        0.0660
     14 H          -1.3078    2.5881    1.8734 H       1  LIG1        0.0660
     15 H          -0.1705    3.5348    0.8683 H       1  LIG1        0.0660
     16 C          -2.2290   -0.8183   -0.0057 C.ar    1  LIG1        0.0862
     17 C          -2.7126   -2.1332    0.1470 C.ar    1  LIG1        0.0937
     18 C          -4.1390   -2.0415    0.0866 C.ar    1  LIG1        0.1627
     19 C          -4.4886   -0.7086   -0.1003 C.ar    1  LIG1        0.1082
     20 N          -3.3071    0.0080   -0.1460 N.ar    1  LIG1       -0.3478
     21 H          -3.2285    1.0053   -0.3059 H       1  LIG1        0.1661
     22 C          -1.9309   -3.2932    0.3591 C.1     1  LIG1       -0.0638
     23 C          -1.2447   -4.2806    0.5297 C.1     1  LIG1       -0.1137
     24 H          -0.6751   -5.1618    0.7139 H       1  LIG1        0.1232
     25 O          -5.0577   -3.0447    0.2333 O.3     1  LIG1       -0.4917
     26 C          -5.0030   -4.0763   -0.7645 C.3     1  LIG1        0.0789
     27 H          -5.8535   -4.7309   -0.5679 H       1  LIG1        0.0660
     28 H          -5.0938   -3.6490   -1.7697 H       1  LIG1        0.0660
     29 H          -4.0708   -4.6441   -0.6913 H       1  LIG1        0.0660
     30 C          -5.7905   -0.1137   -0.2243 C.ar    1  LIG1        0.0862
     31 C          -6.1775    1.2001   -0.5607 C.ar    1  LIG1        0.0937
     32 C          -7.6082    1.2082   -0.5418 C.ar    1  LIG1        0.1627
     33 C          -8.0541   -0.0641   -0.2051 C.ar    1  LIG1        0.1081
     34 N          -6.9288   -0.8436   -0.0238 N.ar    1  LIG1       -0.3478
     35 H          -6.9322   -1.8185    0.2538 H       1  LIG1        0.1661
     36 C          -5.3078    2.2573   -0.9165 C.1     1  LIG1       -0.0638
     37 C          -4.5463    3.1542   -1.2163 C.1     1  LIG1       -0.1137
     38 H          -3.8837    3.9222   -1.5414 H       1  LIG1        0.1232
     39 O          -8.4575    2.2399   -0.8557 O.3     1  LIG1       -0.4917
     40 C          -8.2858    3.4322   -0.0753 C.3     1  LIG1        0.0789
     41 H          -9.0413    4.1378   -0.4262 H       1  LIG1        0.0660
     42 H          -8.4389    3.2251    0.9906 H       1  LIG1        0.0660
     43 H          -7.2907    3.8597   -0.2242 H       1  LIG1        0.0660
     44 C          -9.3975   -0.5637   -0.0815 C.ar    1  LIG1        0.0858
     45 C          -9.8859   -1.8134    0.3364 C.ar    1  LIG1        0.0930
     46 C         -11.3157   -1.7385    0.2420 C.ar    1  LIG1        0.1533
     47 C         -11.6551   -0.4821   -0.2174 C.ar    1  LIG1        0.0457
     48 N         -10.4742    0.2133   -0.4054 N.ar    1  LIG1       -0.3554
     49 H         -10.3693    1.1535   -0.7574 H       1  LIG1        0.1655
     50 H         -12.6119   -0.0324   -0.4234 H       1  LIG1        0.0845
     51 C          -9.1206   -2.9129    0.7879 C.1     1  LIG1       -0.0638
     52 C          -8.4466   -3.8461    1.1723 C.1     1  LIG1       -0.1137
     53 H          -7.8744   -4.6563    1.5595 H       1  LIG1        0.1232
     54 O         -12.1135   -2.7842    0.5762 O.3     1  LIG1       -0.4924
     55 C         -13.5049   -2.5575    0.4281 C.3     1  LIG1        0.0789
     56 H         -14.0050   -3.4785    0.7306 H       1  LIG1        0.0660
     57 H         -13.8445   -1.7313    1.0679 H       1  LIG1        0.0660
     58 H         -13.7625   -2.3283   -0.6151 H       1  LIG1        0.0660
@<TRIPOS>BOND
     1    28    26    1
     2    38    37    1
     3    37    36    3
     4    36    31    1
     5    39    32    1
     6    39    40    1
     7    26    29    1
     8    26    27    1
     9    26    25    1
    10    49    48    1
    11    58    55    1
    12    31    32   ar
    13    31    30   ar
    14    32    33   ar
    15    41    40    1
    16    50    47    1
    17    48    47   ar
    18    48    44   ar
    19    21    20    1
    20    10     9    1
    21    30    19    1
    22    30    34   ar
    23    43    40    1
    24    47    46   ar
    25    33    44    1
    26    33    34   ar
    27     9     8    3
    28    11     3    1
    29    11    12    1
    30    20    19   ar
    31    20    16   ar
    32     8     2    1
    33    19    18   ar
    34    44    45   ar
    35    40    42    1
    36     3     2   ar
    37     3     4   ar
    38     2     1   ar
    39    34    35    1
    40     4    16    1
    41     4     5   ar
    42    16    17   ar
    43     1     5   ar
    44     1     7    1
    45     5     6    1
    46    18    17   ar
    47    18    25    1
    48    17    22    1
    49    46    45   ar
    50    46    54    1
    51    45    51    1
    52    22    23    3
    53    55    54    1
    54    55    56    1
    55    55    57    1
    56    23    24    1
    57    13    12    1
    58    51    52    3
    59    15    12    1
    60    12    14    1
    61    52    53    1
