@<TRIPOS>MOLECULE
mol_data/opt/b3lyp/geoms/mol2/13el13el-.out
 30 31 0 0 0
SMALL
GASTEIGER

@<TRIPOS>ATOM
      1 C           1.2527   -0.3507   -0.0003 C.ar    1  LIG1        0.0213
      2 C           0.8962    1.0004   -0.0001 C.ar    1  LIG1        0.0842
      3 C          -0.5401    1.0222    0.0004 C.ar    1  LIG1        0.1620
      4 C          -0.9960   -0.2930    0.0005 C.ar    1  LIG1        0.1077
      5 N           0.1254   -1.1024   -0.0000 N.ar    1  LIG1       -0.3554
      6 H           0.0697   -2.1126   -0.0002 H       1  LIG1        0.1655
      7 H           2.2378   -0.7899   -0.0007 H       1  LIG1        0.0820
      8 C           1.8373    2.0634   -0.0003 C.1     1  LIG1       -0.0645
      9 C           2.6758    2.9378   -0.0004 C.1     1  LIG1       -0.1137
     10 H           3.4095    3.7097   -0.0005 H       1  LIG1        0.1232
     11 O          -1.4326    2.0589    0.0009 O.3     1  LIG1       -0.4917
     12 C          -0.9278    3.3924    0.0008 C.3     1  LIG1        0.0789
     13 H          -1.8049    4.0418    0.0011 H       1  LIG1        0.0660
     14 H          -0.3232    3.5888    0.8913 H       1  LIG1        0.0660
     15 H          -0.3240    3.5888   -0.8903 H       1  LIG1        0.0660
     16 C          -2.3386   -0.8105    0.0009 C.ar    1  LIG1        0.0857
     17 C          -2.8121   -2.1341    0.0007 C.ar    1  LIG1        0.0930
     18 C          -4.2448   -2.0506    0.0013 C.ar    1  LIG1        0.1533
     19 C          -4.6010   -0.7181    0.0017 C.ar    1  LIG1        0.0457
     20 N          -3.4261    0.0152    0.0015 N.ar    1  LIG1       -0.3554
     21 H          -3.3390    1.0203    0.0015 H       1  LIG1        0.1655
     22 H          -5.5643   -0.2365    0.0022 H       1  LIG1        0.0845
     23 C          -2.0308   -3.3124    0.0002 C.1     1  LIG1       -0.0638
     24 C          -1.3383   -4.3099   -0.0003 C.1     1  LIG1       -0.1137
     25 H          -0.7716   -5.2117   -0.0008 H       1  LIG1        0.1232
     26 O          -5.0279   -3.1589    0.0014 O.3     1  LIG1       -0.4924
     27 C          -6.4246   -2.9156    0.0018 C.3     1  LIG1        0.0789
     28 H          -6.9113   -3.8918    0.0017 H       1  LIG1        0.0660
     29 H          -6.7310   -2.3554    0.8959 H       1  LIG1        0.0660
     30 H          -6.7315   -2.3550   -0.8918 H       1  LIG1        0.0660
@<TRIPOS>BOND
     1    30    27    1
     2    15    12    1
     3    25    24    1
     4     7     1    1
     5    10     9    1
     6     9     8    3
     7     1     2   ar
     8     1     5   ar
     9     8     2    1
    10    24    23    3
    11     6     5    1
    12     2     3   ar
    13     5     4   ar
    14    23    17    1
    15     3     4   ar
    16     3    11    1
    17     4    16    1
    18    17    16   ar
    19    17    18   ar
    20    12    11    1
    21    12    13    1
    22    12    14    1
    23    16    20   ar
    24    18    26    1
    25    18    19   ar
    26    26    27    1
    27    20    21    1
    28    20    19   ar
    29    19    22    1
    30    28    27    1
    31    27    29    1
