@<TRIPOS>MOLECULE
mol_data/opt/b3lyp/geoms/mol2/13el4dh13fa4al.out
 52 55 0 0 0
SMALL
GASTEIGER

@<TRIPOS>ATOM
      1 C           1.2888   -0.1853    0.8383 C.ar    1  LIG1        0.0213
      2 C           1.0631    1.0429    0.2261 C.ar    1  LIG1        0.0842
      3 C          -0.3392    1.0758   -0.1068 C.ar    1  LIG1        0.1606
      4 C          -0.9095   -0.1214    0.3086 C.ar    1  LIG1        0.0913
      5 N           0.1213   -0.8824    0.8503 N.ar    1  LIG1       -0.3565
      6 H          -0.0320   -1.7440    1.3498 H       1  LIG1        0.1655
      7 H           2.1995   -0.5839    1.2579 H       1  LIG1        0.0820
      8 C           2.0679    2.0043   -0.0544 C.1     1  LIG1       -0.0645
      9 C           2.9453    2.8066   -0.2863 C.1     1  LIG1       -0.1137
     10 H           3.7129    3.5128   -0.5008 H       1  LIG1        0.1232
     11 O          -1.0166    2.0020   -0.8303 O.3     1  LIG1       -0.4918
     12 C          -0.8617    3.3741   -0.4356 C.3     1  LIG1        0.0789
     13 H          -1.4861    3.9482   -1.1216 H       1  LIG1        0.0660
     14 H          -1.2211    3.5222    0.5865 H       1  LIG1        0.0660
     15 H           0.1786    3.6961   -0.5262 H       1  LIG1        0.0660
     16 C          -3.4376    0.0460    0.4108 C.ar    1  LIG1        0.0617
     17 C          -4.6874   -0.5675    0.2560 C.ar    1  LIG1       -0.0327
     18 C          -2.2501   -0.6813    0.1475 C.ar    1  LIG1        0.0210
     19 C          -4.8292   -1.9014   -0.1495 C.ar    1  LIG1        0.0238
     20 H          -5.5782    0.0042    0.4834 H       1  LIG1        0.0638
     21 C          -2.3947   -2.0085   -0.2791 C.ar    1  LIG1       -0.0299
     22 C          -3.6386   -2.6231   -0.4446 C.ar    1  LIG1        0.0346
     23 H          -1.5021   -2.5667   -0.5508 H       1  LIG1        0.0643
     24 N          -3.4441    2.4481    1.3913 N.1     1  LIG1       -0.1908
     25 C          -3.4109    1.3791    0.9311 C.1     1  LIG1        0.0998
     26 N          -3.7036   -3.9584   -0.8822 N.pl3   1  LIG1       -0.3574
     27 H          -4.4375   -4.1188   -1.5648 H       1  LIG1        0.1423
     28 H          -2.8178   -4.3004   -1.2353 H       1  LIG1        0.1423
     29 C          -6.1566   -2.5003   -0.2324 C.ar    1  LIG1        0.0907
     30 C          -7.4161   -1.9149   -0.3802 C.ar    1  LIG1        0.1427
     31 C          -8.3998   -2.9253   -0.3098 C.ar    1  LIG1        0.0058
     32 C          -7.7405   -4.1367   -0.1136 C.ar    1  LIG1        0.0506
     33 N          -6.3964   -3.8643   -0.0931 N.ar    1  LIG1       -0.3512
     34 H          -5.6800   -4.5123    0.2005 H       1  LIG1        0.1660
     35 O          -7.6031   -0.5759   -0.5790 O.3     1  LIG1       -0.5046
     36 H          -8.5487   -0.4053   -0.6686 H       1  LIG1        0.2922
     37 H          -9.4654   -2.7964   -0.4408 H       1  LIG1        0.0675
     38 C          -9.6044   -5.7002    0.4213 C.ar    1  LIG1       -0.0524
     39 C         -10.0974   -6.9910    0.5524 C.ar    1  LIG1       -0.0577
     40 C          -8.2669   -5.4921    0.0261 C.ar    1  LIG1        0.0019
     41 C          -9.2908   -8.1084    0.3109 C.ar    1  LIG1       -0.0199
     42 H         -11.1281   -7.1422    0.8603 H       1  LIG1        0.0619
     43 C          -7.4602   -6.6098   -0.2246 C.ar    1  LIG1       -0.0108
     44 C          -7.9614   -7.9085   -0.0774 C.ar    1  LIG1        0.1207
     45 H          -6.4360   -6.5042   -0.5675 H       1  LIG1        0.0661
     46 H          -9.7003   -9.1043    0.4259 H       1  LIG1        0.0654
     47 H         -10.2385   -4.8492    0.6450 H       1  LIG1        0.0624
     48 O          -7.0733   -8.9102   -0.3501 O.3     1  LIG1       -0.4951
     49 C          -7.5208  -10.2524   -0.2390 C.3     1  LIG1        0.0788
     50 H          -6.6661  -10.8772   -0.5022 H       1  LIG1        0.0660
     51 H          -7.8394  -10.4905    0.7838 H       1  LIG1        0.0660
     52 H          -8.3472  -10.4628   -0.9297 H       1  LIG1        0.0660
@<TRIPOS>BOND
     1    27    26    1
     2    28    26    1
     3    13    12    1
     4    52    49    1
     5    26    22    1
     6    11    12    1
     7    11     3    1
     8    36    35    1
     9    35    30    1
    10    45    43    1
    11    23    21    1
    12    15    12    1
    13    50    49    1
    14    10     9    1
    15    22    21   ar
    16    22    19   ar
    17    37    31    1
    18    12    14    1
    19    30    31   ar
    20    30    29   ar
    21    48    49    1
    22    48    44    1
    23    31    32   ar
    24     9     8    3
    25    21    18   ar
    26    49    51    1
    27    29    19    1
    28    29    33   ar
    29    43    44   ar
    30    43    40   ar
    31    19    17   ar
    32    32    33   ar
    33    32    40    1
    34     3     2   ar
    35     3     4   ar
    36    33    34    1
    37    44    41   ar
    38     8     2    1
    39    40    38   ar
    40    18     4    1
    41    18    16   ar
    42     2     1   ar
    43    17    16   ar
    44    17    20    1
    45     4     5   ar
    46    41    46    1
    47    41    39   ar
    48    16    25    1
    49    38    39   ar
    50    38    47    1
    51    39    42    1
    52     1     5   ar
    53     1     7    1
    54     5     6    1
    55    25    24    3
