@<TRIPOS>MOLECULE
mol_data/opt/b3lyp/geoms/mol2/13el13el13el-13el-.out
 58 61 0 0 0
SMALL
GASTEIGER

@<TRIPOS>ATOM
      1 C           1.2594   -0.0083   -0.9101 C.ar    1  LIG1        0.0213
      2 C           1.0241    1.0688   -0.0640 C.ar    1  LIG1        0.0842
      3 C          -0.3682    1.0015    0.3003 C.ar    1  LIG1        0.1620
      4 C          -0.9267   -0.1005   -0.3327 C.ar    1  LIG1        0.1077
      5 N           0.1018   -0.7137   -1.0433 N.ar    1  LIG1       -0.3554
      6 H          -0.0463   -1.4563   -1.7084 H       1  LIG1        0.1655
      7 H           2.1695   -0.3027   -1.4092 H       1  LIG1        0.0820
      8 C           2.0053    1.9894    0.3851 C.1     1  LIG1       -0.0645
      9 C           2.8531    2.7686    0.7607 C.1     1  LIG1       -0.1137
     10 H           3.6002    3.4452    1.1045 H       1  LIG1        0.1232
     11 O          -1.0386    1.7684    1.1984 O.3     1  LIG1       -0.4917
     12 C          -1.0040    3.1811    0.9687 C.3     1  LIG1        0.0789
     13 H          -1.5983    3.6285    1.7672 H       1  LIG1        0.0660
     14 H           0.0181    3.5679    1.0116 H       1  LIG1        0.0660
     15 H          -1.4542    3.4248    0.0001 H       1  LIG1        0.0660
     16 C          -2.2502   -0.6798   -0.2845 C.ar    1  LIG1        0.0862
     17 C          -3.5280   -0.0948   -0.2997 C.ar    1  LIG1        0.0937
     18 C          -4.4646   -1.1784   -0.2726 C.ar    1  LIG1        0.1627
     19 C          -3.7611   -2.3747   -0.2638 C.ar    1  LIG1        0.1082
     20 N          -2.4190   -2.0424   -0.2876 N.ar    1  LIG1       -0.3478
     21 H          -1.6882   -2.7256   -0.1337 H       1  LIG1        0.1661
     22 C          -3.8378    1.2794   -0.4417 C.1     1  LIG1       -0.0638
     23 C          -4.1453    2.4429   -0.5855 C.1     1  LIG1       -0.1137
     24 H          -4.4111    3.4652   -0.7205 H       1  LIG1        0.1232
     25 O          -5.8345   -1.1241   -0.3158 O.3     1  LIG1       -0.4917
     26 C          -6.4489   -0.3455    0.7251 C.3     1  LIG1        0.0789
     27 H          -7.5259   -0.4245    0.5665 H       1  LIG1        0.0660
     28 H          -6.1894   -0.7457    1.7120 H       1  LIG1        0.0660
     29 H          -6.1439    0.7017    0.6626 H       1  LIG1        0.0660
     30 C          -4.2383   -3.7296   -0.2443 C.ar    1  LIG1        0.0862
     31 C          -3.5528   -4.9485   -0.1260 C.ar    1  LIG1        0.0937
     32 C          -4.5425   -5.9873   -0.1369 C.ar    1  LIG1        0.1627
     33 C          -5.7973   -5.3922   -0.2526 C.ar    1  LIG1        0.1081
     34 N          -5.5670   -4.0175   -0.3420 N.ar    1  LIG1       -0.3478
     35 H          -6.2759   -3.2975   -0.3307 H       1  LIG1        0.1661
     36 C          -2.1518   -5.1214   -0.0378 C.1     1  LIG1       -0.0638
     37 C          -0.9456   -5.2401    0.0332 C.1     1  LIG1       -0.1137
     38 H           0.1044   -5.3960    0.1214 H       1  LIG1        0.1232
     39 O          -4.1627   -7.2833   -0.0684 O.3     1  LIG1       -0.4917
     40 C          -5.0057   -8.2746   -0.6535 C.3     1  LIG1        0.0789
     41 H          -4.3899   -9.1719   -0.7408 H       1  LIG1        0.0660
     42 H          -5.8718   -8.4880   -0.0229 H       1  LIG1        0.0660
     43 H          -5.3418   -7.9646   -1.6502 H       1  LIG1        0.0660
     44 C          -7.1635   -5.8840   -0.2989 C.ar    1  LIG1        0.0858
     45 C          -7.8834   -6.7306    0.5533 C.ar    1  LIG1        0.0930
     46 C          -9.2226   -6.7927    0.0377 C.ar    1  LIG1        0.1533
     47 C          -9.2972   -5.9862   -1.0781 C.ar    1  LIG1        0.0457
     48 N          -8.0416   -5.4290   -1.2553 N.ar    1  LIG1       -0.3554
     49 H          -7.7534   -4.9127   -2.0710 H       1  LIG1        0.1655
     50 H         -10.1147   -5.7560   -1.7408 H       1  LIG1        0.0845
     51 C          -7.4096   -7.3584    1.7302 C.1     1  LIG1       -0.0638
     52 C          -7.0046   -7.9018    2.7339 C.1     1  LIG1       -0.1137
     53 H          -6.6484   -8.3693    3.6218 H       1  LIG1        0.1232
     54 O         -10.1885   -7.5327    0.6366 O.3     1  LIG1       -0.4924
     55 C         -11.4659   -7.4765    0.0237 C.3     1  LIG1        0.0789
     56 H         -12.1242   -8.1127    0.6165 H       1  LIG1        0.0660
     57 H         -11.8593   -6.4507    0.0164 H       1  LIG1        0.0660
     58 H         -11.4297   -7.8511   -1.0086 H       1  LIG1        0.0660
@<TRIPOS>BOND
     1    49    48    1
     2    50    47    1
     3     6     5    1
     4    43    40    1
     5     7     1    1
     6    48    47   ar
     7    48    44   ar
     8    47    46   ar
     9     5     1   ar
    10     5     4   ar
    11    58    55    1
    12     1     2   ar
    13    41    40    1
    14    24    23    1
    15    40    39    1
    16    40    42    1
    17    23    22    3
    18    22    17    1
    19    34    35    1
    20    34    33   ar
    21    34    30   ar
    22     4    16    1
    23     4     3   ar
    24    25    18    1
    25    25    26    1
    26    17    16   ar
    27    17    18   ar
    28    44    33    1
    29    44    45   ar
    30    20    16   ar
    31    20    19   ar
    32    20    21    1
    33    18    19   ar
    34    19    30    1
    35    33    32   ar
    36    30    31   ar
    37    32    31   ar
    38    32    39    1
    39    31    36    1
    40     2     3   ar
    41     2     8    1
    42    36    37    3
    43    15    12    1
    44    57    55    1
    45    55    56    1
    46    55    54    1
    47    37    38    1
    48    46    45   ar
    49    46    54    1
    50     3    11    1
    51     8     9    3
    52    45    51    1
    53    27    26    1
    54    29    26    1
    55    26    28    1
    56     9    10    1
    57    12    14    1
    58    12    11    1
    59    12    13    1
    60    51    52    3
    61    52    53    1
