@<TRIPOS>MOLECULE
mol_data/opt/b3lyp/geoms/mol2/13el13el.out
 30 31 0 0 0
SMALL
GASTEIGER

@<TRIPOS>ATOM
      1 C           1.2837   -0.3523   -0.5841 C.ar    1  LIG1        0.0213
      2 C           1.0700    0.8980   -0.0181 C.ar    1  LIG1        0.0842
      3 C          -0.3394    0.9761    0.2743 C.ar    1  LIG1        0.1620
      4 C          -0.9286   -0.2145   -0.1213 C.ar    1  LIG1        0.1077
      5 N           0.0949   -1.0196   -0.6155 N.ar    1  LIG1       -0.3554
      6 H          -0.0703   -1.8749   -1.1221 H       1  LIG1        0.1655
      7 H           2.1973   -0.7928   -0.9524 H       1  LIG1        0.0820
      8 C           2.0740    1.8587    0.2662 C.1     1  LIG1       -0.0645
      9 C           2.9376    2.6737    0.5049 C.1     1  LIG1       -0.1137
     10 H           3.6977    3.3854    0.7284 H       1  LIG1        0.1232
     11 O          -1.0009    1.9641    0.9325 O.3     1  LIG1       -0.4917
     12 C          -0.9279    3.2646    0.3365 C.3     1  LIG1        0.0789
     13 H          -1.5226    3.9203    0.9750 H       1  LIG1        0.0660
     14 H           0.1031    3.6286    0.2975 H       1  LIG1        0.0660
     15 H          -1.3580    3.2496   -0.6706 H       1  LIG1        0.0660
     16 C          -2.2893   -0.7035   -0.0193 C.ar    1  LIG1        0.0857
     17 C          -3.5172   -0.1192   -0.3469 C.ar    1  LIG1        0.0930
     18 C          -4.5313   -1.0984   -0.0435 C.ar    1  LIG1        0.1533
     19 C          -3.9087   -2.2241    0.4399 C.ar    1  LIG1        0.0457
     20 N          -2.5497   -1.9825    0.4225 N.ar    1  LIG1       -0.3554
     21 H          -1.8624   -2.5560    0.8853 H       1  LIG1        0.1655
     22 H          -4.3243   -3.1654    0.7625 H       1  LIG1        0.0845
     23 C          -3.7246    1.1406   -0.9595 C.1     1  LIG1       -0.0638
     24 C          -3.9388    2.2059   -1.4964 C.1     1  LIG1       -0.1137
     25 H          -4.1278    3.1346   -1.9817 H       1  LIG1        0.1232
     26 O          -5.8734   -0.9990   -0.2667 O.3     1  LIG1       -0.4924
     27 C          -6.5334    0.0397    0.4629 C.3     1  LIG1        0.0789
     28 H          -7.5875   -0.0152    0.1840 H       1  LIG1        0.0660
     29 H          -6.4332   -0.1175    1.5445 H       1  LIG1        0.0660
     30 H          -6.1388    1.0268    0.2027 H       1  LIG1        0.0660
@<TRIPOS>BOND
     1    25    24    1
     2    24    23    3
     3     6     5    1
     4    23    17    1
     5     7     1    1
     6    15    12    1
     7     5     1   ar
     8     5     4   ar
     9     1     2   ar
    10    17    18   ar
    11    17    16   ar
    12    26    18    1
    13    26    27    1
    14     4    16    1
    15     4     3   ar
    16    18    19   ar
    17    16    20   ar
    18     2     8    1
    19     2     3   ar
    20    28    27    1
    21    30    27    1
    22     8     9    3
    23     3    11    1
    24    14    12    1
    25    12    11    1
    26    12    13    1
    27    20    19   ar
    28    20    21    1
    29    19    22    1
    30    27    29    1
    31     9    10    1
