@<TRIPOS>MOLECULE
mol_data/opt/b3lyp/geoms/mol2/13el13id6eh4df-.out
 53 56 0 0 0
SMALL
GASTEIGER

@<TRIPOS>ATOM
      1 C           0.8014    0.2260    1.8984 C.ar    1  LIG1        0.0213
      2 C           0.7599    1.2817    0.9971 C.ar    1  LIG1        0.0842
      3 C          -0.4983    1.1728    0.3065 C.ar    1  LIG1        0.1620
      4 C          -1.1744    0.0688    0.8043 C.ar    1  LIG1        0.1066
      5 N          -0.3478   -0.4975    1.7693 N.ar    1  LIG1       -0.3554
      6 H          -0.6411   -1.2240    2.4036 H       1  LIG1        0.1655
      7 H           1.5636   -0.0357    2.6160 H       1  LIG1        0.0820
      8 C           1.7593    2.2726    0.8227 C.1     1  LIG1       -0.0645
      9 C           2.6137    3.1174    0.6716 C.1     1  LIG1       -0.1137
     10 H           3.3572    3.8707    0.5527 H       1  LIG1        0.1232
     11 O          -0.9893    1.9998   -0.6579 O.3     1  LIG1       -0.4917
     12 C          -0.2200    2.0599   -1.8654 C.3     1  LIG1        0.0789
     13 H          -0.7440    2.7548   -2.5239 H       1  LIG1        0.0660
     14 H           0.7922    2.4291   -1.6753 H       1  LIG1        0.0660
     15 H          -0.1673    1.0735   -2.3423 H       1  LIG1        0.0660
     16 C          -2.4566   -0.5105    0.4563 C.ar    1  LIG1        0.0712
     17 C          -3.6842    0.0776    0.1796 C.ar    1  LIG1       -0.0057
     18 C          -4.5940   -0.9971   -0.0678 C.ar    1  LIG1        0.0806
     19 C          -3.9069   -2.2213    0.0709 C.ar    1  LIG1        0.0675
     20 N          -2.6203   -1.8801    0.3923 N.ar    1  LIG1       -0.3516
     21 H          -1.8684   -2.5573    0.4317 H       1  LIG1        0.1660
     22 C          -4.0165    1.5372    0.1676 C.3     1  LIG1       -0.0364
     23 H          -5.0704    1.6975    0.4109 H       1  LIG1        0.0279
     24 H          -3.8253    1.9858   -0.8128 H       1  LIG1        0.0279
     25 H          -3.4025    2.0821    0.8890 H       1  LIG1        0.0279
     26 N          -7.0828   -0.6080   -0.6419 N.1     1  LIG1       -0.1908
     27 C          -5.9614   -0.8005   -0.3869 C.1     1  LIG1        0.1016
     28 C          -3.4875   -4.7366   -0.1190 C.ar    1  LIG1        0.1231
     29 C          -4.3592   -3.6067   -0.0570 C.ar    1  LIG1        0.0352
     30 C          -5.7274   -3.8867   -0.1250 C.ar    1  LIG1       -0.0271
     31 C          -6.2184   -5.1933   -0.2377 C.ar    1  LIG1        0.0516
     32 C          -5.2614   -6.2467   -0.2186 C.ar    1  LIG1        0.0943
     33 N          -3.9548   -5.9924   -0.1932 N.ar    1  LIG1       -0.2359
     34 H          -6.4443   -3.0753   -0.1035 H       1  LIG1        0.0644
     35 C          -2.0544   -4.6520   -0.1220 C.1     1  LIG1       -0.0491
     36 C          -0.8423   -4.6186   -0.1236 C.1     1  LIG1       -0.1124
     37 H           0.2232   -4.6172   -0.1542 H       1  LIG1        0.1232
     38 N          -7.5636   -5.4027   -0.4372 N.pl3   1  LIG1       -0.3563
     39 H          -8.1780   -4.6398   -0.1910 H       1  LIG1        0.1424
     40 H          -7.9420   -6.3097   -0.2151 H       1  LIG1        0.1424
     41 C          -6.5036   -8.3373    0.5962 C.ar    1  LIG1        0.0612
     42 C          -6.7681   -9.7149    0.4557 C.ar    1  LIG1       -0.0403
     43 C          -5.6209   -7.6937   -0.3053 C.ar    1  LIG1        0.0230
     44 C          -6.1701  -10.4582   -0.5467 C.ar    1  LIG1       -0.0189
     45 H          -7.4416  -10.1940    1.1582 H       1  LIG1        0.0632
     46 C          -5.0099   -8.4635   -1.2984 C.ar    1  LIG1       -0.0097
     47 C          -5.2758   -9.8291   -1.4246 C.ar    1  LIG1        0.1176
     48 H          -4.3083   -7.9768   -1.9698 H       1  LIG1        0.0661
     49 H          -6.3680  -11.5180   -0.6605 H       1  LIG1        0.0654
     50 N          -7.6094   -7.0941    2.5890 N.1     1  LIG1       -0.1908
     51 C          -7.0998   -7.6418    1.6965 C.1     1  LIG1        0.0998
     52 O          -4.7011  -10.5994   -2.3838 O.3     1  LIG1       -0.5067
     53 H          -4.0970  -10.0604   -2.9126 H       1  LIG1        0.2921
@<TRIPOS>BOND
     1    53    52    1
     2    13    12    1
     3    52    47    1
     4    15    12    1
     5    48    46    1
     6    12    14    1
     7    12    11    1
     8    47    46   ar
     9    47    44   ar
    10    46    43   ar
    11    24    22    1
    12    49    44    1
    13    11     3    1
    14    26    27    3
    15    44    42   ar
    16    38    31    1
    17    38    40    1
    18    38    39    1
    19    27    18    1
    20    43    32    1
    21    43    41   ar
    22    31    32   ar
    23    31    30   ar
    24    32    33   ar
    25    33    28   ar
    26    37    36    1
    27    30    34    1
    28    30    29   ar
    29    36    35    3
    30    35    28    1
    31    28    29   ar
    32    18    19   ar
    33    18    17   ar
    34    29    19    1
    35    19    20   ar
    36    22    17    1
    37    22    23    1
    38    22    25    1
    39    17    16   ar
    40     3     4   ar
    41     3     2   ar
    42    20    21    1
    43    20    16   ar
    44    42    41   ar
    45    42    45    1
    46    16     4    1
    47    10     9    1
    48    41    51    1
    49     9     8    3
    50     4     5   ar
    51     8     2    1
    52     2     1   ar
    53    51    50    3
    54     5     1   ar
    55     5     6    1
    56     1     7    1
