@<TRIPOS>MOLECULE
mol_data/opt/b3lyp/geoms/mol2/13el13el13el13el-.out
 58 61 0 0 0
SMALL
GASTEIGER

@<TRIPOS>ATOM
      1 C           0.7719    0.2558   -2.1991 C.ar    1  LIG1        0.0213
      2 C           0.9482    1.0387   -1.0654 C.ar    1  LIG1        0.0842
      3 C          -0.2485    0.8863   -0.2766 C.ar    1  LIG1        0.1620
      4 C          -1.1027    0.0273   -0.9507 C.ar    1  LIG1        0.1077
      5 N          -0.4377   -0.3669   -2.1100 N.ar    1  LIG1       -0.3554
      6 H          -0.8876   -0.8525   -2.8702 H       1  LIG1        0.1655
      7 H           1.4297    0.1091   -3.0418 H       1  LIG1        0.0820
      8 C           2.1166    1.7757   -0.7438 C.1     1  LIG1       -0.0645
      9 C           3.1180    2.4026   -0.4772 C.1     1  LIG1       -0.1137
     10 H           4.0035    2.9426   -0.2350 H       1  LIG1        0.1232
     11 O          -0.4927    1.3687    0.9698 O.3     1  LIG1       -0.4917
     12 C          -0.4353    2.7934    1.1090 C.3     1  LIG1        0.0789
     13 H          -0.6569    3.0006    2.1573 H       1  LIG1        0.0660
     14 H           0.5582    3.1788    0.8618 H       1  LIG1        0.0660
     15 H          -1.1910    3.2703    0.4760 H       1  LIG1        0.0660
     16 C          -2.3991   -0.5162   -0.6000 C.ar    1  LIG1        0.0862
     17 C          -3.5736    0.0969   -0.1444 C.ar    1  LIG1        0.0937
     18 C          -4.5598   -0.9389   -0.0170 C.ar    1  LIG1        0.1627
     19 C          -3.9858   -2.1433   -0.4011 C.ar    1  LIG1        0.1082
     20 N          -2.6737   -1.8535   -0.7537 N.ar    1  LIG1       -0.3478
     21 H          -2.0000   -2.5398   -1.0559 H       1  LIG1        0.1661
     22 C          -3.7847    1.4819    0.0628 C.1     1  LIG1       -0.0638
     23 C          -4.0044    2.6610    0.2356 C.1     1  LIG1       -0.1137
     24 H          -4.2062    3.6976    0.3728 H       1  LIG1        0.1232
     25 O          -5.8537   -0.8002    0.3759 O.3     1  LIG1       -0.4917
     26 C          -6.0396   -0.3222    1.7126 C.3     1  LIG1        0.0789
     27 H          -7.1187   -0.2859    1.8721 H       1  LIG1        0.0660
     28 H          -5.5858   -1.0082    2.4387 H       1  LIG1        0.0660
     29 H          -5.6162    0.6783    1.8436 H       1  LIG1        0.0660
     30 C          -4.4915   -3.4969   -0.4239 C.ar    1  LIG1        0.0862
     31 C          -5.7325   -4.0215   -0.8223 C.ar    1  LIG1        0.0937
     32 C          -5.6376   -5.4416   -0.6566 C.ar    1  LIG1        0.1627
     33 C          -4.3673   -5.7520   -0.1916 C.ar    1  LIG1        0.1081
     34 N          -3.6855   -4.5552   -0.0769 N.ar    1  LIG1       -0.3478
     35 H          -2.7903   -4.4869    0.3906 H       1  LIG1        0.1661
     36 C          -6.8121   -3.3037   -1.3919 C.1     1  LIG1       -0.0638
     37 C          -7.7401   -2.7102   -1.8953 C.1     1  LIG1       -0.1137
     38 H          -8.5406   -2.1666   -2.3398 H       1  LIG1        0.1232
     39 O          -6.5681   -6.4029   -0.9611 O.3     1  LIG1       -0.4917
     40 C          -7.8528   -6.2330   -0.3416 C.3     1  LIG1        0.0789
     41 H          -8.4619   -7.0769   -0.6709 H       1  LIG1        0.0660
     42 H          -7.7613   -6.2465    0.7511 H       1  LIG1        0.0660
     43 H          -8.3197   -5.2974   -0.6579 H       1  LIG1        0.0660
     44 C          -3.7778   -7.0253    0.1221 C.ar    1  LIG1        0.0858
     45 C          -2.5200   -7.3497    0.6586 C.ar    1  LIG1        0.0930
     46 C          -2.4809   -8.7808    0.7564 C.ar    1  LIG1        0.1533
     47 C          -3.6803   -9.2793    0.2897 C.ar    1  LIG1        0.0457
     48 N          -4.4514   -8.1942   -0.0881 N.ar    1  LIG1       -0.3554
     49 H          -5.3741   -8.2128   -0.4975 H       1  LIG1        0.1655
     50 H          -4.0442  -10.2886    0.1942 H       1  LIG1        0.0845
     51 C          -1.5038   -6.4416    1.0359 C.1     1  LIG1       -0.0638
     52 C          -0.6469   -5.6402    1.3494 C.1     1  LIG1       -0.1137
     53 H           0.1267   -4.9745    1.6552 H       1  LIG1        0.1232
     54 O          -1.3988   -9.4381    1.2432 O.3     1  LIG1       -0.4924
     55 C          -1.5126  -10.8512    1.2815 C.3     1  LIG1        0.0789
     56 H          -0.5761  -11.2281    1.6944 H       1  LIG1        0.0660
     57 H          -2.3472  -11.1658    1.9229 H       1  LIG1        0.0660
     58 H          -1.6608  -11.2662    0.2751 H       1  LIG1        0.0660
@<TRIPOS>BOND
     1     7     1    1
     2     6     5    1
     3    38    37    1
     4     1     5   ar
     5     1     2   ar
     6     5     4   ar
     7    37    36    3
     8    36    31    1
     9     2     8    1
    10     2     3   ar
    11    21    20    1
    12    39    32    1
    13    39    40    1
    14     4    16    1
    15     4     3   ar
    16    31    32   ar
    17    31    30   ar
    18    20    16   ar
    19    20    19   ar
    20     8     9    3
    21    41    40    1
    22    43    40    1
    23    32    33   ar
    24    16    17   ar
    25    49    48    1
    26     9    10    1
    27    30    19    1
    28    30    34   ar
    29    19    18   ar
    30    40    42    1
    31     3    11    1
    32    33    34   ar
    33    33    44    1
    34    17    18   ar
    35    17    22    1
    36    48    44   ar
    37    48    47   ar
    38    34    35    1
    39    18    25    1
    40    22    23    3
    41    44    45   ar
    42    50    47    1
    43    23    24    1
    44    58    55    1
    45    47    46   ar
    46    25    26    1
    47    15    12    1
    48    45    46   ar
    49    45    51    1
    50    46    54    1
    51    14    12    1
    52    11    12    1
    53    51    52    3
    54    12    13    1
    55    54    55    1
    56    55    56    1
    57    55    57    1
    58    52    53    1
    59    26    29    1
    60    26    27    1
    61    26    28    1
