@<TRIPOS>MOLECULE
mol_data/opt/b3lyp/geoms/mol2/13fa13fa-13fa.out
 29 31 0 0 0
SMALL
GASTEIGER

@<TRIPOS>ATOM
      1 C           1.2907   -0.2065    0.0195 C.ar    1  LIG1        0.0442
      2 C           0.8707    1.1083    0.0202 C.ar    1  LIG1        0.1347
      3 C          -0.5494    1.1244    0.0144 C.ar    1  LIG1        0.0067
      4 C          -0.9719   -0.2049    0.0103 C.ar    1  LIG1        0.0701
      5 N           0.1544   -0.9904    0.0134 N.ar    1  LIG1       -0.3564
      6 H           0.1205   -1.9982    0.0114 H       1  LIG1        0.1655
      7 H           2.2832   -0.6264    0.0226 H       1  LIG1        0.0844
      8 O           1.7258    2.1807    0.0256 O.3     1  LIG1       -0.5053
      9 H           1.1950    2.9859    0.0253 H       1  LIG1        0.2922
     10 H          -1.1842    2.0009    0.0136 H       1  LIG1        0.0676
     11 C          -2.2872   -0.7918    0.0039 C.ar    1  LIG1        0.1054
     12 C          -2.6742   -2.1282    0.0000 C.ar    1  LIG1        0.1441
     13 C          -4.0857   -2.2018   -0.0058 C.ar    1  LIG1        0.0074
     14 C          -4.5570   -0.8877   -0.0053 C.ar    1  LIG1        0.0705
     15 N          -3.4604   -0.0597    0.0005 N.ar    1  LIG1       -0.3488
     16 H          -3.5318    0.9466    0.0017 H       1  LIG1        0.1661
     17 O          -1.7589   -3.1578    0.0016 O.3     1  LIG1       -0.5046
     18 H          -2.2330   -3.9973    0.0007 H       1  LIG1        0.2922
     19 H          -4.6839   -3.1035   -0.0101 H       1  LIG1        0.0676
     20 C          -5.8915   -0.3474   -0.0097 C.ar    1  LIG1        0.1050
     21 C          -6.3246    0.9739   -0.0101 C.ar    1  LIG1        0.1434
     22 C          -7.7421    0.9946   -0.0152 C.ar    1  LIG1       -0.0021
     23 C          -8.1560   -0.3241   -0.0180 C.ar    1  LIG1        0.0058
     24 N          -7.0415   -1.1202   -0.0146 N.ar    1  LIG1       -0.3566
     25 H          -7.0469   -2.1262   -0.0152 H       1  LIG1        0.1655
     26 H          -9.1487   -0.7469   -0.0219 H       1  LIG1        0.0808
     27 O          -5.4453    2.0337   -0.0059 O.3     1  LIG1       -0.5046
     28 H          -5.9471    2.8571   -0.0067 H       1  LIG1        0.2922
     29 H          -8.3823    1.8661   -0.0169 H       1  LIG1        0.0669
@<TRIPOS>BOND
     1    26    23    1
     2    23    22   ar
     3    23    24   ar
     4    29    22    1
     5    25    24    1
     6    22    21   ar
     7    24    20   ar
     8    21    20   ar
     9    21    27    1
    10    19    13    1
    11    20    14    1
    12    28    27    1
    13    13    14   ar
    14    13    12   ar
    15    14    15   ar
    16    12    17    1
    17    12    11   ar
    18    15    16    1
    19    15    11   ar
    20    18    17    1
    21    11     4    1
    22     4     5   ar
    23     4     3   ar
    24     6     5    1
    25     5     1   ar
    26    10     3    1
    27     3     2   ar
    28     1     2   ar
    29     1     7    1
    30     2     8    1
    31     9     8    1
