@<TRIPOS>MOLECULE
mol_data/opt/b3lyp/geoms/mol2/13fa13fa13fa-13fa-.out
 38 41 0 0 0
SMALL
GASTEIGER

@<TRIPOS>ATOM
      1 C           1.2963   -0.2695   -0.3278 C.ar    1  LIG1        0.0442
      2 C           0.8651    1.0115   -0.5986 C.ar    1  LIG1        0.1347
      3 C          -0.5495    1.0478   -0.4683 C.ar    1  LIG1        0.0067
      4 C          -0.9617   -0.2316   -0.1128 C.ar    1  LIG1        0.0701
      5 N           0.1657   -1.0268   -0.0603 N.ar    1  LIG1       -0.3564
      6 H           0.1923   -1.9308    0.3824 H       1  LIG1        0.1655
      7 H           2.2870   -0.6937   -0.3254 H       1  LIG1        0.0844
      8 O           1.7014    2.0358   -0.9530 O.3     1  LIG1       -0.5053
      9 H           1.1710    2.8357   -1.0505 H       1  LIG1        0.2922
     10 H          -1.2052    1.8902   -0.6356 H       1  LIG1        0.0676
     11 C          -2.2791   -0.7537    0.1445 C.ar    1  LIG1        0.1054
     12 C          -3.4636   -0.1138    0.4697 C.ar    1  LIG1        0.1441
     13 C          -4.4861   -1.0896    0.6354 C.ar    1  LIG1        0.0074
     14 C          -3.9164   -2.3304    0.3972 C.ar    1  LIG1        0.0705
     15 N          -2.5601   -2.1284    0.1420 N.ar    1  LIG1       -0.3488
     16 H          -2.0685   -2.7520   -0.4845 H       1  LIG1        0.1661
     17 O          -3.5639    1.2398    0.6255 O.3     1  LIG1       -0.5046
     18 H          -4.4493    1.4490    0.9468 H       1  LIG1        0.2922
     19 H          -5.5017   -0.9095    0.9625 H       1  LIG1        0.0676
     20 C          -4.4639   -3.6599    0.3965 C.ar    1  LIG1        0.1055
     21 C          -3.8458   -4.8745    0.6714 C.ar    1  LIG1        0.1441
     22 C          -4.8078   -5.9100    0.5697 C.ar    1  LIG1        0.0074
     23 C          -6.0179   -5.3118    0.2273 C.ar    1  LIG1        0.0705
     24 N          -5.8085   -3.9469    0.1635 N.ar    1  LIG1       -0.3488
     25 H          -6.4107   -3.3262   -0.3556 H       1  LIG1        0.1661
     26 O          -2.5412   -5.0642    1.0364 O.3     1  LIG1       -0.5046
     27 H          -2.2031   -4.2176    1.3655 H       1  LIG1        0.2922
     28 H          -4.6554   -6.9482    0.8273 H       1  LIG1        0.0676
     29 C          -7.2949   -5.9129   -0.0663 C.ar    1  LIG1        0.1050
     30 C          -7.5753   -7.1174   -0.7017 C.ar    1  LIG1        0.1434
     31 C          -8.9843   -7.2530   -0.8088 C.ar    1  LIG1       -0.0021
     32 C          -9.5383   -6.1278   -0.2350 C.ar    1  LIG1        0.0058
     33 N          -8.5233   -5.3022    0.1801 N.ar    1  LIG1       -0.3566
     34 H          -8.6400   -4.5356    0.8234 H       1  LIG1        0.1655
     35 H         -10.5726   -5.8524   -0.0946 H       1  LIG1        0.0808
     36 O          -6.6770   -8.0162   -1.1941 O.3     1  LIG1       -0.5046
     37 H          -5.7965   -7.6130   -1.1481 H       1  LIG1        0.2922
     38 H          -9.5130   -8.0731   -1.2709 H       1  LIG1        0.0669
@<TRIPOS>BOND
     1    38    31    1
     2    36    37    1
     3    36    30    1
     4     9     8    1
     5     8     2    1
     6    31    30   ar
     7    31    32   ar
     8    30    29   ar
     9    10     3    1
    10     2     3   ar
    11     2     1   ar
    12    16    15    1
    13     3     4   ar
    14    25    24    1
    15     1     7    1
    16     1     5   ar
    17    32    35    1
    18    32    33   ar
    19     4     5   ar
    20     4    11    1
    21    29    33   ar
    22    29    23    1
    23     5     6    1
    24    15    11   ar
    25    15    14   ar
    26    11    12   ar
    27    24    23   ar
    28    24    20   ar
    29    33    34    1
    30    23    22   ar
    31    20    14    1
    32    20    21   ar
    33    14    13   ar
    34    12    17    1
    35    12    13   ar
    36    22    21   ar
    37    22    28    1
    38    17    18    1
    39    13    19    1
    40    21    26    1
    41    26    27    1
