@<TRIPOS>MOLECULE
mol_data/opt/b3lyp/geoms/mol2/13fa13fa-.out
 20 21 0 0 0
SMALL
GASTEIGER

@<TRIPOS>ATOM
      1 C           1.2277   -0.1885    0.0469 C.ar    1  LIG1        0.0442
      2 C           0.8035    1.1248    0.0432 C.ar    1  LIG1        0.1347
      3 C          -0.6170    1.1348    0.0207 C.ar    1  LIG1        0.0067
      4 C          -1.0337   -0.1957    0.0111 C.ar    1  LIG1        0.0700
      5 N           0.0946   -0.9762    0.0275 N.ar    1  LIG1       -0.3564
      6 H           0.0627   -1.9843    0.0238 H       1  LIG1        0.1655
      7 H           2.2215   -0.6050    0.0630 H       1  LIG1        0.0844
      8 O           1.6544    2.1998    0.0598 O.3     1  LIG1       -0.5053
      9 H           1.1225    3.0041    0.0488 H       1  LIG1        0.2922
     10 H          -1.2527    2.0110    0.0125 H       1  LIG1        0.0676
     11 C          -2.3465   -0.7942   -0.0120 C.ar    1  LIG1        0.1050
     12 C          -2.7233   -2.1315   -0.0217 C.ar    1  LIG1        0.1434
     13 C          -4.1390   -2.2119   -0.0459 C.ar    1  LIG1       -0.0021
     14 C          -4.6076   -0.9117   -0.0508 C.ar    1  LIG1        0.0058
     15 N          -3.5268   -0.0704   -0.0300 N.ar    1  LIG1       -0.3566
     16 H          -3.5727    0.9347   -0.0283 H       1  LIG1        0.1655
     17 H          -5.6168   -0.5303   -0.0668 H       1  LIG1        0.0808
     18 O          -1.8002   -3.1547   -0.0072 O.3     1  LIG1       -0.5046
     19 H          -2.2679   -3.9975   -0.0321 H       1  LIG1        0.2922
     20 H          -4.7421   -3.1095   -0.0581 H       1  LIG1        0.0669
@<TRIPOS>BOND
     1    17    14    1
     2    20    13    1
     3    14    13   ar
     4    14    15   ar
     5    13    12   ar
     6    19    18    1
     7    15    16    1
     8    15    11   ar
     9    12    11   ar
    10    12    18    1
    11    11     4    1
    12     4     3   ar
    13     4     5   ar
    14    10     3    1
    15     3     2   ar
    16     6     5    1
    17     5     1   ar
    18     2     1   ar
    19     2     8    1
    20     1     7    1
    21     9     8    1
