@<TRIPOS>MOLECULE
mol_data/opt/b3lyp/geoms/mol2/13fa13fa13fa13fa-.out
 38 41 0 0 0
SMALL
GASTEIGER

@<TRIPOS>ATOM
      1 C           1.2253   -0.0990    0.0283 C.ar    1  LIG1        0.0442
      2 C           0.7763    1.1729    0.3088 C.ar    1  LIG1        0.1347
      3 C          -0.6456    1.1589    0.3199 C.ar    1  LIG1        0.0067
      4 C          -1.0448   -0.1423    0.0389 C.ar    1  LIG1        0.0701
      5 N           0.1001   -0.9026   -0.1023 N.ar    1  LIG1       -0.3564
      6 H           0.1073   -1.8034   -0.5530 H       1  LIG1        0.1655
      7 H           2.2259   -0.4900   -0.0578 H       1  LIG1        0.0844
      8 O           1.6047    2.2362    0.5564 O.3     1  LIG1       -0.5053
      9 H           1.0541    3.0184    0.6814 H       1  LIG1        0.2922
     10 H          -1.3113    1.9831    0.5324 H       1  LIG1        0.0676
     11 C          -2.3574   -0.7215   -0.0821 C.ar    1  LIG1        0.1054
     12 C          -3.5904   -0.1486   -0.3523 C.ar    1  LIG1        0.1441
     13 C          -4.5760   -1.1695   -0.3891 C.ar    1  LIG1        0.0074
     14 C          -3.9342   -2.3714   -0.1277 C.ar    1  LIG1        0.0705
     15 N          -2.5784   -2.1024    0.0156 N.ar    1  LIG1       -0.3488
     16 H          -1.9978   -2.6713    0.6155 H       1  LIG1        0.1661
     17 O          -3.7623    1.1905   -0.5745 O.3     1  LIG1       -0.5046
     18 H          -4.6864    1.3410   -0.8078 H       1  LIG1        0.2922
     19 H          -5.6282   -1.0590   -0.6092 H       1  LIG1        0.0676
     20 C          -4.4534   -3.7063   -0.0155 C.ar    1  LIG1        0.1055
     21 C          -5.7502   -4.1649    0.2031 C.ar    1  LIG1        0.1441
     22 C          -5.7277   -5.5776    0.2809 C.ar    1  LIG1        0.0074
     23 C          -4.4029   -5.9771    0.1021 C.ar    1  LIG1        0.0705
     24 N          -3.6504   -4.8383   -0.0599 N.ar    1  LIG1       -0.3488
     25 H          -2.6870   -4.8670   -0.3597 H       1  LIG1        0.1661
     26 O          -6.8249   -3.3256    0.3237 O.3     1  LIG1       -0.5046
     27 H          -7.5921   -3.8474    0.5884 H       1  LIG1        0.2922
     28 H          -6.5799   -6.2234    0.4479 H       1  LIG1        0.0676
     29 C          -3.7874   -7.2767    0.0447 C.ar    1  LIG1        0.1050
     30 C          -2.4658   -7.6306   -0.2057 C.ar    1  LIG1        0.1434
     31 C          -2.3520   -9.0430   -0.1717 C.ar    1  LIG1       -0.0021
     32 C          -3.6153   -9.5334    0.1004 C.ar    1  LIG1        0.0058
     33 N          -4.4672   -8.4691    0.2313 N.ar    1  LIG1       -0.3566
     34 H          -5.4490   -8.5344    0.4415 H       1  LIG1        0.1655
     35 H          -3.9631  -10.5486    0.2129 H       1  LIG1        0.0808
     36 O          -1.4815   -6.6909   -0.4270 O.3     1  LIG1       -0.5046
     37 H          -0.7029   -7.1350   -0.7835 H       1  LIG1        0.2922
     38 H          -1.4568   -9.6301   -0.3236 H       1  LIG1        0.0669
@<TRIPOS>BOND
     1    18    17    1
     2    37    36    1
     3    19    13    1
     4    17    12    1
     5     6     5    1
     6    36    30    1
     7    13    12   ar
     8    13    14   ar
     9    25    24    1
    10    12    11   ar
    11    38    31    1
    12    30    31   ar
    13    30    29   ar
    14    31    32   ar
    15    14    20    1
    16    14    15   ar
    17     5     1   ar
    18     5     4   ar
    19    11    15   ar
    20    11     4    1
    21    24    20   ar
    22    24    23   ar
    23     7     1    1
    24    20    21   ar
    25    15    16    1
    26     1     2   ar
    27     4     3   ar
    28    29    23    1
    29    29    33   ar
    30    32    35    1
    31    32    33   ar
    32    23    22   ar
    33    21    22   ar
    34    21    26    1
    35    33    34    1
    36    22    28    1
    37     2     3   ar
    38     2     8    1
    39     3    10    1
    40    26    27    1
    41     8     9    1
