@<TRIPOS>MOLECULE
mol_data/opt/b3lyp/geoms/mol2/13fa13fa13fa-13fa.out
 38 41 0 0 0
SMALL
GASTEIGER

@<TRIPOS>ATOM
      1 C           1.2456   -0.1702   -0.4338 C.ar    1  LIG1        0.0442
      2 C           0.7800    1.1237   -0.5279 C.ar    1  LIG1        0.1347
      3 C          -0.6238    1.1154   -0.3071 C.ar    1  LIG1        0.0067
      4 C          -0.9952   -0.2047   -0.0766 C.ar    1  LIG1        0.0701
      5 N           0.1442   -0.9764   -0.1857 N.ar    1  LIG1       -0.3564
      6 H           0.2104   -1.9251    0.1452 H       1  LIG1        0.1655
      7 H           2.2399   -0.5713   -0.5429 H       1  LIG1        0.0844
      8 O           1.5776    2.2004   -0.8122 O.3     1  LIG1       -0.5053
      9 H           1.0277    2.9928   -0.7897 H       1  LIG1        0.2922
     10 H          -1.3006    1.9573   -0.3340 H       1  LIG1        0.0676
     11 C          -2.2860   -0.7799    0.2005 C.ar    1  LIG1        0.1054
     12 C          -3.4581   -0.2034    0.6607 C.ar    1  LIG1        0.1441
     13 C          -4.4532   -1.2126    0.7852 C.ar    1  LIG1        0.0074
     14 C          -3.8807   -2.4096    0.3839 C.ar    1  LIG1        0.0705
     15 N          -2.5456   -2.1528    0.0715 N.ar    1  LIG1       -0.3488
     16 H          -2.0848   -2.7004   -0.6431 H       1  LIG1        0.1661
     17 O          -3.5704    1.1247    0.9642 O.3     1  LIG1       -0.5046
     18 H          -4.4398    1.2778    1.3537 H       1  LIG1        0.2922
     19 H          -5.4505   -1.0876    1.1859 H       1  LIG1        0.0676
     20 C          -4.4075   -3.7424    0.2743 C.ar    1  LIG1        0.1055
     21 C          -3.7428   -4.9671    0.3463 C.ar    1  LIG1        0.1441
     22 C          -4.6871   -6.0061    0.2080 C.ar    1  LIG1        0.0074
     23 C          -5.9357   -5.4016    0.0561 C.ar    1  LIG1        0.0705
     24 N          -5.7508   -4.0411    0.1166 N.ar    1  LIG1       -0.3488
     25 H          -6.4917   -3.3754   -0.0452 H       1  LIG1        0.1661
     26 O          -2.3969   -5.1535    0.5351 O.3     1  LIG1       -0.5046
     27 H          -2.0567   -4.3664    0.9865 H       1  LIG1        0.2922
     28 H          -4.4691   -7.0639    0.2326 H       1  LIG1        0.0676
     29 C          -7.2485   -5.9571   -0.1462 C.ar    1  LIG1        0.1050
     30 C          -8.4748   -5.3242   -0.3180 C.ar    1  LIG1        0.1434
     31 C          -9.4802   -6.3081   -0.4921 C.ar    1  LIG1       -0.0021
     32 C          -8.8464   -7.5350   -0.4241 C.ar    1  LIG1        0.0058
     33 N          -7.5121   -7.3152   -0.2140 N.ar    1  LIG1       -0.3566
     34 H          -6.8112   -8.0320   -0.1263 H       1  LIG1        0.1655
     35 H          -9.2452   -8.5342   -0.5068 H       1  LIG1        0.0808
     36 O          -8.6023   -3.9531   -0.2979 O.3     1  LIG1       -0.5046
     37 H          -9.4999   -3.7189   -0.5620 H       1  LIG1        0.2922
     38 H         -10.5375   -6.1417   -0.6455 H       1  LIG1        0.0669
@<TRIPOS>BOND
     1     8     9    1
     2     8     2    1
     3    38    31    1
     4    16    15    1
     5    37    36    1
     6     7     1    1
     7     2     1   ar
     8     2     3   ar
     9    35    32    1
    10    31    32   ar
    11    31    30   ar
    12     1     5   ar
    13    32    33   ar
    14    10     3    1
    15    30    36    1
    16    30    29   ar
    17     3     4   ar
    18    33    29   ar
    19    33    34    1
    20     5     4   ar
    21     5     6    1
    22    29    23    1
    23     4    11    1
    24    25    24    1
    25    23    24   ar
    26    23    22   ar
    27    15    11   ar
    28    15    14   ar
    29    24    20   ar
    30    11    12   ar
    31    22    28    1
    32    22    21   ar
    33    20    21   ar
    34    20    14    1
    35    21    26    1
    36    14    13   ar
    37    26    27    1
    38    12    13   ar
    39    12    17    1
    40    13    19    1
    41    17    18    1
