@<TRIPOS>MOLECULE
mol_data/opt/b3lyp/geoms/mol2/13fa13fa13fa13fa.out
 38 41 0 0 0
SMALL
GASTEIGER

@<TRIPOS>ATOM
      1 C           1.3033    0.1647   -0.0023 C.ar    1  LIG1        0.0442
      2 C           0.7431    1.4239   -0.0013 C.ar    1  LIG1        0.1347
      3 C          -0.6696    1.2903   -0.0001 C.ar    1  LIG1        0.0067
      4 C          -0.9591   -0.0732   -0.0004 C.ar    1  LIG1        0.0701
      5 N           0.2494   -0.7385   -0.0017 N.ar    1  LIG1       -0.3564
      6 H           0.3763   -1.7352   -0.0030 H       1  LIG1        0.1655
      7 H           2.3330   -0.1522   -0.0033 H       1  LIG1        0.0844
      8 O           1.4759    2.5819   -0.0013 O.3     1  LIG1       -0.5053
      9 H           0.8581    3.3228   -0.0005 H       1  LIG1        0.2922
     10 H          -1.4088    2.0774    0.0010 H       1  LIG1        0.0676
     11 C          -2.2399   -0.7317    0.0004 C.ar    1  LIG1        0.1054
     12 C          -3.5219   -0.1895    0.0011 C.ar    1  LIG1        0.1441
     13 C          -4.4707   -1.2347    0.0018 C.ar    1  LIG1        0.0074
     14 C          -3.7666   -2.4381    0.0015 C.ar    1  LIG1        0.0705
     15 N          -2.4227   -2.1150    0.0008 N.ar    1  LIG1       -0.3488
     16 H          -1.6713   -2.7813   -0.0004 H       1  LIG1        0.1661
     17 O          -3.7590    1.1594    0.0013 O.3     1  LIG1       -0.5046
     18 H          -4.7143    1.2954    0.0014 H       1  LIG1        0.2922
     19 H          -5.5471   -1.1506    0.0025 H       1  LIG1        0.0676
     20 C          -4.2709   -3.7834    0.0021 C.ar    1  LIG1        0.1055
     21 C          -5.5876   -4.2392    0.0017 C.ar    1  LIG1        0.1441
     22 C          -5.5919   -5.6505    0.0025 C.ar    1  LIG1        0.0074
     23 C          -4.2642   -6.0717    0.0035 C.ar    1  LIG1        0.0705
     24 N          -3.4811   -4.9337    0.0033 N.ar    1  LIG1       -0.3488
     25 H          -2.4768   -4.9298    0.0033 H       1  LIG1        0.1661
     26 O          -6.6653   -3.3952    0.0008 O.3     1  LIG1       -0.5046
     27 H          -7.4676   -3.9314    0.0000 H       1  LIG1        0.2922
     28 H          -6.4481   -6.3084    0.0025 H       1  LIG1        0.0676
     29 C          -3.7348   -7.4112    0.0047 C.ar    1  LIG1        0.1050
     30 C          -4.4085   -8.6304    0.0037 C.ar    1  LIG1        0.1434
     31 C          -3.4568   -9.6819    0.0056 C.ar    1  LIG1       -0.0021
     32 C          -2.2083   -9.0933    0.0077 C.ar    1  LIG1        0.0058
     33 N          -2.3813   -7.7334    0.0074 N.ar    1  LIG1       -0.3566
     34 H          -1.6238   -7.0727    0.0091 H       1  LIG1        0.1655
     35 H          -1.2234   -9.5336    0.0096 H       1  LIG1        0.0808
     36 O          -5.7749   -8.7249    0.0012 O.3     1  LIG1       -0.5046
     37 H          -6.0162   -9.6590    0.0001 H       1  LIG1        0.2922
     38 H          -3.6627  -10.7437    0.0055 H       1  LIG1        0.0669
@<TRIPOS>BOND
     1     7     1    1
     2     6     5    1
     3     1     5   ar
     4     1     2   ar
     5     5     4   ar
     6     8     2    1
     7     8     9    1
     8     2     3   ar
     9     4     3   ar
    10     4    11    1
    11    16    15    1
    12     3    10    1
    13    27    26    1
    14    37    36    1
    15    11    15   ar
    16    11    12   ar
    17    26    21    1
    18    15    14   ar
    19    12    17    1
    20    12    13   ar
    21    36    30    1
    22    17    18    1
    23    14    13   ar
    24    14    20    1
    25    21    20   ar
    26    21    22   ar
    27    13    19    1
    28    20    24   ar
    29    22    28    1
    30    22    23   ar
    31    25    24    1
    32    24    23   ar
    33    23    29    1
    34    30    29   ar
    35    30    31   ar
    36    29    33   ar
    37    38    31    1
    38    31    32   ar
    39    33    32   ar
    40    33    34    1
    41    32    35    1
