@<TRIPOS>MOLECULE
mol_data/opt/b3lyp/geoms/mol2/13fa6af-13di4ff-.out
 45 48 0 0 0
SMALL
GASTEIGER

@<TRIPOS>ATOM
      1 C           1.3302   -0.5590   -0.0053 C.ar    1  LIG1        0.0441
      2 C           1.0374    0.7098   -0.4701 C.ar    1  LIG1        0.1347
      3 C          -0.3716    0.8307   -0.5609 C.ar    1  LIG1        0.0052
      4 C          -0.9218   -0.3810   -0.1496 C.ar    1  LIG1        0.0516
      5 N           0.1300   -1.2131    0.1648 N.ar    1  LIG1       -0.3575
      6 H           0.0320   -2.1082    0.6150 H       1  LIG1        0.1654
      7 H           2.2783   -1.0261    0.2066 H       1  LIG1        0.0844
      8 O           1.9916    1.6354   -0.7862 O.3     1  LIG1       -0.5053
      9 H           1.5505    2.4502   -1.0554 H       1  LIG1        0.2922
     10 H          -0.9257    1.6827   -0.9308 H       1  LIG1        0.0675
     11 C          -2.6839   -2.1657   -0.0695 C.ar    1  LIG1        0.0377
     12 C          -2.3102   -0.8056   -0.0590 C.ar    1  LIG1        0.0200
     13 C          -3.3575    0.1132    0.0319 C.ar    1  LIG1       -0.0074
     14 C          -4.6900   -0.3011    0.1097 C.ar    1  LIG1        0.1448
     15 C          -4.9605   -1.6951    0.1255 C.ar    1  LIG1        0.1296
     16 N          -3.9368   -2.5773    0.0274 N.ar    1  LIG1       -0.2491
     17 H          -3.1679    1.1807    0.0563 H       1  LIG1        0.0662
     18 H          -1.9357   -2.9473   -0.1886 H       1  LIG1        0.0836
     19 O          -5.5900    0.7057    0.1426 O.3     1  LIG1       -0.5045
     20 H          -6.4961    0.4340    0.3570 H       1  LIG1        0.2922
     21 C          -6.2706   -2.3590    0.1921 C.ar    1  LIG1        0.0868
     22 C          -7.6167   -2.0015    0.4119 C.ar    1  LIG1        0.0821
     23 C          -8.4289   -3.1814    0.3253 C.ar    1  LIG1       -0.0070
     24 C          -7.5626   -4.2308    0.0576 C.ar    1  LIG1        0.0548
     25 N          -6.2886   -3.7070   -0.0040 N.ar    1  LIG1       -0.3515
     26 H          -5.4273   -4.1982   -0.2060 H       1  LIG1        0.1660
     27 N          -8.5539    0.3284    1.0066 N.1     1  LIG1       -0.1908
     28 C          -8.1279   -0.7253    0.7351 C.1     1  LIG1        0.1016
     29 C          -9.9097   -3.2338    0.5414 C.3     1  LIG1       -0.0365
     30 H         -10.2071   -4.1844    0.9918 H       1  LIG1        0.0279
     31 H         -10.4545   -3.1403   -0.4035 H       1  LIG1        0.0279
     32 H         -10.2356   -2.4248    1.2016 H       1  LIG1        0.0279
     33 C          -8.7854   -6.2137   -0.9004 C.ar    1  LIG1        0.1262
     34 C          -8.9365   -7.5999   -1.0044 C.ar    1  LIG1       -0.0161
     35 C          -7.7755   -5.6782   -0.0778 C.ar    1  LIG1        0.0434
     36 C          -8.0918   -8.4698   -0.3230 C.ar    1  LIG1       -0.0167
     37 H          -9.7194   -8.0044   -1.6424 H       1  LIG1        0.0655
     38 C          -6.9264   -6.5717    0.6008 C.ar    1  LIG1       -0.0076
     39 C          -7.0744   -7.9531    0.4837 C.ar    1  LIG1        0.1177
     40 H          -6.1585   -6.1654    1.2555 H       1  LIG1        0.0662
     41 H          -8.2093   -9.5446   -0.4062 H       1  LIG1        0.0655
     42 O          -9.5766   -5.3437   -1.6037 O.3     1  LIG1       -0.5061
     43 H         -10.2045   -5.8511   -2.1339 H       1  LIG1        0.2922
     44 O          -6.2698   -8.8473    1.1385 O.3     1  LIG1       -0.5067
     45 H          -5.6270   -8.3636    1.6730 H       1  LIG1        0.2921
@<TRIPOS>BOND
     1    43    42    1
     2    37    34    1
     3    42    33    1
     4     9     8    1
     5    34    33   ar
     6    34    36   ar
     7    10     3    1
     8    33    35   ar
     9     8     2    1
    10     3     2   ar
    11     3     4   ar
    12     2     1   ar
    13    41    36    1
    14    31    29    1
    15    36    39   ar
    16    26    25    1
    17    18    11    1
    18     4    12    1
    19     4     5   ar
    20    35    24    1
    21    35    38   ar
    22    11    12   ar
    23    11    16   ar
    24    12    13   ar
    25     1     5   ar
    26     1     7    1
    27    25    24   ar
    28    25    21   ar
    29    16    15   ar
    30    13    17    1
    31    13    14   ar
    32    24    23   ar
    33    14    15   ar
    34    14    19    1
    35    15    21    1
    36    19    20    1
    37     5     6    1
    38    21    22   ar
    39    23    22   ar
    40    23    29    1
    41    22    28    1
    42    39    38   ar
    43    39    44    1
    44    29    30    1
    45    29    32    1
    46    38    40    1
    47    28    27    3
    48    44    45    1
