@<TRIPOS>MOLECULE
mol_data/opt/b3lyp/geoms/mol2/13fa4la-6fe-4aa-.out
 47 50 0 0 0
SMALL
GASTEIGER

@<TRIPOS>ATOM
      1 C           1.4505   -0.1426    0.8949 C.ar    1  LIG1        0.0441
      2 C           1.3140    0.6964   -0.1947 C.ar    1  LIG1        0.1347
      3 C          -0.0147    0.5855   -0.6744 C.ar    1  LIG1        0.0053
      4 C          -0.6751   -0.3399    0.1325 C.ar    1  LIG1        0.0535
      5 N           0.2406   -0.7779    1.0668 N.ar    1  LIG1       -0.3575
      6 H           0.0107   -1.3500    1.8625 H       1  LIG1        0.1654
      7 H           2.2946   -0.3234    1.5406 H       1  LIG1        0.0844
      8 O           2.3274    1.4750   -0.6813 O.3     1  LIG1       -0.5053
      9 H           1.9997    1.9504   -1.4543 H       1  LIG1        0.2922
     10 H          -0.4469    1.0806   -1.5305 H       1  LIG1        0.0675
     11 C          -3.1030   -0.1898   -0.5268 C.ar    1  LIG1        0.1297
     12 C          -4.3838   -0.7319   -0.5667 C.ar    1  LIG1       -0.0114
     13 C          -2.0290   -0.8834    0.0806 C.ar    1  LIG1        0.0401
     14 C          -4.6720   -1.9826    0.0021 C.ar    1  LIG1       -0.0093
     15 H          -5.1591   -0.1673   -1.0749 H       1  LIG1        0.0660
     16 C          -2.3281   -2.1429    0.6352 C.ar    1  LIG1       -0.0485
     17 C          -3.6117   -2.6785    0.6114 C.ar    1  LIG1       -0.0530
     18 H          -1.5296   -2.7317    1.0773 H       1  LIG1        0.0625
     19 O          -2.8947    1.0292   -1.1395 O.3     1  LIG1       -0.4944
     20 C          -3.0882    2.1596   -0.2834 C.3     1  LIG1        0.0788
     21 H          -2.9240    3.0458   -0.8993 H       1  LIG1        0.0660
     22 H          -4.1098    2.1803    0.1160 H       1  LIG1        0.0660
     23 H          -2.3727    2.1566    0.5468 H       1  LIG1        0.0660
     24 H          -3.7956   -3.6373    1.0879 H       1  LIG1        0.0624
     25 C          -6.3309   -3.8684   -0.4252 C.ar    1  LIG1        0.2208
     26 C          -6.0485   -2.5339   -0.0321 C.ar    1  LIG1        0.0448
     27 C          -7.1571   -1.7601    0.2912 C.ar    1  LIG1       -0.0315
     28 C          -8.4627   -2.2851    0.2778 C.ar    1  LIG1        0.0514
     29 C          -8.6090   -3.6573   -0.0570 C.ar    1  LIG1        0.0901
     30 N          -7.5442   -4.3914   -0.4199 N.ar    1  LIG1       -0.2113
     31 H          -7.0185   -0.7221    0.5757 H       1  LIG1        0.0638
     32 O          -5.3606   -4.7133   -0.8514 O.3     1  LIG1       -0.4920
     33 H          -4.5281   -4.2217   -0.9219 H       1  LIG1        0.2937
     34 C          -9.5429   -1.3951    0.5603 C.1     1  LIG1       -0.0675
     35 C         -10.4007   -0.5730    0.7948 C.1     1  LIG1       -0.1138
     36 H         -11.1786    0.1274    0.9927 H       1  LIG1        0.1232
     37 C         -10.9434   -4.0939    0.8334 C.ar    1  LIG1       -0.0525
     38 C         -12.1299   -4.8256    0.8067 C.ar    1  LIG1       -0.0611
     39 C          -9.9056   -4.3853   -0.0662 C.ar    1  LIG1        0.0017
     40 C         -12.3031   -5.8546   -0.1192 C.ar    1  LIG1       -0.0617
     41 H         -12.9183   -4.5932    1.5168 H       1  LIG1        0.0618
     42 C         -10.0828   -5.4390   -0.9802 C.ar    1  LIG1       -0.0525
     43 C         -11.2731   -6.1594   -1.0122 C.ar    1  LIG1       -0.0611
     44 H          -9.2706   -5.6810   -1.6559 H       1  LIG1        0.0624
     45 H         -13.2308   -6.4193   -0.1412 H       1  LIG1        0.0618
     46 H         -10.8190   -3.3066    1.5663 H       1  LIG1        0.0624
     47 H         -11.3965   -6.9629   -1.7326 H       1  LIG1        0.0618
@<TRIPOS>BOND
     1    47    43    1
     2    44    42    1
     3    10     3    1
     4     9     8    1
     5    19    11    1
     6    19    20    1
     7    15    12    1
     8    43    42   ar
     9    43    40   ar
    10    42    39   ar
    11    33    32    1
    12    21    20    1
    13    32    25    1
    14     8     2    1
    15     3     2   ar
    16     3     4   ar
    17    12    11   ar
    18    12    14   ar
    19    11    13   ar
    20    25    30   ar
    21    25    26   ar
    22    30    29   ar
    23    20    22    1
    24    20    23    1
    25     2     1   ar
    26    45    40    1
    27    40    38   ar
    28    39    29    1
    29    39    37   ar
    30    29    28   ar
    31    26    14    1
    32    26    27   ar
    33    14    17   ar
    34    13     4    1
    35    13    16   ar
    36     4     5   ar
    37    28    27   ar
    38    28    34    1
    39    27    31    1
    40    34    35    3
    41    17    16   ar
    42    17    24    1
    43    16    18    1
    44    35    36    1
    45    38    37   ar
    46    38    41    1
    47    37    46    1
    48     1     5   ar
    49     1     7    1
    50     5     6    1
