@<TRIPOS>MOLECULE
mol_data/opt/b3lyp/geoms/mol2/13fa12fa6hi-12ae-13hi-4fh12hl-4fe-.out
 94 101 0 0 0
SMALL
GASTEIGER

@<TRIPOS>ATOM
      1 C           2.1248   -0.8602    1.3456 C.ar    1  LIG1        0.0442
      2 C           1.8970    0.4522    0.9712 C.ar    1  LIG1        0.1348
      3 C           0.5597    0.5638    0.5124 C.ar    1  LIG1        0.0083
      4 C          -0.0107   -0.7029    0.6206 C.ar    1  LIG1        0.0893
      5 N           0.9496   -1.5512    1.1170 N.ar    1  LIG1       -0.3551
      6 H           0.7778   -2.5126    1.3636 H       1  LIG1        0.1655
      7 H           2.9956   -1.3289    1.7743 H       1  LIG1        0.0844
      8 O           2.8461    1.4349    1.0478 O.3     1  LIG1       -0.5053
      9 H           2.4459    2.2632    0.7572 H       1  LIG1        0.2922
     10 H           0.0608    1.4451    0.1356 H       1  LIG1        0.0676
     11 C          -1.3287   -1.1721    0.3065 C.ar    1  LIG1        0.1930
     12 C          -2.5177   -0.5667   -0.0298 C.ar    1  LIG1        0.1647
     13 C          -3.4893   -1.5928   -0.2002 C.ar    1  LIG1        0.0266
     14 C          -2.8548   -2.7909    0.0459 C.ar    1  LIG1        0.1427
     15 O          -1.5379   -2.5345    0.3491 O.2     1  LIG1       -0.4495
     16 O          -2.6653    0.7815   -0.1710 O.3     1  LIG1       -0.5032
     17 H          -3.5954    0.9779   -0.3361 H       1  LIG1        0.2923
     18 H          -4.5219   -1.4623   -0.4917 H       1  LIG1        0.0692
     19 C          -2.4362   -5.2998   -0.0377 C.ar    1  LIG1        0.1277
     20 C          -3.3055   -4.1685    0.0325 C.ar    1  LIG1        0.0571
     21 C          -4.6780   -4.4583    0.0551 C.ar    1  LIG1       -0.0427
     22 C          -5.1840   -5.7527    0.0026 C.ar    1  LIG1       -0.0207
     23 C          -4.2261   -6.7946   -0.0798 C.ar    1  LIG1        0.1110
     24 N          -2.9027   -6.5460   -0.0989 N.ar    1  LIG1       -0.2284
     25 H          -5.3806   -3.6328    0.1336 H       1  LIG1        0.0629
     26 N          -1.0619   -5.1916   -0.0179 N.pl3   1  LIG1       -0.3426
     27 H          -0.5879   -6.0338   -0.3111 H       1  LIG1        0.1437
     28 H          -0.6531   -4.3165   -0.3043 H       1  LIG1        0.1437
     29 C          -6.6719   -5.9863    0.0418 C.3     1  LIG1       -0.0376
     30 H          -6.9617   -6.6300    0.8805 H       1  LIG1        0.0278
     31 H          -7.0354   -6.4656   -0.8752 H       1  LIG1        0.0278
     32 H          -7.2059   -5.0385    0.1516 H       1  LIG1        0.0278
     33 C          -4.5722   -8.2082   -0.1554 C.ar    1  LIG1        0.1554
     34 C          -5.7155   -8.9663   -0.2187 C.ar    1  LIG1        0.0018
     35 C          -5.3266  -10.3452   -0.3020 C.ar    1  LIG1        0.0725
     36 C          -3.9286  -10.3509   -0.2792 C.ar    1  LIG1        0.1689
     37 O          -3.4927   -9.0639   -0.1913 O.2     1  LIG1       -0.4505
     38 H          -6.7351   -8.6203   -0.2193 H       1  LIG1        0.0668
     39 C          -6.2203  -11.4358   -0.4220 C.1     1  LIG1       -0.0658
     40 C          -7.0275  -12.3350   -0.5343 C.1     1  LIG1       -0.1138
     41 H          -7.7410  -13.1215   -0.6171 H       1  LIG1        0.1232
     42 C          -2.8628  -11.2966   -0.3368 C.ar    1  LIG1        0.1049
     43 C          -2.7506  -12.6985   -0.3587 C.ar    1  LIG1        0.0568
     44 C          -1.3640  -13.0249   -0.4066 C.ar    1  LIG1       -0.0037
     45 C          -0.6539  -11.8210   -0.3974 C.ar    1  LIG1        0.0553
     46 N          -1.5654  -10.8010   -0.3792 N.ar    1  LIG1       -0.3499
     47 H          -1.3490   -9.8301   -0.2150 H       1  LIG1        0.1661
     48 N          -3.7703  -13.6351   -0.2897 N.pl3   1  LIG1       -0.3560
     49 H          -4.6974  -13.3030   -0.5237 H       1  LIG1        0.1424
     50 H          -3.5525  -14.5231   -0.7208 H       1  LIG1        0.1424
     51 C          -0.8305  -14.4207   -0.5182 C.3     1  LIG1       -0.0359
     52 H           0.2373  -14.4218   -0.7381 H       1  LIG1        0.0279
     53 H          -1.3350  -14.9778   -1.3204 H       1  LIG1        0.0279
     54 H          -0.9725  -14.9872    0.4103 H       1  LIG1        0.0279
     55 C           1.7623  -12.1046    0.3281 C.ar    1  LIG1        0.1267
     56 C           3.0668  -11.6276    0.3071 C.ar    1  LIG1       -0.0070
     57 C           0.7702  -11.4720   -0.4501 C.ar    1  LIG1        0.0418
     58 C           3.4591  -10.5109   -0.4622 C.ar    1  LIG1        0.0433
     59 H           3.8061  -12.0933    0.9540 H       1  LIG1        0.0662
     60 C           1.1652  -10.3666   -1.2187 C.ar    1  LIG1       -0.0277
     61 C           2.4691   -9.8587   -1.2471 C.ar    1  LIG1        0.0362
     62 H           0.4144   -9.8777   -1.8339 H       1  LIG1        0.0644
     63 O           1.3913  -13.1557    1.1303 O.3     1  LIG1       -0.5061
     64 H           2.1488  -13.4114    1.6724 H       1  LIG1        0.2922
     65 N           2.7259   -8.7140   -2.0047 N.pl3   1  LIG1       -0.3574
     66 H           3.6981   -8.5071   -2.1783 H       1  LIG1        0.1423
     67 H           2.1427   -8.6147   -2.8237 H       1  LIG1        0.1423
     68 C           4.8511  -10.0960   -0.4157 C.ar    1  LIG1        0.1618
     69 C           6.0160  -10.7434   -0.0621 C.ar    1  LIG1        0.1140
     70 C           7.0713   -9.7816   -0.1666 C.ar    1  LIG1        0.1871
     71 C           6.5209   -8.5934   -0.6008 C.ar    1  LIG1        0.1825
     72 O           5.1673   -8.7901   -0.7433 O.2     1  LIG1       -0.4489
     73 N           6.2161  -12.0586    0.3737 N.pl3   1  LIG1       -0.3522
     74 H           5.6879  -12.7400   -0.1606 H       1  LIG1        0.1425
     75 H           7.2050  -12.2861    0.3561 H       1  LIG1        0.1425
     76 O           8.3548  -10.1327    0.1351 O.3     1  LIG1       -0.4896
     77 C           8.9585   -9.4120    1.2133 C.3     1  LIG1        0.0791
     78 H           9.9175   -9.8977    1.4049 H       1  LIG1        0.0660
     79 H           9.1332   -8.3665    0.9447 H       1  LIG1        0.0660
     80 H           8.3364   -9.4607    2.1149 H       1  LIG1        0.0660
     81 C           8.2597   -6.9354   -1.3764 C.ar    1  LIG1        0.1277
     82 C           8.6272   -5.6127   -1.6413 C.ar    1  LIG1       -0.0183
     83 C           6.9708   -7.2327   -0.8795 C.ar    1  LIG1        0.0635
     84 C           7.7291   -4.5704   -1.4498 C.ar    1  LIG1       -0.0428
     85 H           9.6262   -5.4054   -2.0194 H       1  LIG1        0.0655
     86 C           6.0754   -6.1651   -0.7021 C.ar    1  LIG1       -0.0320
     87 C           6.4295   -4.8364   -0.9812 C.ar    1  LIG1        0.0256
     88 H           5.0782   -6.3808   -0.3375 H       1  LIG1        0.0638
     89 H           8.0243   -3.5491   -1.6639 H       1  LIG1        0.0631
     90 O           9.1139   -7.9754   -1.5987 O.3     1  LIG1       -0.5061
     91 H           9.9359   -7.6348   -1.9759 H       1  LIG1        0.2922
     92 C           5.4924   -3.7750   -0.7834 C.1     1  LIG1       -0.0696
     93 C           4.7043   -2.8700   -0.6213 C.1     1  LIG1       -0.1139
     94 H           4.0081   -2.0760   -0.4626 H       1  LIG1        0.1232
@<TRIPOS>BOND
     1    67    65    1
     2    66    65    1
     3    85    82    1
     4    65    61    1
     5    91    90    1
     6    62    60    1
     7    89    84    1
     8    82    84   ar
     9    82    81   ar
    10    90    81    1
    11    84    87   ar
    12    81    83   ar
    13    53    51    1
    14    61    60   ar
    15    61    58   ar
    16    60    57   ar
    17    87    92    1
    18    87    86   ar
    19    83    86   ar
    20    83    71    1
    21    31    29    1
    22    92    93    3
    23    72    71   ar
    24    72    68   ar
    25    52    51    1
    26    50    48    1
    27    86    88    1
    28    93    94    1
    29    41    40    1
    30    71    70   ar
    31    40    39    3
    32    49    48    1
    33    51    44    1
    34    51    54    1
    35    18    13    1
    36    58    68    1
    37    58    56   ar
    38    57    45    1
    39    57    55   ar
    40    39    35    1
    41    68    69   ar
    42    44    45   ar
    43    44    43   ar
    44    45    46   ar
    45    46    42   ar
    46    46    47    1
    47    43    42   ar
    48    43    48    1
    49    42    36    1
    50    17    16    1
    51    27    26    1
    52    28    26    1
    53    35    36   ar
    54    35    34   ar
    55    36    37   ar
    56    38    34    1
    57    34    33   ar
    58    13    12   ar
    59    13    14   ar
    60    37    33   ar
    61    16    12    1
    62    70    69   ar
    63    70    76    1
    64    74    73    1
    65    33    23    1
    66    24    23   ar
    67    24    19   ar
    68    23    22   ar
    69    69    73    1
    70    19    26    1
    71    19    20   ar
    72    12    11   ar
    73    22    29    1
    74    22    21   ar
    75    20    14    1
    76    20    21   ar
    77    29    32    1
    78    29    30    1
    79    14    15   ar
    80    21    25    1
    81    76    77    1
    82    10     3    1
    83    11    15   ar
    84    11     4    1
    85    56    55   ar
    86    56    59    1
    87    55    63    1
    88    75    73    1
    89     3     4   ar
    90     3     2   ar
    91     4     5   ar
    92     9     8    1
    93    79    77    1
    94     2     8    1
    95     2     1   ar
    96     5     1   ar
    97     5     6    1
    98    63    64    1
    99    77    78    1
   100    77    80    1
   101     1     7    1
