@<TRIPOS>MOLECULE
mol_data/opt/b3lyp/geoms/mol2/13fa13fa-13fa-13fa-.out
 38 41 0 0 0
SMALL
GASTEIGER

@<TRIPOS>ATOM
      1 C           1.3085   -0.6490   -0.7531 C.ar    1  LIG1        0.0442
      2 C           1.0755    0.6971   -0.5725 C.ar    1  LIG1        0.1347
      3 C          -0.2846    0.8701   -0.1893 C.ar    1  LIG1        0.0067
      4 C          -0.8630   -0.3936   -0.1470 C.ar    1  LIG1        0.0701
      5 N           0.1238   -1.3071   -0.4634 N.ar    1  LIG1       -0.3564
      6 H          -0.0758   -2.2617   -0.7203 H       1  LIG1        0.1655
      7 H           2.2069   -1.1748   -1.0322 H       1  LIG1        0.0844
      8 O           2.0354    1.6594   -0.7227 O.3     1  LIG1       -0.5053
      9 H           1.6337    2.5204   -0.5559 H       1  LIG1        0.2922
     10 H          -0.7676    1.7985    0.0854 H       1  LIG1        0.0676
     11 C          -2.2037   -0.8296    0.1580 C.ar    1  LIG1        0.1054
     12 C          -2.6542   -2.0356    0.6777 C.ar    1  LIG1        0.1441
     13 C          -4.0657   -1.9838    0.7966 C.ar    1  LIG1        0.0074
     14 C          -4.4693   -0.7316    0.3414 C.ar    1  LIG1        0.0705
     15 N          -3.3298   -0.0285   -0.0081 N.ar    1  LIG1       -0.3488
     16 H          -3.3385    0.7602   -0.6368 H       1  LIG1        0.1661
     17 O          -1.8805   -3.1050    1.0547 O.3     1  LIG1       -0.5046
     18 H          -1.0300   -2.7633    1.3677 H       1  LIG1        0.2922
     19 H          -4.6934   -2.7289    1.2640 H       1  LIG1        0.0676
     20 C          -5.7966   -0.1894    0.1887 C.ar    1  LIG1        0.1055
     21 C          -6.9678   -0.8333   -0.1985 C.ar    1  LIG1        0.1441
     22 C          -8.0160    0.1174   -0.2377 C.ar    1  LIG1        0.0074
     23 C          -7.4718    1.3496    0.1232 C.ar    1  LIG1        0.0705
     24 N          -6.1309    1.1511    0.3683 N.ar    1  LIG1       -0.3488
     25 H          -5.4827    1.8769    0.6274 H       1  LIG1        0.1661
     26 O          -7.1153   -2.1528   -0.5020 O.3     1  LIG1       -0.5046
     27 H          -6.2314   -2.5491   -0.5456 H       1  LIG1        0.2922
     28 H          -9.0594   -0.0874   -0.4293 H       1  LIG1        0.0676
     29 C          -8.0995    2.6482    0.2059 C.ar    1  LIG1        0.1050
     30 C          -9.0398    3.2206   -0.6410 C.ar    1  LIG1        0.1434
     31 C          -9.3143    4.5380   -0.1867 C.ar    1  LIG1       -0.0021
     32 C          -8.5355    4.7442    0.9321 C.ar    1  LIG1        0.0058
     33 N          -7.7742    3.6222    1.1503 N.ar    1  LIG1       -0.3566
     34 H          -7.3170    3.4126    2.0238 H       1  LIG1        0.1655
     35 H          -8.4638    5.6009    1.5852 H       1  LIG1        0.0808
     36 O          -9.5898    2.6630   -1.7561 O.3     1  LIG1       -0.5046
     37 H          -9.1375    1.8214   -1.9207 H       1  LIG1        0.2922
     38 H          -9.9885    5.2445   -0.6475 H       1  LIG1        0.0669
@<TRIPOS>BOND
     1    37    36    1
     2    36    30    1
     3     7     1    1
     4     1     2   ar
     5     1     5   ar
     6     8     2    1
     7     8     9    1
     8     6     5    1
     9    38    31    1
    10    30    31   ar
    11    30    29   ar
    12    16    15    1
    13     2     3   ar
    14    27    26    1
    15    26    21    1
    16     5     4   ar
    17    28    22    1
    18    22    21   ar
    19    22    23   ar
    20    21    20   ar
    21     3     4   ar
    22     3    10    1
    23    31    32   ar
    24     4    11    1
    25    15    11   ar
    26    15    14   ar
    27    23    29    1
    28    23    24   ar
    29    11    12   ar
    30    20    14    1
    31    20    24   ar
    32    29    33   ar
    33    14    13   ar
    34    24    25    1
    35    12    13   ar
    36    12    17    1
    37    13    19    1
    38    32    33   ar
    39    32    35    1
    40    17    18    1
    41    33    34    1
