@<TRIPOS>MOLECULE
mol_data/opt/b3lyp/geoms/mol2/13fa13fa-4fa13fa.out
 40 43 0 0 0
SMALL
GASTEIGER

@<TRIPOS>ATOM
      1 C           1.4474   -0.3721    0.0187 C.ar    1  LIG1        0.0442
      2 C           1.0908    0.9609    0.0714 C.ar    1  LIG1        0.1347
      3 C          -0.3262    1.0448    0.0676 C.ar    1  LIG1        0.0067
      4 C          -0.8118   -0.2619    0.0116 C.ar    1  LIG1        0.0701
      5 N           0.2760   -1.0998   -0.0170 N.ar    1  LIG1       -0.3564
      6 H           0.1928   -2.1040   -0.0587 H       1  LIG1        0.1655
      7 H           2.4189   -0.8384    0.0047 H       1  LIG1        0.0844
      8 O           1.9968    1.9892    0.1182 O.3     1  LIG1       -0.5053
      9 H           1.5060    2.8188    0.1520 H       1  LIG1        0.2922
     10 H          -0.9187    1.9497    0.1015 H       1  LIG1        0.0676
     11 C          -2.1525   -0.7863   -0.0169 C.ar    1  LIG1        0.1054
     12 C          -2.5986   -2.1066   -0.0728 C.ar    1  LIG1        0.1440
     13 C          -4.0054   -2.1133   -0.0807 C.ar    1  LIG1        0.0060
     14 C          -4.4265   -0.7786   -0.0296 C.ar    1  LIG1        0.0540
     15 N          -3.2870   -0.0069    0.0083 N.ar    1  LIG1       -0.3500
     16 H          -3.3150    0.9998    0.0483 H       1  LIG1        0.1661
     17 O          -1.7280   -3.1734   -0.1099 O.3     1  LIG1       -0.5046
     18 H          -2.2384   -3.9900   -0.1609 H       1  LIG1        0.2922
     19 H          -4.6410   -2.9867   -0.1182 H       1  LIG1        0.0675
     20 C          -6.0703    1.1528    0.0421 C.ar    1  LIG1        0.1266
     21 C          -7.3750    1.6308    0.0608 C.ar    1  LIG1       -0.0103
     22 C          -5.7753   -0.2304   -0.0155 C.ar    1  LIG1        0.0399
     23 C          -8.4778    0.7596    0.0128 C.ar    1  LIG1        0.0054
     24 H          -7.5461    2.7016    0.1134 H       1  LIG1        0.0661
     25 C          -6.8941   -1.0862   -0.0674 C.ar    1  LIG1       -0.0485
     26 C          -8.1991   -0.6202   -0.0588 C.ar    1  LIG1       -0.0517
     27 H          -6.7261   -2.1563   -0.1275 H       1  LIG1        0.0625
     28 O          -5.0148    2.0415    0.0892 O.3     1  LIG1       -0.5061
     29 H          -5.3670    2.9404    0.1132 H       1  LIG1        0.2922
     30 H          -9.0055   -1.3433   -0.1397 H       1  LIG1        0.0624
     31 C          -9.8387    1.2714    0.0432 C.ar    1  LIG1        0.0886
     32 C         -10.3569    2.5531   -0.1395 C.ar    1  LIG1        0.1420
     33 C         -11.7698    2.5008   -0.0289 C.ar    1  LIG1       -0.0022
     34 C         -12.0991    1.1840    0.2281 C.ar    1  LIG1        0.0057
     35 N         -10.9447    0.4563    0.2582 N.ar    1  LIG1       -0.3577
     36 H         -10.8839   -0.5120    0.5249 H       1  LIG1        0.1654
     37 H         -13.0604    0.7223    0.3945 H       1  LIG1        0.0808
     38 O          -9.5832    3.6558   -0.3971 O.3     1  LIG1       -0.5046
     39 H         -10.1687    4.4025   -0.5723 H       1  LIG1        0.2922
     40 H         -12.4607    3.3268   -0.1296 H       1  LIG1        0.0669
@<TRIPOS>BOND
     1    39    38    1
     2    38    32    1
     3    18    17    1
     4    30    26    1
     5    32    33   ar
     6    32    31   ar
     7    40    33    1
     8    27    25    1
     9    19    13    1
    10    17    12    1
    11    13    12   ar
    12    13    14   ar
    13    12    11   ar
    14    25    26   ar
    15    25    22   ar
    16    26    23   ar
    17     6     5    1
    18    14    22    1
    19    14    15   ar
    20    33    34   ar
    21     5     4   ar
    22     5     1   ar
    23    11    15   ar
    24    11     4    1
    25    22    20   ar
    26     7     1    1
    27    15    16    1
    28     4     3   ar
    29    23    31    1
    30    23    21   ar
    31     1     2   ar
    32    20    21   ar
    33    20    28    1
    34    31    35   ar
    35    21    24    1
    36     3     2   ar
    37     3    10    1
    38     2     8    1
    39    28    29    1
    40     8     9    1
    41    34    35   ar
    42    34    37    1
    43    35    36    1
