@<TRIPOS>MOLECULE
mol_data/opt/b3lyp/geoms/mol2/13fa13fa4lf13hi-.out
 48 51 0 0 0
SMALL
GASTEIGER

@<TRIPOS>ATOM
      1 C           1.4572   -0.0396   -0.4672 C.ar    1  LIG1        0.0442
      2 C           0.9886    1.2472   -0.6223 C.ar    1  LIG1        0.1347
      3 C          -0.4128    1.2487   -0.3827 C.ar    1  LIG1        0.0067
      4 C          -0.7784   -0.0570   -0.0800 C.ar    1  LIG1        0.0701
      5 N           0.3602   -0.8352   -0.1678 N.ar    1  LIG1       -0.3564
      6 H           0.4350   -1.7485    0.2506 H       1  LIG1        0.1655
      7 H           2.4515   -0.4432   -0.5666 H       1  LIG1        0.0844
      8 O           1.7799    2.3067   -0.9768 O.3     1  LIG1       -0.5053
      9 H           1.2346    3.1025   -0.9723 H       1  LIG1        0.2922
     10 H          -1.0915    2.0870   -0.4474 H       1  LIG1        0.0676
     11 C          -2.0617   -0.6225    0.2487 C.ar    1  LIG1        0.1054
     12 C          -3.2129   -0.0397    0.7631 C.ar    1  LIG1        0.1440
     13 C          -4.2058   -1.0392    0.9032 C.ar    1  LIG1        0.0060
     14 C          -3.6567   -2.2423    0.4720 C.ar    1  LIG1        0.0541
     15 N          -2.3425   -1.9803    0.1119 N.ar    1  LIG1       -0.3500
     16 H          -1.8447   -2.5585   -0.5483 H       1  LIG1        0.1661
     17 O          -3.3009    1.2875    1.0817 O.3     1  LIG1       -0.5046
     18 H          -4.1519    1.4400    1.5106 H       1  LIG1        0.2922
     19 H          -5.1963   -0.9241    1.3166 H       1  LIG1        0.0675
     20 C          -5.5869   -3.8578    0.3433 C.ar    1  LIG1        0.1300
     21 C          -6.0656   -5.1597    0.2602 C.ar    1  LIG1       -0.0066
     22 C          -4.2033   -3.5900    0.4024 C.ar    1  LIG1        0.0435
     23 C          -5.2207   -6.2885    0.2178 C.ar    1  LIG1        0.0450
     24 H          -7.1400   -5.3006    0.2770 H       1  LIG1        0.0662
     25 C          -3.3528   -4.7145    0.3988 C.ar    1  LIG1       -0.0069
     26 C          -3.8330   -6.0136    0.3064 C.ar    1  LIG1        0.1268
     27 H          -2.2803   -4.5666    0.5111 H       1  LIG1        0.0662
     28 O          -6.5062   -2.8230    0.4090 O.3     1  LIG1       -0.4944
     29 C          -6.9288   -2.3379   -0.8650 C.3     1  LIG1        0.0788
     30 H          -7.6747   -1.5631   -0.6743 H       1  LIG1        0.0660
     31 H          -6.0915   -1.9044   -1.4255 H       1  LIG1        0.0660
     32 H          -7.3854   -3.1381   -1.4620 H       1  LIG1        0.0660
     33 O          -2.9576   -7.0837    0.3178 O.3     1  LIG1       -0.5061
     34 H          -2.0577   -6.7500    0.4212 H       1  LIG1        0.2922
     35 C          -5.7710   -7.6313    0.1174 C.ar    1  LIG1        0.0713
     36 C          -7.0472   -8.0719   -0.2622 C.ar    1  LIG1        0.0532
     37 C          -7.0857   -9.4910   -0.1414 C.ar    1  LIG1       -0.0119
     38 C          -5.8327   -9.8818    0.2979 C.ar    1  LIG1        0.0069
     39 N          -5.0542   -8.7759    0.4468 N.ar    1  LIG1       -0.3588
     40 H          -4.0765   -8.7506    0.6858 H       1  LIG1        0.1654
     41 H          -5.4504  -10.8716    0.5021 H       1  LIG1        0.0810
     42 N          -8.1362   -7.2707   -0.6652 N.pl3   1  LIG1       -0.3561
     43 H          -7.8622   -6.5343   -1.3078 H       1  LIG1        0.1424
     44 H          -8.8644   -7.8269   -1.0993 H       1  LIG1        0.1424
     45 C          -8.2595  -10.3764   -0.4368 C.3     1  LIG1       -0.0365
     46 H          -7.9895  -11.4311   -0.3320 H       1  LIG1        0.0279
     47 H          -8.6318  -10.2415   -1.4619 H       1  LIG1        0.0279
     48 H          -9.1038  -10.1874    0.2387 H       1  LIG1        0.0279
@<TRIPOS>BOND
     1    32    29    1
     2    47    45    1
     3    31    29    1
     4    43    42    1
     5    44    42    1
     6     8     9    1
     7     8     2    1
     8    29    30    1
     9    29    28    1
    10    42    36    1
    11     2     1   ar
    12     2     3   ar
    13     7     1    1
    14    16    15    1
    15     1     5   ar
    16    10     3    1
    17    45    46    1
    18    45    37    1
    19    45    48    1
    20     3     4   ar
    21    36    37   ar
    22    36    35   ar
    23     5     4   ar
    24     5     6    1
    25    37    38   ar
    26     4    11    1
    27    15    11   ar
    28    15    14   ar
    29    35    23    1
    30    35    39   ar
    31    23    21   ar
    32    23    26   ar
    33    11    12   ar
    34    21    24    1
    35    21    20   ar
    36    38    39   ar
    37    38    41    1
    38    26    33    1
    39    26    25   ar
    40    33    34    1
    41    20    22   ar
    42    20    28    1
    43    25    22   ar
    44    25    27    1
    45    22    14    1
    46    39    40    1
    47    14    13   ar
    48    12    13   ar
    49    12    17    1
    50    13    19    1
    51    17    18    1
