@<TRIPOS>MOLECULE
mol_data/opt/b3lyp/geoms/mol2/13fa13fa-13fa13fa-.out
 38 41 0 0 0
SMALL
GASTEIGER

@<TRIPOS>ATOM
      1 C           1.3903   -0.2052    0.0030 C.ar    1  LIG1        0.0442
      2 C           0.9878    1.1150   -0.0011 C.ar    1  LIG1        0.1347
      3 C          -0.4320    1.1503   -0.0012 C.ar    1  LIG1        0.0067
      4 C          -0.8727   -0.1733    0.0029 C.ar    1  LIG1        0.0701
      5 N           0.2432   -0.9737    0.0053 N.ar    1  LIG1       -0.3564
      6 H           0.1943   -1.9808    0.0087 H       1  LIG1        0.1655
      7 H           2.3770   -0.6386    0.0043 H       1  LIG1        0.0844
      8 O           1.8569    2.1767   -0.0044 O.3     1  LIG1       -0.5053
      9 H           1.3357    2.9881   -0.0061 H       1  LIG1        0.2922
     10 H          -1.0544    2.0355   -0.0039 H       1  LIG1        0.0676
     11 C          -2.1948   -0.7438    0.0045 C.ar    1  LIG1        0.1054
     12 C          -2.5975   -2.0760    0.0087 C.ar    1  LIG1        0.1441
     13 C          -4.0089   -2.1342    0.0082 C.ar    1  LIG1        0.0074
     14 C          -4.4662   -0.8145    0.0035 C.ar    1  LIG1        0.0705
     15 N          -3.3597    0.0019    0.0015 N.ar    1  LIG1       -0.3488
     16 H          -3.4199    1.0086   -0.0018 H       1  LIG1        0.1661
     17 O          -1.6937   -3.1163    0.0136 O.3     1  LIG1       -0.5046
     18 H          -2.1791   -3.9494    0.0051 H       1  LIG1        0.2922
     19 H          -4.6195   -3.0273    0.0113 H       1  LIG1        0.0676
     20 C          -5.7936   -0.2643    0.0009 C.ar    1  LIG1        0.1055
     21 C          -6.2142    1.0632   -0.0033 C.ar    1  LIG1        0.1441
     22 C          -7.6263    1.1014   -0.0039 C.ar    1  LIG1        0.0074
     23 C          -8.0653   -0.2242   -0.0001 C.ar    1  LIG1        0.0705
     24 N          -6.9491   -1.0255    0.0027 N.ar    1  LIG1       -0.3488
     25 H          -6.9981   -2.0330    0.0058 H       1  LIG1        0.1661
     26 O          -5.3248    2.1141   -0.0065 O.3     1  LIG1       -0.5046
     27 H          -5.8182    2.9425   -0.0050 H       1  LIG1        0.2922
     28 H          -8.2463    1.9881   -0.0071 H       1  LIG1        0.0676
     29 C          -9.3850   -0.7985    0.0012 C.ar    1  LIG1        0.1050
     30 C          -9.7822   -2.1315    0.0053 C.ar    1  LIG1        0.1434
     31 C         -11.1984   -2.1905    0.0051 C.ar    1  LIG1       -0.0021
     32 C         -11.6477   -0.8834    0.0007 C.ar    1  LIG1        0.0058
     33 N         -10.5555   -0.0572   -0.0016 N.ar    1  LIG1       -0.3566
     34 H         -10.5893    0.9483   -0.0049 H       1  LIG1        0.1655
     35 H         -12.6515   -0.4879   -0.0008 H       1  LIG1        0.0808
     36 O          -8.8741   -3.1668    0.0087 O.3     1  LIG1       -0.5046
     37 H          -9.3532   -4.0037    0.0138 H       1  LIG1        0.2922
     38 H         -11.8149   -3.0789    0.0075 H       1  LIG1        0.0669
@<TRIPOS>BOND
     1    28    22    1
     2    26    27    1
     3    26    21    1
     4     9     8    1
     5    34    33    1
     6     8     2    1
     7    10     3    1
     8    22    21   ar
     9    22    23   ar
    10    21    20   ar
    11    16    15    1
    12    33    32   ar
    13    33    29   ar
    14     3     2   ar
    15     3     4   ar
    16     2     1   ar
    17    35    32    1
    18    23    29    1
    19    23    24   ar
    20    32    31   ar
    21    20    24   ar
    22    20    14    1
    23    29    30   ar
    24    15    14   ar
    25    15    11   ar
    26    24    25    1
    27     4    11    1
    28     4     5   ar
    29     1     7    1
    30     1     5   ar
    31    14    13   ar
    32    11    12   ar
    33    31    30   ar
    34    31    38    1
    35    18    17    1
    36     5     6    1
    37    30    36    1
    38    13    12   ar
    39    13    19    1
    40    36    37    1
    41    12    17    1
