@<TRIPOS>MOLECULE
mol_data/opt/b3lyp/geoms/mol2/13fa13fa.out
 20 21 0 0 0
SMALL
GASTEIGER

@<TRIPOS>ATOM
      1 C           1.2174   -0.2749   -0.0004 C.ar    1  LIG1        0.0442
      2 C           0.7484    1.0211   -0.0000 C.ar    1  LIG1        0.1347
      3 C          -0.6707    0.9863    0.0004 C.ar    1  LIG1        0.0067
      4 C          -1.0531   -0.3523    0.0002 C.ar    1  LIG1        0.0700
      5 N           0.1040   -1.1012   -0.0002 N.ar    1  LIG1       -0.3564
      6 H           0.1595   -2.1048   -0.0010 H       1  LIG1        0.1655
      7 H           2.2224   -0.6638   -0.0007 H       1  LIG1        0.0844
      8 O           1.5611    2.1243    0.0000 O.3     1  LIG1       -0.5053
      9 H           0.9981    2.9077    0.0003 H       1  LIG1        0.2922
     10 H          -1.3529    1.8234    0.0008 H       1  LIG1        0.0676
     11 C          -2.3800   -0.9232    0.0004 C.ar    1  LIG1        0.1050
     12 C          -3.6197   -0.2917    0.0003 C.ar    1  LIG1        0.1434
     13 C          -4.6391   -1.2795    0.0006 C.ar    1  LIG1       -0.0021
     14 C          -4.0079   -2.5068    0.0010 C.ar    1  LIG1        0.0058
     15 N          -2.6551   -2.2862    0.0009 N.ar    1  LIG1       -0.3566
     16 H          -1.9666   -3.0189    0.0009 H       1  LIG1        0.1655
     17 H          -4.4134   -3.5067    0.0013 H       1  LIG1        0.0808
     18 O          -3.7632    1.0717   -0.0000 O.3     1  LIG1       -0.5046
     19 H          -4.7057    1.2772   -0.0005 H       1  LIG1        0.2922
     20 H          -5.7072   -1.1098    0.0006 H       1  LIG1        0.0669
@<TRIPOS>BOND
     1     6     5    1
     2     7     1    1
     3    19    18    1
     4     1     5   ar
     5     1     2   ar
     6     5     4   ar
     7    18    12    1
     8     2     8    1
     9     2     3   ar
    10     8     9    1
    11     4     3   ar
    12     4    11    1
    13    12    11   ar
    14    12    13   ar
    15     3    10    1
    16    11    15   ar
    17    13    20    1
    18    13    14   ar
    19    15    16    1
    20    15    14   ar
    21    14    17    1
