@<TRIPOS>MOLECULE
mol_data/opt/b3lyp/geoms/mol2/13fa12ih-12id-13ih-.out
 47 50 0 0 0
SMALL
GASTEIGER

@<TRIPOS>ATOM
      1 C           0.9523    0.1306    1.4219 C.ar    1  LIG1        0.0442
      2 C           0.6549    1.3507    0.8423 C.ar    1  LIG1        0.1348
      3 C          -0.6217    1.2545    0.2335 C.ar    1  LIG1        0.0082
      4 C          -1.0856   -0.0419    0.4623 C.ar    1  LIG1        0.0860
      5 N          -0.1167   -0.7009    1.1789 N.ar    1  LIG1       -0.3552
      6 H          -0.2042   -1.6586    1.4786 H       1  LIG1        0.1655
      7 H           1.8226   -0.1906    1.9705 H       1  LIG1        0.0844
      8 O           1.4979    2.4276    0.8758 O.3     1  LIG1       -0.5053
      9 H           1.0673    3.1655    0.4278 H       1  LIG1        0.2922
     10 H          -1.1281    2.0233   -0.3319 H       1  LIG1        0.0676
     11 C          -2.3037   -0.7116    0.0899 C.ar    1  LIG1        0.1567
     12 C          -3.5063   -0.2852   -0.4284 C.ar    1  LIG1        0.0182
     13 C          -4.3042   -1.4676   -0.5826 C.ar    1  LIG1        0.0777
     14 C          -3.5593   -2.5299   -0.1178 C.ar    1  LIG1        0.1917
     15 O          -2.3202   -2.0629    0.2936 O.2     1  LIG1       -0.4481
     16 C          -3.9324    1.1131   -0.7569 C.3     1  LIG1       -0.0343
     17 H          -5.0161    1.2224   -0.6429 H       1  LIG1        0.0279
     18 H          -3.6768    1.4043   -1.7845 H       1  LIG1        0.0279
     19 H          -3.4593    1.8353   -0.0852 H       1  LIG1        0.0279
     20 N          -5.6153   -1.4904   -1.0642 N.pl3   1  LIG1       -0.3547
     21 H          -5.7808   -0.8105   -1.7968 H       1  LIG1        0.1424
     22 H          -5.9094   -2.4110   -1.3693 H       1  LIG1        0.1424
     23 C          -3.8215   -3.9375   -0.0053 C.ar    1  LIG1        0.1767
     24 C          -4.9216   -4.6686    0.3603 C.ar    1  LIG1        0.0165
     25 C          -4.5510   -6.0551    0.1829 C.ar    1  LIG1        0.1025
     26 C          -3.2262   -6.0808   -0.2276 C.ar    1  LIG1        0.1697
     27 O          -2.7869   -4.7957   -0.3579 O.2     1  LIG1       -0.4486
     28 C          -6.2331   -4.1814    0.8951 C.3     1  LIG1       -0.0348
     29 H          -6.4170   -4.5922    1.8941 H       1  LIG1        0.0279
     30 H          -7.0696   -4.5048    0.2647 H       1  LIG1        0.0279
     31 H          -6.2560   -3.0924    0.9638 H       1  LIG1        0.0279
     32 N          -6.2116   -8.0145    0.4401 N.1     1  LIG1       -0.1907
     33 C          -5.4390   -7.1485    0.3299 C.1     1  LIG1        0.1033
     34 C          -2.2726   -7.1001   -0.5602 C.ar    1  LIG1        0.0882
     35 C          -2.1487   -8.4465   -0.1979 C.ar    1  LIG1       -0.0015
     36 C          -0.9835   -8.9364   -0.8551 C.ar    1  LIG1        0.0457
     37 C          -0.4250   -7.8911   -1.5754 C.ar    1  LIG1        0.0233
     38 N          -1.2046   -6.7821   -1.3756 N.ar    1  LIG1       -0.3564
     39 H          -1.0557   -5.8688   -1.7720 H       1  LIG1        0.1655
     40 H           0.4604   -7.8571   -2.1926 H       1  LIG1        0.0826
     41 C          -2.9792   -9.2399    0.7649 C.3     1  LIG1       -0.0359
     42 H          -2.3567  -10.0045    1.2415 H       1  LIG1        0.0279
     43 H          -3.8274   -9.7441    0.2873 H       1  LIG1        0.0279
     44 H          -3.3954   -8.6075    1.5531 H       1  LIG1        0.0279
     45 N          -0.4663  -10.2363   -0.6896 N.pl3   1  LIG1       -0.3566
     46 H          -1.1720  -10.9538   -0.8154 H       1  LIG1        0.1424
     47 H           0.3104  -10.4280   -1.3112 H       1  LIG1        0.1424
@<TRIPOS>BOND
     1    40    37    1
     2    21    20    1
     3    18    16    1
     4    39    38    1
     5    37    38   ar
     6    37    36   ar
     7    38    34   ar
     8    22    20    1
     9    47    45    1
    10    20    13    1
    11    36    45    1
    12    36    35   ar
    13    46    45    1
    14    16    17    1
    15    16    12    1
    16    16    19    1
    17    13    12   ar
    18    13    14   ar
    19    34    26    1
    20    34    35   ar
    21    12    11   ar
    22    27    26   ar
    23    27    23   ar
    24    10     3    1
    25    26    25   ar
    26    35    41    1
    27    14    23    1
    28    14    15   ar
    29    23    24   ar
    30    11    15   ar
    31    11     4    1
    32    25    33    1
    33    25    24   ar
    34     3     4   ar
    35     3     2   ar
    36    30    28    1
    37    43    41    1
    38    33    32    3
    39    24    28    1
    40     9     8    1
    41     4     5   ar
    42    41    42    1
    43    41    44    1
    44     2     8    1
    45     2     1   ar
    46    28    31    1
    47    28    29    1
    48     5     1   ar
    49     5     6    1
    50     1     7    1
