@<TRIPOS>MOLECULE
mol_data/opt/b3lyp/geoms/mol2/13fa13fa13fa.out
 29 31 0 0 0
SMALL
GASTEIGER

@<TRIPOS>ATOM
      1 C           1.3001   -0.1065   -0.0012 C.ar    1  LIG1        0.0442
      2 C           0.7859    1.1723   -0.0007 C.ar    1  LIG1        0.1347
      3 C          -0.6307    1.0892    0.0001 C.ar    1  LIG1        0.0067
      4 C          -0.9686   -0.2627    0.0001 C.ar    1  LIG1        0.0701
      5 N           0.2149   -0.9712   -0.0006 N.ar    1  LIG1       -0.3564
      6 H           0.3065   -1.9719   -0.0015 H       1  LIG1        0.1655
      7 H           2.3178   -0.4603   -0.0018 H       1  LIG1        0.0844
      8 O           1.5599    2.3031   -0.0008 O.3     1  LIG1       -0.5053
      9 H           0.9694    3.0660   -0.0004 H       1  LIG1        0.2922
     10 H          -1.3411    1.9025    0.0008 H       1  LIG1        0.0676
     11 C          -2.2730   -0.8746    0.0007 C.ar    1  LIG1        0.1054
     12 C          -3.5341   -0.2862    0.0010 C.ar    1  LIG1        0.1441
     13 C          -4.5198   -1.2980    0.0015 C.ar    1  LIG1        0.0074
     14 C          -3.8586   -2.5233    0.0016 C.ar    1  LIG1        0.0705
     15 N          -2.5049   -2.2495    0.0012 N.ar    1  LIG1       -0.3488
     16 H          -1.7783   -2.9431    0.0003 H       1  LIG1        0.1661
     17 O          -3.7228    1.0705    0.0009 O.3     1  LIG1       -0.5046
     18 H          -4.6725    1.2412    0.0008 H       1  LIG1        0.2922
     19 H          -5.5926   -1.1753    0.0019 H       1  LIG1        0.0676
     20 C          -4.4087   -3.8552    0.0020 C.ar    1  LIG1        0.1050
     21 C          -5.7398   -4.2646    0.0013 C.ar    1  LIG1        0.1434
     22 C          -5.7852   -5.6824    0.0022 C.ar    1  LIG1       -0.0021
     23 C          -4.4780   -6.1257    0.0033 C.ar    1  LIG1        0.0058
     24 N          -3.6585   -5.0267    0.0035 N.ar    1  LIG1       -0.3566
     25 H          -2.6545   -5.0767    0.0044 H       1  LIG1        0.1655
     26 H          -4.0745   -7.1264    0.0043 H       1  LIG1        0.0808
     27 O          -6.7892   -3.3836   -0.0000 O.3     1  LIG1       -0.5046
     28 H          -7.6111   -3.8888   -0.0010 H       1  LIG1        0.2922
     29 H          -6.6706   -6.3035    0.0019 H       1  LIG1        0.0669
@<TRIPOS>BOND
     1     7     1    1
     2     6     5    1
     3     1     2   ar
     4     1     5   ar
     5    28    27    1
     6     8     2    1
     7     8     9    1
     8     2     3   ar
     9     5     4   ar
    10    27    21    1
    11     4     3   ar
    12     4    11    1
    13     3    10    1
    14    16    15    1
    15    11    12   ar
    16    11    15   ar
    17    18    17    1
    18    17    12    1
    19    12    13   ar
    20    15    14   ar
    21    21    20   ar
    22    21    22   ar
    23    13    14   ar
    24    13    19    1
    25    14    20    1
    26    29    22    1
    27    20    24   ar
    28    22    23   ar
    29    23    24   ar
    30    23    26    1
    31    24    25    1
