@<TRIPOS>MOLECULE
mol_data/opt/b3lyp/geoms/mol2/13fa13id6fl12dh.out
 47 50 0 0 0
SMALL
GASTEIGER

@<TRIPOS>ATOM
      1 C           1.3229   -0.1368   -0.3441 C.ar    1  LIG1        0.0442
      2 C           0.8556    1.0482   -0.8747 C.ar    1  LIG1        0.1347
      3 C          -0.5625    1.0433   -0.7913 C.ar    1  LIG1        0.0066
      4 C          -0.9379   -0.1590   -0.2011 C.ar    1  LIG1        0.0667
      5 N           0.2183   -0.8729    0.0400 N.ar    1  LIG1       -0.3564
      6 H           0.2685   -1.6896    0.6276 H       1  LIG1        0.1655
      7 H           2.3293   -0.5038   -0.2254 H       1  LIG1        0.0844
      8 O           1.6678    2.0136   -1.3975 O.3     1  LIG1       -0.5053
      9 H           1.1203    2.7525   -1.6893 H       1  LIG1        0.2922
     10 H          -1.2381    1.7961   -1.1721 H       1  LIG1        0.0676
     11 C          -2.2473   -0.6912    0.1080 C.ar    1  LIG1        0.0676
     12 C          -3.4261   -0.0572    0.4758 C.ar    1  LIG1       -0.0058
     13 C          -4.4041   -1.0888    0.6538 C.ar    1  LIG1        0.0807
     14 C          -3.8063   -2.3319    0.4001 C.ar    1  LIG1        0.0700
     15 N          -2.4903   -2.0569    0.0963 N.ar    1  LIG1       -0.3516
     16 H          -1.8765   -2.7437   -0.3196 H       1  LIG1        0.1660
     17 C          -3.6460    1.4082    0.6907 C.3     1  LIG1       -0.0364
     18 H          -4.3691    1.5819    1.4929 H       1  LIG1        0.0279
     19 H          -4.0422    1.8957   -0.2087 H       1  LIG1        0.0279
     20 H          -2.7096    1.9081    0.9526 H       1  LIG1        0.0279
     21 N          -6.8448   -0.6777    1.3961 N.1     1  LIG1       -0.1908
     22 C          -5.7434   -0.8715    1.0668 C.1     1  LIG1        0.1016
     23 C          -3.5482   -4.8374    0.5565 C.ar    1  LIG1        0.2226
     24 C          -4.3530   -3.6833    0.3792 C.ar    1  LIG1        0.0644
     25 C          -5.7202   -3.9143    0.1574 C.ar    1  LIG1       -0.0035
     26 C          -6.2105   -5.2151    0.0786 C.ar    1  LIG1        0.1499
     27 C          -5.2935   -6.2902    0.1752 C.ar    1  LIG1        0.1525
     28 N          -3.9946   -6.0669    0.4390 N.ar    1  LIG1       -0.2056
     29 H          -6.3908   -3.0743    0.0393 H       1  LIG1        0.0663
     30 O          -2.1994   -4.7311    0.8322 O.3     1  LIG1       -0.4919
     31 H          -2.0817   -4.0095    1.4670 H       1  LIG1        0.2937
     32 O          -7.5128   -5.5344   -0.0876 O.3     1  LIG1       -0.4928
     33 C          -8.4649   -4.4980   -0.3189 C.3     1  LIG1        0.0789
     34 H          -9.4131   -5.0089   -0.4819 H       1  LIG1        0.0660
     35 H          -8.5402   -3.8279    0.5451 H       1  LIG1        0.0660
     36 H          -8.2078   -3.9177   -1.2124 H       1  LIG1        0.0660
     37 C          -5.6929   -7.6877    0.0372 C.ar    1  LIG1        0.1758
     38 C          -6.7557   -8.3682   -0.5511 C.ar    1  LIG1        0.1196
     39 C          -6.5059   -9.7791   -0.3623 C.ar    1  LIG1        0.0811
     40 C          -5.3236   -9.8502    0.3193 C.ar    1  LIG1        0.1145
     41 O          -4.8346   -8.5943    0.5551 O.2     1  LIG1       -0.4580
     42 H          -4.7356  -10.6686    0.7010 H       1  LIG1        0.1049
     43 N          -8.7907   -7.6904   -1.9785 N.1     1  LIG1       -0.1907
     44 C          -7.8615   -7.9126   -1.3106 C.1     1  LIG1        0.1049
     45 N          -7.3649  -10.7960   -0.7553 N.pl3   1  LIG1       -0.3545
     46 H          -8.0054  -10.5286   -1.4925 H       1  LIG1        0.1424
     47 H          -6.9169  -11.6804   -0.9513 H       1  LIG1        0.1424
@<TRIPOS>BOND
     1    43    44    3
     2     9     8    1
     3    46    45    1
     4     8     2    1
     5    44    38    1
     6    36    33    1
     7    10     3    1
     8    47    45    1
     9     2     3   ar
    10     2     1   ar
    11     3     4   ar
    12    45    39    1
    13    38    39   ar
    14    38    37   ar
    15    34    33    1
    16    39    40   ar
    17     1     7    1
    18     1     5   ar
    19    16    15    1
    20    33    32    1
    21    33    35    1
    22    19    17    1
    23     4     5   ar
    24     4    11    1
    25    32    26    1
    26    37    27    1
    27    37    41   ar
    28    29    25    1
    29     5     6    1
    30    26    25   ar
    31    26    27   ar
    32    15    11   ar
    33    15    14   ar
    34    11    12   ar
    35    25    24   ar
    36    27    28   ar
    37    40    41   ar
    38    40    42    1
    39    24    14    1
    40    24    23   ar
    41    14    13   ar
    42    28    23   ar
    43    12    13   ar
    44    12    17    1
    45    23    30    1
    46    13    22    1
    47    17    20    1
    48    17    18    1
    49    30    31    1
    50    22    21    3
