@<TRIPOS>MOLECULE
mol_data/opt/b3lyp/geoms/mol2/13fd13fd-13fd-13fd.out
 42 45 0 0 0
SMALL
GASTEIGER

@<TRIPOS>ATOM
      1 C           1.2996   -0.0539   -0.1709 C.ar    1  LIG1        0.0455
      2 C           0.8130    1.2267   -0.2829 C.ar    1  LIG1        0.1521
      3 C          -0.6200    1.1518   -0.2346 C.ar    1  LIG1        0.1198
      4 C          -0.9598   -0.2096   -0.0922 C.ar    1  LIG1        0.0878
      5 N           0.2101   -0.9036   -0.0585 N.ar    1  LIG1       -0.3553
      6 H           0.2503   -1.9064    0.0513 H       1  LIG1        0.1655
      7 H           2.3139   -0.4163   -0.1638 H       1  LIG1        0.0845
      8 O           1.5790    2.3388   -0.4124 O.3     1  LIG1       -0.5040
      9 H           1.0080    3.1159   -0.4782 H       1  LIG1        0.2923
     10 N          -2.3342    3.0746   -0.3387 N.1     1  LIG1       -0.1907
     11 C          -1.5366    2.2207   -0.2939 C.1     1  LIG1        0.1050
     12 C          -2.2429   -0.8409    0.0119 C.ar    1  LIG1        0.1080
     13 C          -2.5765   -2.1648    0.2320 C.ar    1  LIG1        0.1616
     14 C          -4.0004   -2.2660    0.2875 C.ar    1  LIG1        0.1205
     15 C          -4.5222   -0.9702    0.0777 C.ar    1  LIG1        0.0883
     16 N          -3.4463   -0.1430   -0.0752 N.ar    1  LIG1       -0.3478
     17 H          -3.5014    0.8211   -0.3737 H       1  LIG1        0.1661
     18 O          -1.6524   -3.1517    0.3844 O.3     1  LIG1       -0.5034
     19 H          -2.0936   -3.9956    0.5542 H       1  LIG1        0.2923
     20 N          -5.3425   -4.4118    0.7677 N.1     1  LIG1       -0.1907
     21 C          -4.7322   -3.4376    0.5560 C.1     1  LIG1        0.1050
     22 C          -5.8634   -0.4638    0.0320 C.ar    1  LIG1        0.1081
     23 C          -7.1072   -1.0480   -0.2360 C.ar    1  LIG1        0.1616
     24 C          -8.0743    0.0003   -0.2822 C.ar    1  LIG1        0.1205
     25 C          -7.4031    1.2112   -0.0380 C.ar    1  LIG1        0.0882
     26 N          -6.0890    0.9121    0.1415 N.ar    1  LIG1       -0.3478
     27 H          -5.4244    1.6047    0.4615 H       1  LIG1        0.1661
     28 O          -7.4520   -2.3206   -0.4990 O.3     1  LIG1       -0.5034
     29 H          -6.8003   -2.9600   -0.1701 H       1  LIG1        0.2923
     30 N         -10.6129   -0.0689   -0.7156 N.1     1  LIG1       -0.1907
     31 C          -9.4617   -0.1005   -0.5281 C.1     1  LIG1        0.1050
     32 C          -7.8746    2.5619    0.0457 C.ar    1  LIG1        0.1076
     33 C          -7.1386    3.7185    0.2701 C.ar    1  LIG1        0.1609
     34 C          -8.0341    4.8275    0.2378 C.ar    1  LIG1        0.1110
     35 C          -9.3048    4.3041   -0.0088 C.ar    1  LIG1        0.0233
     36 N          -9.1963    2.9601   -0.1166 N.ar    1  LIG1       -0.3554
     37 H          -9.9598    2.3214   -0.3012 H       1  LIG1        0.1655
     38 H         -10.2504    4.8136   -0.1075 H       1  LIG1        0.0821
     39 O          -5.7993    3.7004    0.4933 O.3     1  LIG1       -0.5034
     40 H          -5.4286    4.5943    0.4795 H       1  LIG1        0.2923
     41 N          -7.2874    7.2732    0.5797 N.1     1  LIG1       -0.1907
     42 C          -7.6613    6.1811    0.4220 C.1     1  LIG1        0.1043
@<TRIPOS>BOND
     1    30    31    3
     2    31    24    1
     3    28    23    1
     4    28    29    1
     5     9     8    1
     6     8     2    1
     7    17    16    1
     8    10    11    3
     9    37    36    1
    10    11     3    1
    11     2     3   ar
    12     2     1   ar
    13    24    23   ar
    14    24    25   ar
    15    23    22   ar
    16     3     4   ar
    17     1     7    1
    18     1     5   ar
    19    36    35   ar
    20    36    32   ar
    21    38    35    1
    22     4     5   ar
    23     4    12    1
    24    16    12   ar
    25    16    15   ar
    26     5     6    1
    27    25    32    1
    28    25    26   ar
    29    35    34   ar
    30    12    13   ar
    31    22    15    1
    32    22    26   ar
    33    32    33   ar
    34    15    14   ar
    35    26    27    1
    36    13    14   ar
    37    13    18    1
    38    34    33   ar
    39    34    42    1
    40    33    39    1
    41    14    21    1
    42    18    19    1
    43    42    41    3
    44    40    39    1
    45    21    20    3
