@<TRIPOS>MOLECULE
mol_data/opt/b3lyp/geoms/mol2/13fd13fd13fd13fd.out
 42 45 0 0 0
SMALL
GASTEIGER

@<TRIPOS>ATOM
      1 C           1.2519   -0.1444   -0.0000 C.ar    1  LIG1        0.0455
      2 C           0.8444    1.1643   -0.0005 C.ar    1  LIG1        0.1521
      3 C          -0.5928    1.1856   -0.0004 C.ar    1  LIG1        0.1198
      4 C          -1.0374   -0.1518    0.0002 C.ar    1  LIG1        0.0878
      5 N           0.1003   -0.9213    0.0004 N.ar    1  LIG1       -0.3553
      6 H           0.1274   -1.9255    0.0005 H       1  LIG1        0.1655
      7 H           2.2375   -0.5789    0.0000 H       1  LIG1        0.0845
      8 O           1.6602    2.2437   -0.0009 O.3     1  LIG1       -0.5040
      9 H           1.1131    3.0444   -0.0011 H       1  LIG1        0.2923
     10 N          -1.6285    3.5375   -0.0009 N.1     1  LIG1       -0.1907
     11 C          -1.2683    2.4277   -0.0007 C.1     1  LIG1        0.1050
     12 C          -2.3563   -0.7281    0.0006 C.ar    1  LIG1        0.1080
     13 C          -3.6142   -0.1444    0.0004 C.ar    1  LIG1        0.1616
     14 C          -4.6052   -1.1739    0.0010 C.ar    1  LIG1        0.1205
     15 C          -3.9339   -2.4125    0.0015 C.ar    1  LIG1        0.0883
     16 N          -2.5923   -2.1099    0.0013 N.ar    1  LIG1       -0.3478
     17 H          -1.8613   -2.7976    0.0012 H       1  LIG1        0.1661
     18 O          -3.8410    1.1802   -0.0001 O.3     1  LIG1       -0.5034
     19 H          -4.7964    1.3491   -0.0002 H       1  LIG1        0.2923
     20 N          -7.0300   -0.3216    0.0009 N.1     1  LIG1       -0.1907
     21 C          -5.9740   -0.8163    0.0009 C.1     1  LIG1        0.1050
     22 C          -4.4189   -3.7641    0.0022 C.ar    1  LIG1        0.1081
     23 C          -5.7116   -4.2724    0.0023 C.ar    1  LIG1        0.1616
     24 C          -5.6500   -5.6992    0.0032 C.ar    1  LIG1        0.1205
     25 C          -4.2913   -6.0669    0.0036 C.ar    1  LIG1        0.0882
     26 N          -3.5829   -4.8898    0.0030 N.ar    1  LIG1       -0.3478
     27 H          -2.5802   -4.8431    0.0030 H       1  LIG1        0.1661
     28 O          -6.8247   -3.5229    0.0018 O.3     1  LIG1       -0.5034
     29 H          -7.6085   -4.0950    0.0019 H       1  LIG1        0.2923
     30 N          -7.9392   -6.8686    0.0035 N.1     1  LIG1       -0.1907
     31 C          -6.8535   -6.4438    0.0034 C.1     1  LIG1        0.1050
     32 C          -3.6444   -7.3527    0.0044 C.ar    1  LIG1        0.1076
     33 C          -4.1718   -8.6419    0.0053 C.ar    1  LIG1        0.1609
     34 C          -3.0860   -9.5725    0.0060 C.ar    1  LIG1        0.1110
     35 C          -1.9123   -8.8307    0.0055 C.ar    1  LIG1        0.0233
     36 N          -2.2541   -7.5173    0.0047 N.ar    1  LIG1       -0.3554
     37 H          -1.5727   -6.7780    0.0036 H       1  LIG1        0.1655
     38 H          -0.8847   -9.1584    0.0058 H       1  LIG1        0.0821
     39 O          -5.4866   -8.9217    0.0056 O.3     1  LIG1       -0.5034
     40 H          -5.6274   -9.8798    0.0059 H       1  LIG1        0.2923
     41 N          -3.4283  -12.1296    0.0078 N.1     1  LIG1       -0.1907
     42 C          -3.2343  -10.9811    0.0070 C.1     1  LIG1        0.1043
@<TRIPOS>BOND
     1     9     8    1
     2     8     2    1
     3    10    11    3
     4    11     3    1
     5     2     3   ar
     6     2     1   ar
     7     3     4   ar
     8    19    18    1
     9    18    13    1
    10     1     7    1
    11     1     5   ar
    12     4     5   ar
    13     4    12    1
    14     5     6    1
    15    13    12   ar
    16    13    14   ar
    17    12    16   ar
    18    20    21    3
    19    21    14    1
    20    14    15   ar
    21    17    16    1
    22    16    15   ar
    23    15    22    1
    24    28    29    1
    25    28    23    1
    26    22    23   ar
    27    22    26   ar
    28    23    24   ar
    29    27    26    1
    30    26    25   ar
    31    24    31    1
    32    24    25   ar
    33    31    30    3
    34    25    32    1
    35    37    36    1
    36    32    36   ar
    37    32    33   ar
    38    36    35   ar
    39    33    39    1
    40    33    34   ar
    41    35    38    1
    42    35    34   ar
    43    39    40    1
    44    34    42    1
    45    42    41    3
