@<TRIPOS>MOLECULE
mol_data/opt/b3lyp/geoms/mol2/13fd13fd13fd13fd-.out
 42 45 0 0 0
SMALL
GASTEIGER

@<TRIPOS>ATOM
      1 C           1.2164   -0.0744   -0.0018 C.ar    1  LIG1        0.0455
      2 C           0.7785    1.1589    0.4148 C.ar    1  LIG1        0.1521
      3 C          -0.6576    1.1370    0.4267 C.ar    1  LIG1        0.1198
      4 C          -1.0593   -0.1363   -0.0014 C.ar    1  LIG1        0.0878
      5 N           0.0883   -0.8510   -0.2301 N.ar    1  LIG1       -0.3553
      6 H           0.1011   -1.7297   -0.7231 H       1  LIG1        0.1655
      7 H           2.2147   -0.4562   -0.1369 H       1  LIG1        0.0845
      8 O           1.5764    2.1939    0.7726 O.3     1  LIG1       -0.5040
      9 H           1.0192    2.9410    1.0352 H       1  LIG1        0.2923
     10 N          -1.9968    3.1589    1.2973 N.1     1  LIG1       -0.1907
     11 C          -1.4451    2.2170    0.8872 C.1     1  LIG1        0.1050
     12 C          -2.3679   -0.7133   -0.1750 C.ar    1  LIG1        0.1080
     13 C          -3.5593   -0.1667   -0.6159 C.ar    1  LIG1        0.1616
     14 C          -4.5500   -1.2032   -0.6329 C.ar    1  LIG1        0.1205
     15 C          -3.9356   -2.3794   -0.1866 C.ar    1  LIG1        0.0883
     16 N          -2.6120   -2.0782    0.0438 N.ar    1  LIG1       -0.3478
     17 H          -2.0557   -2.6114    0.6973 H       1  LIG1        0.1661
     18 O          -3.7095    1.1083   -1.0258 O.3     1  LIG1       -0.5034
     19 H          -4.6392    1.2739   -1.2407 H       1  LIG1        0.2923
     20 N          -6.9007   -0.7528   -1.5892 N.1     1  LIG1       -0.1907
     21 C          -5.8566   -1.0113   -1.1401 C.1     1  LIG1        0.1050
     22 C          -4.4549   -3.7039    0.0178 C.ar    1  LIG1        0.1081
     23 C          -5.7116   -4.1428    0.4135 C.ar    1  LIG1        0.1616
     24 C          -5.6677   -5.5678    0.5154 C.ar    1  LIG1        0.1205
     25 C          -4.3624   -5.9735    0.1778 C.ar    1  LIG1        0.0882
     26 N          -3.6537   -4.8430   -0.0951 N.ar    1  LIG1       -0.3478
     27 H          -2.7282   -4.8679   -0.5002 H       1  LIG1        0.1661
     28 O          -6.7409   -3.3203    0.6978 O.3     1  LIG1       -0.5034
     29 H          -7.5462   -3.8319    0.8563 H       1  LIG1        0.2923
     30 N          -7.5646   -7.1685    1.2126 N.1     1  LIG1       -0.1907
     31 C          -6.7197   -6.4252    0.9005 C.1     1  LIG1        0.1050
     32 C          -3.7782   -7.2793    0.0771 C.ar    1  LIG1        0.1076
     33 C          -2.4900   -7.6377   -0.2938 C.ar    1  LIG1        0.1609
     34 C          -2.3916   -9.0598   -0.2507 C.ar    1  LIG1        0.1110
     35 C          -3.6401   -9.5336    0.1509 C.ar    1  LIG1        0.0233
     36 N          -4.4517   -8.4674    0.3421 N.ar    1  LIG1       -0.3554
     37 H          -5.4181   -8.5173    0.6367 H       1  LIG1        0.1655
     38 H          -3.9763  -10.5468    0.3048 H       1  LIG1        0.0821
     39 O          -1.5264   -6.7371   -0.6326 O.3     1  LIG1       -0.5034
     40 H          -0.7233   -7.2101   -0.8965 H       1  LIG1        0.2923
     41 N          -0.2159  -10.3091   -0.8478 N.1     1  LIG1       -0.1907
     42 C          -1.2209   -9.7894   -0.5686 C.1     1  LIG1        0.1043
@<TRIPOS>BOND
     1    20    21    3
     2    19    18    1
     3    21    14    1
     4    18    13    1
     5    40    39    1
     6    41    42    3
     7     6     5    1
     8    14    13   ar
     9    14    15   ar
    10    39    33    1
    11    13    12   ar
    12    42    34    1
    13    27    26    1
    14    33    34   ar
    15    33    32   ar
    16    34    35   ar
    17     5     1   ar
    18     5     4   ar
    19    15    22    1
    20    15    16   ar
    21    12     4    1
    22    12    16   ar
    23     7     1    1
    24    26    22   ar
    25    26    25   ar
    26     1     2   ar
    27     4     3   ar
    28    22    23   ar
    29    16    17    1
    30    32    25    1
    31    32    36   ar
    32    35    38    1
    33    35    36   ar
    34    25    24   ar
    35    36    37    1
    36    23    24   ar
    37    23    28    1
    38     2     3   ar
    39     2     8    1
    40     3    11    1
    41    24    31    1
    42    28    29    1
    43     8     9    1
    44    11    10    3
    45    31    30    3
