@<TRIPOS>MOLECULE
mol_data/opt/b3lyp/geoms/mol2/13fd13fd13fd-13fd-.out
 42 45 0 0 0
SMALL
GASTEIGER

@<TRIPOS>ATOM
      1 C           1.2497    0.0660    0.5192 C.ar    1  LIG1        0.0455
      2 C           0.8845    1.1855   -0.1890 C.ar    1  LIG1        0.1521
      3 C          -0.5259    1.1046   -0.4435 C.ar    1  LIG1        0.1198
      4 C          -0.9877   -0.0850    0.1374 C.ar    1  LIG1        0.0878
      5 N           0.1049   -0.6982    0.6924 N.ar    1  LIG1       -0.3553
      6 H           0.0433   -1.4817    1.3236 H       1  LIG1        0.1655
      7 H           2.2108   -0.2447    0.8939 H       1  LIG1        0.0845
      8 O           1.7276    2.1684   -0.5871 O.3     1  LIG1       -0.5040
      9 H           1.2236    2.8339   -1.0774 H       1  LIG1        0.2923
     10 N          -1.7290    2.8696   -1.8857 N.1     1  LIG1       -0.1907
     11 C          -1.2352    2.0474   -1.2226 C.1     1  LIG1        0.1050
     12 C          -2.3062   -0.6676    0.1806 C.ar    1  LIG1        0.1080
     13 C          -3.5543   -0.0810    0.3203 C.ar    1  LIG1        0.1616
     14 C          -4.5321   -1.1252    0.3342 C.ar    1  LIG1        0.1205
     15 C          -3.8431   -2.3478    0.2029 C.ar    1  LIG1        0.0883
     16 N          -2.5162   -2.0483    0.1325 N.ar    1  LIG1       -0.3478
     17 H          -1.8127   -2.7363   -0.0972 H       1  LIG1        0.1661
     18 O          -3.7490    1.2455    0.4821 O.3     1  LIG1       -0.5034
     19 H          -4.6821    1.4651    0.3568 H       1  LIG1        0.2923
     20 N          -7.0909   -0.9826    0.6057 N.1     1  LIG1       -0.1907
     21 C          -5.9286   -1.0044    0.4870 C.1     1  LIG1        0.1050
     22 C          -4.3396   -3.6883    0.1273 C.ar    1  LIG1        0.1081
     23 C          -3.6552   -4.8874    0.0328 C.ar    1  LIG1        0.1616
     24 C          -4.6098   -5.9476    0.0095 C.ar    1  LIG1        0.1205
     25 C          -5.8918   -5.3604    0.0720 C.ar    1  LIG1        0.0882
     26 N          -5.6968   -4.0121    0.1530 N.ar    1  LIG1       -0.3478
     27 H          -6.4290   -3.3205    0.0651 H       1  LIG1        0.1661
     28 O          -2.2981   -4.9705    0.0000 O.3     1  LIG1       -0.5034
     29 H          -2.0255   -5.8931   -0.1050 H       1  LIG1        0.2923
     30 N          -4.0579   -8.4637   -0.0504 N.1     1  LIG1       -0.1907
     31 C          -4.3091   -7.3230   -0.0151 C.1     1  LIG1        0.1050
     32 C          -7.2063   -5.9405    0.0775 C.ar    1  LIG1        0.1076
     33 C          -7.7177   -7.1364   -0.4383 C.ar    1  LIG1        0.1609
     34 C          -9.1360   -7.1141   -0.2517 C.ar    1  LIG1        0.1110
     35 C          -9.4516   -5.9166    0.3756 C.ar    1  LIG1        0.0233
     36 N          -8.3044   -5.2180    0.5576 N.ar    1  LIG1       -0.3554
     37 H          -8.2363   -4.3874    1.1265 H       1  LIG1        0.1655
     38 H         -10.4076   -5.5454    0.7104 H       1  LIG1        0.0821
     39 O          -7.1137   -8.1462   -1.0902 O.3     1  LIG1       -0.5034
     40 H          -6.1816   -8.2466   -0.8409 H       1  LIG1        0.2923
     41 N         -10.8113   -8.9523   -0.9469 N.1     1  LIG1       -0.1907
     42 C         -10.0520   -8.1265   -0.6379 C.1     1  LIG1        0.1043
@<TRIPOS>BOND
     1    10    11    3
     2    11     3    1
     3    39    40    1
     4    39    33    1
     5     9     8    1
     6    41    42    3
     7    42    34    1
     8     8     2    1
     9     3     2   ar
    10     3     4   ar
    11    33    34   ar
    12    33    32   ar
    13    34    35   ar
    14     2     1   ar
    15    29    28    1
    16    17    16    1
    17    30    31    3
    18    31    24    1
    19    28    23    1
    20    24    23   ar
    21    24    25   ar
    22    23    22   ar
    23    27    26    1
    24    25    32    1
    25    25    26   ar
    26    32    36   ar
    27    22    26   ar
    28    22    15    1
    29    16    12   ar
    30    16    15   ar
    31     4    12    1
    32     4     5   ar
    33    12    13   ar
    34    15    14   ar
    35    13    14   ar
    36    13    18    1
    37    14    21    1
    38    19    18    1
    39    35    36   ar
    40    35    38    1
    41    21    20    3
    42     1     5   ar
    43     1     7    1
    44    36    37    1
    45     5     6    1
