@<TRIPOS>MOLECULE
mol_data/opt/b3lyp/geoms/mol2/13fd13fd-.out
 22 23 0 0 0
SMALL
GASTEIGER

@<TRIPOS>ATOM
      1 C           1.2499   -0.2240   -0.0072 C.ar    1  LIG1        0.0455
      2 C           0.8554    1.0927   -0.0136 C.ar    1  LIG1        0.1521
      3 C          -0.5797    1.1151   -0.0111 C.ar    1  LIG1        0.1198
      4 C          -1.0162   -0.2233   -0.0031 C.ar    1  LIG1        0.0878
      5 N           0.1016   -0.9995   -0.0011 N.ar    1  LIG1       -0.3553
      6 H           0.0667   -2.0088    0.0055 H       1  LIG1        0.1655
      7 H           2.2359   -0.6576   -0.0065 H       1  LIG1        0.0845
      8 O           1.6970    2.1573   -0.0206 O.3     1  LIG1       -0.5040
      9 H           1.1784    2.9732   -0.0272 H       1  LIG1        0.2923
     10 N          -2.1275    3.1765   -0.0201 N.1     1  LIG1       -0.1907
     11 C          -1.4113    2.2530   -0.0160 C.1     1  LIG1        0.1050
     12 C          -2.3397   -0.7844    0.0024 C.ar    1  LIG1        0.1076
     13 C          -2.7332   -2.1135    0.0114 C.ar    1  LIG1        0.1609
     14 C          -4.1603   -2.1576    0.0147 C.ar    1  LIG1        0.1110
     15 C          -4.6004   -0.8347    0.0077 C.ar    1  LIG1        0.0233
     16 N          -3.5093   -0.0322    0.0005 N.ar    1  LIG1       -0.3554
     17 H          -3.5300    0.9789   -0.0061 H       1  LIG1        0.1655
     18 H          -5.6043   -0.4410    0.0072 H       1  LIG1        0.0821
     19 O          -1.8574   -3.1568    0.0157 O.3     1  LIG1       -0.5034
     20 H          -2.3484   -3.9910    0.0224 H       1  LIG1        0.2923
     21 N          -5.4822   -4.3721    0.0311 N.1     1  LIG1       -0.1907
     22 C          -4.9261   -3.3478    0.0236 C.1     1  LIG1        0.1043
@<TRIPOS>BOND
     1     9     8    1
     2     8     2    1
     3    10    11    3
     4    11     3    1
     5     2     3   ar
     6     2     1   ar
     7     3     4   ar
     8     1     7    1
     9     1     5   ar
    10    17    16    1
    11     4     5   ar
    12     4    12    1
    13     5     6    1
    14    16    12   ar
    15    16    15   ar
    16    12    13   ar
    17    18    15    1
    18    15    14   ar
    19    13    14   ar
    20    13    19    1
    21    14    22    1
    22    19    20    1
    23    22    21    3
