@<TRIPOS>MOLECULE
mol_data/opt/b3lyp/geoms/mol2/13fd13fd13fd-13fd.out
 42 45 0 0 0
SMALL
GASTEIGER

@<TRIPOS>ATOM
      1 C           1.2321   -0.0453    0.6096 C.ar    1  LIG1        0.0455
      2 C           0.9028    1.1142   -0.0491 C.ar    1  LIG1        0.1521
      3 C          -0.5058    1.0793   -0.3260 C.ar    1  LIG1        0.1198
      4 C          -1.0037   -0.1249    0.1918 C.ar    1  LIG1        0.0878
      5 N           0.0669   -0.7894    0.7310 N.ar    1  LIG1       -0.3553
      6 H          -0.0239   -1.5984    1.3252 H       1  LIG1        0.1655
      7 H           2.1802   -0.3964    0.9817 H       1  LIG1        0.0845
      8 O           1.7729    2.0955   -0.3907 O.3     1  LIG1       -0.5040
      9 H           1.2887    2.7934   -0.8555 H       1  LIG1        0.2923
     10 N          -1.6285    2.9462   -1.7025 N.1     1  LIG1       -0.1907
     11 C          -1.1758    2.0770   -1.0705 C.1     1  LIG1        0.1050
     12 C          -2.3334   -0.6815    0.1937 C.ar    1  LIG1        0.1080
     13 C          -3.5741   -0.0810    0.3400 C.ar    1  LIG1        0.1616
     14 C          -4.5692   -1.1083    0.3133 C.ar    1  LIG1        0.1205
     15 C          -3.8998   -2.3367    0.1511 C.ar    1  LIG1        0.0883
     16 N          -2.5659   -2.0556    0.1025 N.ar    1  LIG1       -0.3478
     17 H          -1.8759   -2.7463   -0.1579 H       1  LIG1        0.1661
     18 O          -3.7567    1.2427    0.5324 O.3     1  LIG1       -0.5034
     19 H          -4.6986    1.4570    0.4830 H       1  LIG1        0.2923
     20 N          -7.1133   -0.7660    0.5579 N.1     1  LIG1       -0.1907
     21 C          -5.9609   -0.9191    0.4482 C.1     1  LIG1        0.1050
     22 C          -4.3972   -3.6740    0.0215 C.ar    1  LIG1        0.1081
     23 C          -3.6950   -4.8545   -0.1731 C.ar    1  LIG1        0.1616
     24 C          -4.6300   -5.9257   -0.2506 C.ar    1  LIG1        0.1205
     25 C          -5.9143   -5.3599   -0.0979 C.ar    1  LIG1        0.0882
     26 N          -5.7450   -4.0193    0.0634 N.ar    1  LIG1       -0.3478
     27 H          -6.5162   -3.3736    0.1918 H       1  LIG1        0.1661
     28 O          -2.3369   -4.9105   -0.2642 O.3     1  LIG1       -0.5034
     29 H          -2.0582   -5.8144   -0.4667 H       1  LIG1        0.2923
     30 N          -4.1137   -8.4266   -0.6017 N.1     1  LIG1       -0.1907
     31 C          -4.3358   -7.2909   -0.4426 C.1     1  LIG1        0.1050
     32 C          -7.2109   -5.9703   -0.0940 C.ar    1  LIG1        0.1076
     33 C          -8.4546   -5.3716    0.0614 C.ar    1  LIG1        0.1609
     34 C          -9.4501   -6.3910   -0.0060 C.ar    1  LIG1        0.1110
     35 C          -8.7745   -7.5954   -0.2029 C.ar    1  LIG1        0.0233
     36 N          -7.4477   -7.3323   -0.2531 N.ar    1  LIG1       -0.3554
     37 H          -6.7235   -8.0246   -0.3870 H       1  LIG1        0.1655
     38 H          -9.1662   -8.5951   -0.3062 H       1  LIG1        0.0821
     39 O          -8.6065   -4.0379    0.2418 O.3     1  LIG1       -0.5034
     40 H          -9.5417   -3.8042    0.3281 H       1  LIG1        0.2923
     41 N         -11.9778   -5.9247    0.2156 N.1     1  LIG1       -0.1907
     42 C         -10.8445   -6.1736    0.1109 C.1     1  LIG1        0.1043
@<TRIPOS>BOND
     1    10    11    3
     2    11     3    1
     3     9     8    1
     4    30    31    3
     5    29    28    1
     6    31    24    1
     7     8     2    1
     8    37    36    1
     9     3     2   ar
    10     3     4   ar
    11    38    35    1
    12    28    23    1
    13    36    35   ar
    14    36    32   ar
    15    24    23   ar
    16    24    25   ar
    17    35    34   ar
    18    23    22   ar
    19    17    16    1
    20    25    32    1
    21    25    26   ar
    22    32    33   ar
    23     2     1   ar
    24    34    33   ar
    25    34    42    1
    26    22    26   ar
    27    22    15    1
    28    33    39    1
    29    26    27    1
    30    16    15   ar
    31    16    12   ar
    32    42    41    3
    33    15    14   ar
    34     4    12    1
    35     4     5   ar
    36    12    13   ar
    37    39    40    1
    38    14    13   ar
    39    14    21    1
    40    13    18    1
    41    21    20    3
    42    19    18    1
    43     1     5   ar
    44     1     7    1
    45     5     6    1
