@<TRIPOS>MOLECULE
mol_data/opt/b3lyp/geoms/mol2/13fd13fd-13fd-13fd-.out
 42 45 0 0 0
SMALL
GASTEIGER

@<TRIPOS>ATOM
      1 C           1.3417   -0.0697   -0.3163 C.ar    1  LIG1        0.0455
      2 C           0.8455    1.2123   -0.3337 C.ar    1  LIG1        0.1521
      3 C          -0.5841    1.1232   -0.2391 C.ar    1  LIG1        0.1198
      4 C          -0.9113   -0.2477   -0.1684 C.ar    1  LIG1        0.0878
      5 N           0.2616   -0.9336   -0.2171 N.ar    1  LIG1       -0.3553
      6 H           0.3122   -1.9408   -0.1694 H       1  LIG1        0.1655
      7 H           2.3576   -0.4240   -0.3668 H       1  LIG1        0.0845
      8 O           1.6042    2.3332   -0.4199 O.3     1  LIG1       -0.5040
      9 H           1.0315    3.1112   -0.4393 H       1  LIG1        0.2923
     10 N          -2.3875    2.9598   -0.1360 N.1     1  LIG1       -0.1907
     11 C          -1.5304    2.1654   -0.1871 C.1     1  LIG1        0.1050
     12 C          -2.1921   -0.8817   -0.0567 C.ar    1  LIG1        0.1080
     13 C          -2.5328   -2.2081    0.1328 C.ar    1  LIG1        0.1616
     14 C          -3.9557   -2.2955    0.2302 C.ar    1  LIG1        0.1205
     15 C          -4.4713   -0.9882    0.0753 C.ar    1  LIG1        0.0883
     16 N          -3.3906   -0.1707   -0.0876 N.ar    1  LIG1       -0.3478
     17 H          -3.4326    0.8009   -0.3598 H       1  LIG1        0.1661
     18 O          -1.6154   -3.2064    0.2282 O.3     1  LIG1       -0.5034
     19 H          -2.0586   -4.0521    0.3846 H       1  LIG1        0.2923
     20 N          -5.2799   -4.4525    0.7103 N.1     1  LIG1       -0.1907
     21 C          -4.6815   -3.4712    0.4975 C.1     1  LIG1        0.1050
     22 C          -5.8098   -0.4705    0.0868 C.ar    1  LIG1        0.1081
     23 C          -7.0623   -1.0525   -0.1257 C.ar    1  LIG1        0.1616
     24 C          -8.0369   -0.0111   -0.0863 C.ar    1  LIG1        0.1205
     25 C          -7.3709    1.2056    0.1374 C.ar    1  LIG1        0.0882
     26 N          -6.0441    0.9052    0.2526 N.ar    1  LIG1       -0.3478
     27 H          -5.3225    1.6050    0.3363 H       1  LIG1        0.1661
     28 O          -7.4261   -2.3210   -0.3745 O.3     1  LIG1       -0.5034
     29 H          -6.7518   -2.9679   -0.1129 H       1  LIG1        0.2923
     30 N         -10.5973   -0.1851   -0.3073 N.1     1  LIG1       -0.1907
     31 C          -9.4352   -0.1552   -0.2036 C.1     1  LIG1        0.1050
     32 C          -7.8698    2.5484    0.2652 C.ar    1  LIG1        0.1076
     33 C          -8.9704    3.2018   -0.3005 C.ar    1  LIG1        0.1609
     34 C          -8.8789    4.5854    0.0595 C.ar    1  LIG1        0.1110
     35 C          -7.7415    4.7373    0.8384 C.ar    1  LIG1        0.0233
     36 N          -7.1338    3.5281    0.9425 N.ar    1  LIG1       -0.3554
     37 H          -6.4142    3.3254    1.6195 H       1  LIG1        0.1655
     38 H          -7.3541    5.6169    1.3284 H       1  LIG1        0.0821
     39 O          -9.9323    2.7537   -1.1234 O.3     1  LIG1       -0.5034
     40 H         -10.1580    1.8217   -0.9587 H       1  LIG1        0.2923
     41 N         -10.5140    6.4680   -0.6125 N.1     1  LIG1       -0.1907
     42 C          -9.7808    5.6148   -0.3154 C.1     1  LIG1        0.1043
@<TRIPOS>BOND
     1    39    40    1
     2    39    33    1
     3    41    42    3
     4     9     8    1
     5     8     2    1
     6    28    23    1
     7    28    29    1
     8     7     1    1
     9    17    16    1
    10     2     1   ar
    11     2     3   ar
    12     1     5   ar
    13    42    34    1
    14    30    31    3
    15    33    34   ar
    16    33    32   ar
    17     3    11    1
    18     3     4   ar
    19     5     6    1
    20     5     4   ar
    21    31    24    1
    22    11    10    3
    23     4    12    1
    24    23    24   ar
    25    23    22   ar
    26    16    12   ar
    27    16    15   ar
    28    24    25   ar
    29    12    13   ar
    30    34    35   ar
    31    15    22    1
    32    15    14   ar
    33    22    26   ar
    34    13    18    1
    35    13    14   ar
    36    25    26   ar
    37    25    32    1
    38    18    19    1
    39    14    21    1
    40    26    27    1
    41    32    36   ar
    42    21    20    3
    43    35    36   ar
    44    35    38    1
    45    36    37    1
