@<TRIPOS>MOLECULE
mol_data/opt/b3lyp/geoms/mol2/13fd13fd13fd.out
 32 34 0 0 0
SMALL
GASTEIGER

@<TRIPOS>ATOM
      1 C           1.0933   -0.0598   -1.0228 C.ar    1  LIG1        0.0455
      2 C           0.8616    1.0240   -0.2107 C.ar    1  LIG1        0.1521
      3 C          -0.4916    0.9380    0.2609 C.ar    1  LIG1        0.1198
      4 C          -1.0577   -0.2150   -0.2971 C.ar    1  LIG1        0.0878
      5 N          -0.0752   -0.8081   -1.0481 N.ar    1  LIG1       -0.3553
      6 H          -0.2564   -1.5381   -1.7194 H       1  LIG1        0.1655
      7 H           1.9779   -0.3560   -1.5617 H       1  LIG1        0.0845
      8 O           1.7722    1.9785    0.0990 O.3     1  LIG1       -0.5040
      9 H           1.3569    2.6288    0.6840 H       1  LIG1        0.2923
     10 N          -1.4290    2.6317    1.9628 N.1     1  LIG1       -0.1907
     11 C          -1.0577    1.8429    1.1888 C.1     1  LIG1        0.1050
     12 C          -2.3800   -0.7795   -0.1607 C.ar    1  LIG1        0.1080
     13 C          -3.6312   -0.1834   -0.1714 C.ar    1  LIG1        0.1616
     14 C          -4.6160   -1.2097   -0.0246 C.ar    1  LIG1        0.1205
     15 C          -3.9396   -2.4351    0.0669 C.ar    1  LIG1        0.0882
     16 N          -2.6043   -2.1509   -0.0200 N.ar    1  LIG1       -0.3478
     17 H          -1.8717   -2.8425    0.0067 H       1  LIG1        0.1661
     18 O          -3.8404    1.1411   -0.3201 O.3     1  LIG1       -0.5034
     19 H          -4.7836    1.3332   -0.2141 H       1  LIG1        0.2923
     20 N          -7.1295   -0.6579    0.1289 N.1     1  LIG1       -0.1907
     21 C          -6.0060   -0.9599    0.0588 C.1     1  LIG1        0.1050
     22 C          -4.4415   -3.7763    0.2537 C.ar    1  LIG1        0.1076
     23 C          -5.5165   -4.4311   -0.3255 C.ar    1  LIG1        0.1609
     24 C          -5.5483   -5.7676    0.1921 C.ar    1  LIG1        0.1110
     25 C          -4.4846   -5.8890    1.0793 C.ar    1  LIG1        0.0233
     26 N          -3.8191   -4.7064    1.0927 N.ar    1  LIG1       -0.3554
     27 H          -3.1192   -4.4597    1.7756 H       1  LIG1        0.1655
     28 H          -4.1853   -6.7270    1.6891 H       1  LIG1        0.0821
     29 O          -6.3292   -3.8838   -1.2530 O.3     1  LIG1       -0.5034
     30 H          -7.0651   -4.4848   -1.4382 H       1  LIG1        0.2923
     31 N          -7.2993   -7.5187   -0.5327 N.1     1  LIG1       -0.1907
     32 C          -6.4925   -6.7550   -0.1816 C.1     1  LIG1        0.1043
@<TRIPOS>BOND
     1     6     5    1
     2     7     1    1
     3    30    29    1
     4    29    23    1
     5     5     1   ar
     6     5     4   ar
     7     1     2   ar
     8    31    32    3
     9    23    24   ar
    10    23    22   ar
    11    18    19    1
    12    18    13    1
    13     4    12    1
    14     4     3   ar
    15     2     8    1
    16     2     3   ar
    17    32    24    1
    18    13    12   ar
    19    13    14   ar
    20    12    16   ar
    21    14    21    1
    22    14    15   ar
    23    16    17    1
    24    16    15   ar
    25    21    20    3
    26    15    22    1
    27     8     9    1
    28    24    25   ar
    29    22    26   ar
    30     3    11    1
    31    25    26   ar
    32    25    28    1
    33    26    27    1
    34    11    10    3
