@<TRIPOS>MOLECULE
mol_data/opt/b3lyp/geoms/mol2/13fd13fd.out
 22 23 0 0 0
SMALL
GASTEIGER

@<TRIPOS>ATOM
      1 C           1.1704   -0.2723   -0.4672 C.ar    1  LIG1        0.0455
      2 C           0.8094    0.9913   -0.0668 C.ar    1  LIG1        0.1521
      3 C          -0.6007    0.9807    0.2039 C.ar    1  LIG1        0.1198
      4 C          -1.0664   -0.3148   -0.0534 C.ar    1  LIG1        0.0878
      5 N           0.0231   -1.0526   -0.4364 N.ar    1  LIG1       -0.3553
      6 H          -0.0466   -1.9653   -0.8583 H       1  LIG1        0.1655
      7 H           2.1298   -0.6710   -0.7523 H       1  LIG1        0.0845
      8 O           1.6550    2.0420    0.0669 O.3     1  LIG1       -0.5040
      9 H           1.1508    2.8121    0.3671 H       1  LIG1        0.2923
     10 N          -1.7977    3.0617    1.1419 N.1     1  LIG1       -0.1907
     11 C          -1.3082    2.0940    0.7138 C.1     1  LIG1        0.1050
     12 C          -2.3901   -0.8840    0.0509 C.ar    1  LIG1        0.1076
     13 C          -3.6314   -0.3765   -0.2972 C.ar    1  LIG1        0.1609
     14 C          -4.6141   -1.3794   -0.0070 C.ar    1  LIG1        0.1110
     15 C          -3.9381   -2.4781    0.5130 C.ar    1  LIG1        0.0233
     16 N          -2.6147   -2.1790    0.5261 N.ar    1  LIG1       -0.3554
     17 H          -1.9106   -2.7296    0.9925 H       1  LIG1        0.1655
     18 H          -4.3218   -3.4204    0.8710 H       1  LIG1        0.0821
     19 O          -3.8282    0.8365   -0.8565 O.3     1  LIG1       -0.5034
     20 H          -4.7774    1.0110   -0.9292 H       1  LIG1        0.2923
     21 N          -7.1332   -1.0629   -0.4669 N.1     1  LIG1       -0.1907
     22 C          -6.0032   -1.2414   -0.2458 C.1     1  LIG1        0.1043
@<TRIPOS>BOND
     1    20    19    1
     2     6     5    1
     3    19    13    1
     4     7     1    1
     5     1     5   ar
     6     1     2   ar
     7    21    22    3
     8     5     4   ar
     9    13    14   ar
    10    13    12   ar
    11    22    14    1
    12     2     8    1
    13     2     3   ar
    14     4    12    1
    15     4     3   ar
    16    14    15   ar
    17    12    16   ar
    18     8     9    1
    19     3    11    1
    20    15    16   ar
    21    15    18    1
    22    16    17    1
    23    11    10    3
