@<TRIPOS>MOLECULE
mol_data/opt/b3lyp/geoms/mol2/13fd13fd-13fd.out
 32 34 0 0 0
SMALL
GASTEIGER

@<TRIPOS>ATOM
      1 C           1.3094   -0.2135    0.0010 C.ar    1  LIG1        0.0455
      2 C           0.9020    1.0993    0.0012 C.ar    1  LIG1        0.1521
      3 C          -0.5331    1.1099    0.0016 C.ar    1  LIG1        0.1198
      4 C          -0.9582   -0.2327    0.0017 C.ar    1  LIG1        0.0878
      5 N           0.1686   -0.9990    0.0012 N.ar    1  LIG1       -0.3553
      6 H           0.1442   -2.0083    0.0012 H       1  LIG1        0.1655
      7 H           2.2993   -0.6381    0.0009 H       1  LIG1        0.0845
      8 O           1.7318    2.1729    0.0012 O.3     1  LIG1       -0.5040
      9 H           1.2026    2.9823    0.0013 H       1  LIG1        0.2923
     10 N          -2.0286    3.2102    0.0025 N.1     1  LIG1       -0.1907
     11 C          -1.3531    2.2570    0.0020 C.1     1  LIG1        0.1050
     12 C          -2.2731   -0.8092    0.0015 C.ar    1  LIG1        0.1080
     13 C          -2.6469   -2.1439    0.0020 C.ar    1  LIG1        0.1616
     14 C          -4.0705   -2.2116    0.0019 C.ar    1  LIG1        0.1205
     15 C          -4.5436   -0.8822    0.0015 C.ar    1  LIG1        0.0882
     16 N          -3.4515   -0.0696    0.0013 N.ar    1  LIG1       -0.3478
     17 H          -3.5108    0.9425    0.0011 H       1  LIG1        0.1661
     18 O          -1.7527   -3.1719    0.0025 O.3     1  LIG1       -0.5034
     19 H          -2.2229   -4.0169    0.0015 H       1  LIG1        0.2923
     20 N          -5.5366   -4.3317    0.0017 N.1     1  LIG1       -0.1907
     21 C          -4.8614   -3.3783    0.0019 C.1     1  LIG1        0.1050
     22 C          -5.8812   -0.3656    0.0011 C.ar    1  LIG1        0.1076
     23 C          -6.3060    0.9563    0.0005 C.ar    1  LIG1        0.1609
     24 C          -7.7330    0.9649    0.0007 C.ar    1  LIG1        0.1110
     25 C          -8.1398   -0.3693    0.0013 C.ar    1  LIG1        0.0233
     26 N          -7.0321   -1.1476    0.0017 N.ar    1  LIG1       -0.3554
     27 H          -7.0324   -2.1585    0.0011 H       1  LIG1        0.1655
     28 H          -9.1347   -0.7857    0.0017 H       1  LIG1        0.0821
     29 O          -5.4444    2.0020   -0.0000 O.3     1  LIG1       -0.5034
     30 H          -5.9223    2.8434   -0.0002 H       1  LIG1        0.2923
     31 N          -9.1409    3.1267    0.0003 N.1     1  LIG1       -0.1907
     32 C          -8.5384    2.1295    0.0005 C.1     1  LIG1        0.1043
@<TRIPOS>BOND
     1    30    29    1
     2    29    23    1
     3    31    32    3
     4    23    24   ar
     5    23    22   ar
     6    32    24    1
     7    24    25   ar
     8     7     1    1
     9     1     5   ar
    10     1     2   ar
    11    22    15    1
    12    22    26   ar
    13    17    16    1
    14    27    26    1
    15     5     6    1
    16     5     4   ar
    17     8     2    1
    18     8     9    1
    19     2     3   ar
    20    16    12   ar
    21    16    15   ar
    22    25    28    1
    23    25    26   ar
    24    12     4    1
    25    12    13   ar
    26    15    14   ar
    27    19    18    1
    28     3     4   ar
    29     3    11    1
    30    20    21    3
    31    21    14    1
    32    14    13   ar
    33    13    18    1
    34    11    10    3
