@<TRIPOS>MOLECULE
mol_data/opt/b3lyp/geoms/mol2/13fd13hf-6fe-6hd-.out
 47 50 0 0 0
SMALL
GASTEIGER

@<TRIPOS>ATOM
      1 C           1.3071   -0.0709    0.0573 C.ar    1  LIG1        0.0455
      2 C           0.8913    1.2133    0.3048 C.ar    1  LIG1        0.1521
      3 C          -0.5450    1.2230    0.2668 C.ar    1  LIG1        0.1197
      4 C          -0.9709   -0.0883   -0.0235 C.ar    1  LIG1        0.0861
      5 N           0.1668   -0.8420   -0.1235 N.ar    1  LIG1       -0.3554
      6 H           0.1688   -1.7910   -0.4622 H       1  LIG1        0.1655
      7 H           2.2985   -0.4894    0.0071 H       1  LIG1        0.0845
      8 O           1.7108    2.2631    0.5595 O.3     1  LIG1       -0.5040
      9 H           1.1764    3.0568    0.7011 H       1  LIG1        0.2923
     10 N          -2.0057    3.2862    0.7659 N.1     1  LIG1       -0.1907
     11 C          -1.3516    2.3431    0.5465 C.1     1  LIG1        0.1050
     12 C          -2.2767   -0.6655   -0.1873 C.ar    1  LIG1        0.0893
     13 C          -3.4905   -0.1351   -0.6031 C.ar    1  LIG1        0.0944
     14 C          -4.4322   -1.2219   -0.6033 C.ar    1  LIG1        0.1637
     15 C          -3.8095   -2.3761   -0.1968 C.ar    1  LIG1        0.0960
     16 N          -2.4377   -2.0681    0.0042 N.ar    1  LIG1       -0.3484
     17 H          -2.0528   -2.4216    0.8788 H       1  LIG1        0.1661
     18 N          -3.8125    1.1106   -1.0914 N.pl3   1  LIG1       -0.3534
     19 H          -3.3295    1.9091   -0.7006 H       1  LIG1        0.1425
     20 H          -4.8064    1.2610   -1.1974 H       1  LIG1        0.1425
     21 O          -5.7058   -1.0196   -1.0333 O.3     1  LIG1       -0.5031
     22 H          -6.1389   -1.8719   -1.1833 H       1  LIG1        0.2923
     23 C          -3.5489   -4.8668   -0.4562 C.ar    1  LIG1        0.2224
     24 C          -4.3230   -3.7332   -0.0836 C.ar    1  LIG1        0.0645
     25 C          -5.6091   -4.0130    0.3793 C.ar    1  LIG1       -0.0299
     26 C          -6.1160   -5.3236    0.4360 C.ar    1  LIG1        0.0516
     27 C          -5.2697   -6.3781   -0.0112 C.ar    1  LIG1        0.0935
     28 N          -4.0120   -6.1027   -0.4146 N.ar    1  LIG1       -0.2111
     29 H          -6.2309   -3.2051    0.7528 H       1  LIG1        0.0639
     30 O          -2.2730   -4.7493   -0.8805 O.3     1  LIG1       -0.4919
     31 H          -2.0520   -3.7988   -0.9257 H       1  LIG1        0.2937
     32 C          -7.4118   -5.4993    1.0091 C.1     1  LIG1       -0.0675
     33 C          -8.5086   -5.5625    1.5181 C.1     1  LIG1       -0.1138
     34 H          -9.4724   -5.6546    1.9640 H       1  LIG1        0.1232
     35 C          -4.7328   -8.8833    0.0684 C.ar    1  LIG1        0.1255
     36 C          -5.6762   -7.8016   -0.0590 C.ar    1  LIG1        0.0424
     37 C          -7.0061   -8.1645   -0.2602 C.ar    1  LIG1       -0.0304
     38 C          -7.3986   -9.5107   -0.2677 C.ar    1  LIG1        0.0706
     39 C          -6.3995  -10.4767   -0.0595 C.ar    1  LIG1        0.0471
     40 N          -5.1197  -10.1795    0.0938 N.ar    1  LIG1       -0.2388
     41 H          -7.7562   -7.4022   -0.4197 H       1  LIG1        0.0638
     42 H          -6.6612  -11.5325   -0.0314 H       1  LIG1        0.0843
     43 N          -3.4026   -8.6812    0.2038 N.pl3   1  LIG1       -0.3426
     44 H          -2.8303   -9.5117    0.1888 H       1  LIG1        0.1437
     45 H          -3.0329   -7.7820   -0.0816 H       1  LIG1        0.1437
     46 N          -9.8686  -10.2018   -0.6405 N.1     1  LIG1       -0.1908
     47 C          -8.7591   -9.8890   -0.4745 C.1     1  LIG1        0.1007
@<TRIPOS>BOND
     1    20    18    1
     2    22    21    1
     3    18    19    1
     4    18    13    1
     5    21    14    1
     6    31    30    1
     7    30    23    1
     8    46    47    3
     9    14    13   ar
    10    14    15   ar
    11    13    12   ar
    12    47    38    1
    13     6     5    1
    14    23    28   ar
    15    23    24   ar
    16    41    37    1
    17    28    27   ar
    18    38    37   ar
    19    38    39   ar
    20    37    36   ar
    21    15    24    1
    22    15    16   ar
    23    12     4    1
    24    12    16   ar
    25     5     4   ar
    26     5     1   ar
    27    24    25   ar
    28    45    43    1
    29    39    42    1
    30    39    40   ar
    31    36    27    1
    32    36    35   ar
    33     4     3   ar
    34    27    26   ar
    35    16    17    1
    36     7     1    1
    37     1     2   ar
    38    35    40   ar
    39    35    43    1
    40    44    43    1
    41     3     2   ar
    42     3    11    1
    43     2     8    1
    44    25    26   ar
    45    25    29    1
    46    26    32    1
    47    11    10    3
    48     8     9    1
    49    32    33    3
    50    33    34    1
