@<TRIPOS>MOLECULE
mol_data/opt/b3lyp/geoms/mol2/13fd13fd-4fd13fd.out
 44 47 0 0 0
SMALL
GASTEIGER

@<TRIPOS>ATOM
      1 C           1.3959   -0.1174   -0.0104 C.ar    1  LIG1        0.0455
      2 C           0.8715    1.1484   -0.0030 C.ar    1  LIG1        0.1521
      3 C          -0.5594    1.0275    0.0024 C.ar    1  LIG1        0.1198
      4 C          -0.8783   -0.3485   -0.0014 C.ar    1  LIG1        0.0878
      5 N           0.3237   -1.0022   -0.0092 N.ar    1  LIG1       -0.3553
      6 H           0.4566   -1.9975   -0.0167 H       1  LIG1        0.1655
      7 H           2.4174   -0.4579   -0.0165 H       1  LIG1        0.0845
      8 O           1.5945    2.2939   -0.0015 O.3     1  LIG1       -0.5040
      9 H           0.9924    3.0512    0.0040 H       1  LIG1        0.2923
     10 N          -2.1343    3.0683    0.0169 N.1     1  LIG1       -0.1907
     11 C          -1.4381    2.1300    0.0106 C.1     1  LIG1        0.1050
     12 C          -2.1716   -0.9890    0.0012 C.ar    1  LIG1        0.1080
     13 C          -2.5953   -2.3210    0.0020 C.ar    1  LIG1        0.1615
     14 C          -4.0157   -2.3389    0.0026 C.ar    1  LIG1        0.1190
     15 C          -4.4576   -0.9972    0.0031 C.ar    1  LIG1        0.0717
     16 N          -3.3326   -0.2290    0.0025 N.ar    1  LIG1       -0.3489
     17 H          -3.3757    0.7826    0.0024 H       1  LIG1        0.1661
     18 O          -1.9030   -3.4901    0.0034 O.3     1  LIG1       -0.5034
     19 H          -0.9528   -3.3471    0.0104 H       1  LIG1        0.2923
     20 N          -5.4029   -4.5149    0.0045 N.1     1  LIG1       -0.1907
     21 C          -4.7815   -3.5290    0.0036 C.1     1  LIG1        0.1050
     22 C          -6.0576    0.9676    0.0056 C.ar    1  LIG1        0.1267
     23 C          -7.3456    1.4857    0.0066 C.ar    1  LIG1       -0.0091
     24 C          -5.8051   -0.4307    0.0041 C.ar    1  LIG1        0.0423
     25 C          -8.4885    0.6669    0.0062 C.ar    1  LIG1        0.0227
     26 H          -7.4681    2.5620    0.0079 H       1  LIG1        0.0661
     27 C          -6.9406   -1.2493    0.0036 C.ar    1  LIG1       -0.0310
     28 C          -8.2452   -0.7387    0.0046 C.ar    1  LIG1        0.0618
     29 H          -6.8257   -2.3255    0.0024 H       1  LIG1        0.0638
     30 O          -4.9797    1.7995    0.0061 O.3     1  LIG1       -0.5061
     31 H          -5.2390    2.7303    0.0071 H       1  LIG1        0.2922
     32 N         -10.2066   -2.4367    0.0034 N.1     1  LIG1       -0.1908
     33 C          -9.3098   -1.6918    0.0039 C.1     1  LIG1        0.0998
     34 C          -9.8052    1.2870    0.0073 C.ar    1  LIG1        0.0912
     35 C         -10.1592    2.6396    0.0085 C.ar    1  LIG1        0.1594
     36 C         -11.5817    2.7370    0.0093 C.ar    1  LIG1        0.1109
     37 C         -12.0720    1.4333    0.0087 C.ar    1  LIG1        0.0233
     38 N         -11.0190    0.5930    0.0075 N.ar    1  LIG1       -0.3565
     39 H         -11.0969   -0.4159    0.0067 H       1  LIG1        0.1655
     40 H         -13.0901    1.0771    0.0090 H       1  LIG1        0.0821
     41 O          -9.2952    3.6850    0.0088 O.3     1  LIG1       -0.5034
     42 H          -9.8019    4.5111    0.0094 H       1  LIG1        0.2923
     43 N         -12.7957    5.0119    0.0118 N.1     1  LIG1       -0.1907
     44 C         -12.2930    3.9601    0.0104 C.1     1  LIG1        0.1043
@<TRIPOS>BOND
     1     6     5    1
     2     7     1    1
     3     1     5   ar
     4     1     2   ar
     5     5     4   ar
     6     2     8    1
     7     2     3   ar
     8     8     9    1
     9     4    12    1
    10     4     3   ar
    11    12    13   ar
    12    12    16   ar
    13    13    14   ar
    14    13    18    1
    15    17    16    1
    16    29    27    1
    17     3    11    1
    18    16    15   ar
    19    14    15   ar
    20    14    21    1
    21    15    24    1
    22    18    19    1
    23    32    33    3
    24    27    24   ar
    25    27    28   ar
    26    21    20    3
    27    33    28    1
    28    24    22   ar
    29    28    25   ar
    30    22    30    1
    31    22    23   ar
    32    30    31    1
    33    25    23   ar
    34    25    34    1
    35    23    26    1
    36    39    38    1
    37    34    38   ar
    38    34    35   ar
    39    38    37   ar
    40    35    41    1
    41    35    36   ar
    42    37    40    1
    43    37    36   ar
    44    41    42    1
    45    36    44    1
    46    44    43    3
    47    11    10    3
