@<TRIPOS>MOLECULE
mol_data/opt/b3lyp/geoms/mol2/13fd13il-6ld4ef-.out
 53 56 0 0 0
SMALL
GASTEIGER

@<TRIPOS>ATOM
      1 C           1.3783   -0.2184   -0.0502 C.ar    1  LIG1        0.0441
      2 C           0.9318    1.0805   -0.2241 C.ar    1  LIG1        0.1347
      3 C          -0.4819    1.0607   -0.2363 C.ar    1  LIG1        0.0053
      4 C          -0.8820   -0.2698   -0.0675 C.ar    1  LIG1        0.0553
      5 N           0.2661   -1.0164    0.0421 N.ar    1  LIG1       -0.3575
      6 H           0.2429   -2.0156    0.1765 H       1  LIG1        0.1654
      7 H           2.3802   -0.6113    0.0135 H       1  LIG1        0.0844
      8 O           1.7690    2.1565   -0.3546 O.3     1  LIG1       -0.5053
      9 H           1.2288    2.9497   -0.4516 H       1  LIG1        0.2922
     10 H          -1.1313    1.9184   -0.3470 H       1  LIG1        0.0675
     11 C          -2.5050   -2.2155    0.2101 C.ar    1  LIG1        0.2247
     12 C          -2.2180   -0.8435   -0.0105 C.ar    1  LIG1        0.0634
     13 C          -3.3542   -0.0371   -0.1876 C.ar    1  LIG1       -0.0035
     14 C          -4.6399   -0.5636   -0.1326 C.ar    1  LIG1        0.1499
     15 C          -4.8086   -1.9398    0.1471 C.ar    1  LIG1        0.1531
     16 N          -3.7159   -2.7196    0.2945 N.ar    1  LIG1       -0.2054
     17 H          -3.2116    1.0154   -0.3942 H       1  LIG1        0.0663
     18 O          -1.4440   -3.0725    0.3524 O.3     1  LIG1       -0.4792
     19 C          -1.7526   -4.4520    0.5784 C.3     1  LIG1        0.0804
     20 H          -0.7873   -4.9549    0.6554 H       1  LIG1        0.0660
     21 H          -2.3241   -4.5794    1.5015 H       1  LIG1        0.0660
     22 H          -2.3340   -4.8645   -0.2501 H       1  LIG1        0.0660
     23 O          -5.7726    0.1815   -0.3732 O.3     1  LIG1       -0.4928
     24 C          -5.6177    1.5077   -0.8604 C.3     1  LIG1        0.0789
     25 H          -6.6246    1.8681   -1.0770 H       1  LIG1        0.0660
     26 H          -5.1538    2.1647   -0.1140 H       1  LIG1        0.0660
     27 H          -5.0203    1.5255   -1.7796 H       1  LIG1        0.0660
     28 C          -6.0945   -2.6020    0.2627 C.ar    1  LIG1        0.1793
     29 C          -7.3704   -2.2395    0.6590 C.ar    1  LIG1        0.0889
     30 C          -8.1759   -3.4378    0.6023 C.ar    1  LIG1        0.0918
     31 C          -7.3338   -4.4595    0.1884 C.ar    1  LIG1        0.1564
     32 O          -6.0896   -3.9614   -0.0049 O.2     1  LIG1       -0.4499
     33 N          -7.8351   -1.0376    1.1474 N.pl3   1  LIG1       -0.3540
     34 H          -7.3493   -0.2287    0.7816 H       1  LIG1        0.1425
     35 H          -8.8440   -0.9628    1.1404 H       1  LIG1        0.1425
     36 C          -9.5291   -3.4564    1.0175 C.1     1  LIG1       -0.0640
     37 C         -10.6703   -3.3425    1.4108 C.1     1  LIG1       -0.1137
     38 H         -11.6711   -3.2906    1.7710 H       1  LIG1        0.1232
     39 C          -8.6487   -6.5105   -0.4807 C.ar    1  LIG1        0.1308
     40 C          -8.7133   -7.8998   -0.6314 C.ar    1  LIG1       -0.0192
     41 C          -7.4598   -5.9011   -0.0090 C.ar    1  LIG1        0.0601
     42 C          -7.5992   -8.6901   -0.3444 C.ar    1  LIG1       -0.0583
     43 H          -9.6229   -8.3674   -0.9878 H       1  LIG1        0.0654
     44 C          -6.3498   -6.7221    0.2506 C.ar    1  LIG1       -0.0475
     45 C          -6.4113   -8.1033    0.0881 C.ar    1  LIG1       -0.0609
     46 H          -5.4364   -6.2504    0.5954 H       1  LIG1        0.0626
     47 H          -7.6664   -9.7671   -0.4676 H       1  LIG1        0.0619
     48 O          -9.6684   -5.6691   -0.7946 O.3     1  LIG1       -0.4944
     49 C         -10.9174   -6.2134   -1.1860 C.3     1  LIG1        0.0788
     50 H         -11.5813   -5.3594   -1.3232 H       1  LIG1        0.0660
     51 H         -10.8389   -6.7692   -2.1290 H       1  LIG1        0.0660
     52 H         -11.3305   -6.8727   -0.4125 H       1  LIG1        0.0660
     53 H          -5.5422   -8.7153    0.3069 H       1  LIG1        0.0618
@<TRIPOS>BOND
     1    51    49    1
     2    27    24    1
     3    50    49    1
     4    49    48    1
     5    49    52    1
     6    25    24    1
     7    43    40    1
     8    24    23    1
     9    24    26    1
    10    48    39    1
    11    40    39   ar
    12    40    42   ar
    13    39    41   ar
    14    47    42    1
    15     9     8    1
    16    17    13    1
    17    23    14    1
    18     8     2    1
    19    10     3    1
    20    42    45   ar
    21    22    19    1
    22     3     2   ar
    23     3     4   ar
    24     2     1   ar
    25    13    14   ar
    26    13    12   ar
    27    14    15   ar
    28     4    12    1
    29     4     5   ar
    30     1     7    1
    31     1     5   ar
    32    12    11   ar
    33    41    31    1
    34    41    44   ar
    35    32    31   ar
    36    32    28   ar
    37     5     6    1
    38    45    44   ar
    39    45    53    1
    40    15    28    1
    41    15    16   ar
    42    31    30   ar
    43    11    16   ar
    44    11    18    1
    45    44    46    1
    46    28    29   ar
    47    18    19    1
    48    19    20    1
    49    19    21    1
    50    30    29   ar
    51    30    36    1
    52    29    33    1
    53    34    33    1
    54    36    37    3
    55    35    33    1
    56    37    38    1
