@<TRIPOS>MOLECULE
mol_data/opt/b3lyp/geoms/mol2/13fd13fd-13fd13fd-.out
 42 45 0 0 0
SMALL
GASTEIGER

@<TRIPOS>ATOM
      1 C           1.4048   -0.2159   -0.0075 C.ar    1  LIG1        0.0455
      2 C           1.0138    1.1017   -0.0095 C.ar    1  LIG1        0.1521
      3 C          -0.4213    1.1304   -0.0075 C.ar    1  LIG1        0.1198
      4 C          -0.8631   -0.2072   -0.0043 C.ar    1  LIG1        0.0878
      5 N           0.2541   -0.9873   -0.0043 N.ar    1  LIG1       -0.3553
      6 H           0.2165   -1.9961   -0.0021 H       1  LIG1        0.1655
      7 H           2.3894   -0.6528   -0.0079 H       1  LIG1        0.0845
      8 O           1.8566    2.1654   -0.0129 O.3     1  LIG1       -0.5040
      9 H           1.3366    2.9807   -0.0133 H       1  LIG1        0.2923
     10 N          -1.8921    3.2480   -0.0094 N.1     1  LIG1       -0.1907
     11 C          -1.2273    2.2871   -0.0086 C.1     1  LIG1        0.1050
     12 C          -2.1847   -0.7669   -0.0013 C.ar    1  LIG1        0.1080
     13 C          -2.5764   -2.0964    0.0026 C.ar    1  LIG1        0.1616
     14 C          -4.0006   -2.1471    0.0045 C.ar    1  LIG1        0.1205
     15 C          -4.4573   -0.8111    0.0018 C.ar    1  LIG1        0.0883
     16 N          -3.3528   -0.0125   -0.0017 N.ar    1  LIG1       -0.3478
     17 H          -3.3986    0.9999   -0.0042 H       1  LIG1        0.1661
     18 O          -1.6972   -3.1371    0.0038 O.3     1  LIG1       -0.5034
     19 H          -2.1819   -3.9743    0.0085 H       1  LIG1        0.2923
     20 N          -5.4239   -4.2966    0.0116 N.1     1  LIG1       -0.1907
     21 C          -4.7850   -3.3188    0.0084 C.1     1  LIG1        0.1050
     22 C          -5.7837   -0.2721    0.0022 C.ar    1  LIG1        0.1081
     23 C          -6.1810    1.0586   -0.0012 C.ar    1  LIG1        0.1616
     24 C          -7.6043    1.0993    0.0006 C.ar    1  LIG1        0.1205
     25 C          -8.0526   -0.2400    0.0051 C.ar    1  LIG1        0.0882
     26 N          -6.9482   -1.0346    0.0059 N.ar    1  LIG1       -0.3478
     27 H          -6.9938   -2.0471    0.0090 H       1  LIG1        0.1661
     28 O          -5.2940    2.0834   -0.0058 O.3     1  LIG1       -0.5034
     29 H          -5.7445    2.9387   -0.0051 H       1  LIG1        0.2923
     30 N          -9.1358    3.1727   -0.0034 N.1     1  LIG1       -0.1907
     31 C          -8.4254    2.2458   -0.0017 C.1     1  LIG1        0.1050
     32 C          -9.3801   -0.7808    0.0087 C.ar    1  LIG1        0.1076
     33 C          -9.7795   -2.1109    0.0135 C.ar    1  LIG1        0.1609
     34 C         -11.2056   -2.1471    0.0154 C.ar    1  LIG1        0.1110
     35 C         -11.6378   -0.8206    0.0115 C.ar    1  LIG1        0.0233
     36 N         -10.5459   -0.0211    0.0077 N.ar    1  LIG1       -0.3554
     37 H         -10.5654    0.9898    0.0042 H       1  LIG1        0.1655
     38 H         -12.6405   -0.4234    0.0115 H       1  LIG1        0.0821
     39 O          -8.8990   -3.1412    0.0160 O.3     1  LIG1       -0.5034
     40 H          -9.3636   -3.9902    0.0180 H       1  LIG1        0.2923
     41 N         -12.5667   -4.3385    0.0243 N.1     1  LIG1       -0.1907
     42 C         -11.9868   -3.3279    0.0203 C.1     1  LIG1        0.1043
@<TRIPOS>BOND
     1     9     8    1
     2     8     2    1
     3     2     3   ar
     4     2     1   ar
     5    10    11    3
     6    11     3    1
     7     7     1    1
     8     3     4   ar
     9     1     5   ar
    10    28    29    1
    11    28    23    1
    12     5     4   ar
    13     5     6    1
    14     4    12    1
    15    17    16    1
    16    30    31    3
    17    16    12   ar
    18    16    15   ar
    19    31    24    1
    20    12    13   ar
    21    23    24   ar
    22    23    22   ar
    23    24    25   ar
    24    15    22    1
    25    15    14   ar
    26    22    26   ar
    27    13    18    1
    28    13    14   ar
    29    18    19    1
    30    37    36    1
    31    14    21    1
    32    25    26   ar
    33    25    32    1
    34    26    27    1
    35    36    32   ar
    36    36    35   ar
    37    21    20    3
    38    32    33   ar
    39    35    38    1
    40    35    34   ar
    41    33    34   ar
    42    33    39    1
    43    34    42    1
    44    39    40    1
    45    42    41    3
