@<TRIPOS>MOLECULE
mol_data/opt/b3lyp/geoms/mol2/13fe13fe.out
 24 25 0 0 0
SMALL
GASTEIGER

@<TRIPOS>ATOM
      1 C           1.1941   -0.2973   -0.0005 C.ar    1  LIG1        0.0454
      2 C           0.7735    1.0067   -0.0002 C.ar    1  LIG1        0.1501
      3 C          -0.6643    1.0248    0.0003 C.ar    1  LIG1        0.0928
      4 C          -1.0942   -0.3152    0.0003 C.ar    1  LIG1        0.0857
      5 N           0.0489   -1.0820   -0.0001 N.ar    1  LIG1       -0.3554
      6 H           0.0797   -2.0861   -0.0004 H       1  LIG1        0.1655
      7 H           2.1825   -0.7260   -0.0008 H       1  LIG1        0.0845
      8 O           1.5689    2.1059   -0.0003 O.3     1  LIG1       -0.5040
      9 H           0.9798    2.8781   -0.0000 H       1  LIG1        0.2923
     10 C          -1.3504    2.2611    0.0007 C.1     1  LIG1       -0.0638
     11 C          -1.7442    3.4094    0.0010 C.1     1  LIG1       -0.1137
     12 H          -2.1704    4.3853    0.0013 H       1  LIG1        0.1232
     13 C          -2.4070   -0.9218    0.0006 C.ar    1  LIG1        0.1074
     14 C          -3.6914   -0.3901    0.0011 C.ar    1  LIG1        0.1589
     15 C          -4.6385   -1.4660    0.0014 C.ar    1  LIG1        0.0840
     16 C          -3.9048   -2.6437    0.0010 C.ar    1  LIG1        0.0213
     17 N          -2.5847   -2.3105    0.0006 N.ar    1  LIG1       -0.3554
     18 H          -1.8467   -2.9928   -0.0001 H       1  LIG1        0.1655
     19 H          -4.2359   -3.6702    0.0010 H       1  LIG1        0.0820
     20 O          -4.0048    0.9261    0.0014 O.3     1  LIG1       -0.5035
     21 H          -4.9717    0.9963    0.0018 H       1  LIG1        0.2923
     22 C          -6.0419   -1.2821    0.0019 C.1     1  LIG1       -0.0645
     23 C          -7.2294   -1.0378    0.0024 C.1     1  LIG1       -0.1137
     24 H          -8.2793   -0.8572    0.0029 H       1  LIG1        0.1232
@<TRIPOS>BOND
     1     7     1    1
     2     1     2   ar
     3     1     5   ar
     4     6     5    1
     5     8     2    1
     6     8     9    1
     7     2     3   ar
     8     5     4   ar
     9    18    17    1
    10     4     3   ar
    11     4    13    1
    12     3    10    1
    13    17    13   ar
    14    17    16   ar
    15    13    14   ar
    16    10    11    3
    17    19    16    1
    18    16    15   ar
    19    11    12    1
    20    14    15   ar
    21    14    20    1
    22    15    22    1
    23    20    21    1
    24    22    23    3
    25    23    24    1
