@<TRIPOS>MOLECULE
mol_data/opt/b3lyp/geoms/mol2/13fe13fe-13fe-13fe-.out
 46 49 0 0 0
SMALL
GASTEIGER

@<TRIPOS>ATOM
      1 C           1.3607   -0.1688   -0.2959 C.ar    1  LIG1        0.0454
      2 C           0.9027    1.1092   -0.5116 C.ar    1  LIG1        0.1501
      3 C          -0.5310    1.0893   -0.4403 C.ar    1  LIG1        0.0928
      4 C          -0.9014   -0.2426   -0.1756 C.ar    1  LIG1        0.0857
      5 N           0.2496   -0.9720   -0.0939 N.ar    1  LIG1       -0.3554
      6 H           0.2576   -1.9646    0.0868 H       1  LIG1        0.1655
      7 H           2.3644   -0.5593   -0.2708 H       1  LIG1        0.0845
      8 O           1.6830    2.1973   -0.7502 O.3     1  LIG1       -0.5040
      9 H           1.0992    2.9580   -0.8802 H       1  LIG1        0.2923
     10 C          -1.3731    2.2075   -0.6273 C.1     1  LIG1       -0.0638
     11 C          -2.0656    3.1930   -0.7957 C.1     1  LIG1       -0.1137
     12 H          -2.6605    4.0596   -0.9702 H       1  LIG1        0.1232
     13 C          -2.1960   -0.8370   -0.0115 C.ar    1  LIG1        0.1079
     14 C          -2.5608   -2.1513    0.2158 C.ar    1  LIG1        0.1596
     15 C          -3.9840   -2.2268    0.3020 C.ar    1  LIG1        0.0935
     16 C          -4.4738   -0.9197    0.1051 C.ar    1  LIG1        0.0862
     17 N          -3.3816   -0.1078   -0.0630 N.ar    1  LIG1       -0.3478
     18 H          -3.4072    0.8436   -0.4035 H       1  LIG1        0.1661
     19 O          -1.6677   -3.1734    0.3569 O.3     1  LIG1       -0.5034
     20 H          -2.1604   -3.9936    0.5044 H       1  LIG1        0.2923
     21 C          -4.7117   -3.4000    0.5955 C.1     1  LIG1       -0.0638
     22 C          -5.3014   -4.4372    0.8285 C.1     1  LIG1       -0.1137
     23 H          -5.8290   -5.3279    1.0824 H       1  LIG1        0.1232
     24 C          -5.8167   -0.4099    0.0839 C.ar    1  LIG1        0.1079
     25 C          -7.0292   -0.9870   -0.2896 C.ar    1  LIG1        0.1596
     26 C          -8.0453    0.0153   -0.2152 C.ar    1  LIG1        0.0935
     27 C          -7.4282    1.2071    0.2027 C.ar    1  LIG1        0.0862
     28 N          -6.0990    0.9285    0.3792 N.ar    1  LIG1       -0.3478
     29 H          -5.4104    1.6091    0.6563 H       1  LIG1        0.1661
     30 O          -7.2938   -2.2439   -0.7044 O.3     1  LIG1       -0.5034
     31 H          -6.5800   -2.8470   -0.4369 H       1  LIG1        0.2923
     32 C          -9.4232   -0.1662   -0.4727 C.1     1  LIG1       -0.0638
     33 C         -10.6077   -0.2918   -0.7058 C.1     1  LIG1       -0.1137
     34 H         -11.6510   -0.4358   -0.8673 H       1  LIG1        0.1232
     35 C          -7.9740    2.5146    0.4584 C.ar    1  LIG1        0.1074
     36 C          -9.0212    3.2150   -0.1367 C.ar    1  LIG1        0.1589
     37 C          -9.0489    4.5370    0.4246 C.ar    1  LIG1        0.0840
     38 C          -8.0210    4.5954    1.3534 C.ar    1  LIG1        0.0213
     39 N          -7.3568    3.4013    1.3501 N.ar    1  LIG1       -0.3554
     40 H          -6.7888    3.0899    2.1237 H       1  LIG1        0.1655
     41 H          -7.7381    5.4009    2.0133 H       1  LIG1        0.0820
     42 O          -9.8533    2.8355   -1.1269 O.3     1  LIG1       -0.5035
     43 H          -9.9212    1.8636   -1.1537 H       1  LIG1        0.2923
     44 C          -9.9444    5.5810    0.0823 C.1     1  LIG1       -0.0645
     45 C         -10.7084    6.4742   -0.2057 C.1     1  LIG1       -0.1137
     46 H         -11.3862    7.2535   -0.4649 H       1  LIG1        0.1232
@<TRIPOS>BOND
     1    43    42    1
     2    42    36    1
     3    12    11    1
     4     9     8    1
     5    34    33    1
     6    11    10    3
     7     8     2    1
     8    33    32    3
     9    30    31    1
    10    30    25    1
    11    10     3    1
    12     2     3   ar
    13     2     1   ar
    14    32    26    1
    15    46    45    1
    16     3     4   ar
    17    18    17    1
    18     1     7    1
    19     1     5   ar
    20    25    26   ar
    21    25    24   ar
    22    26    27   ar
    23    45    44    3
    24     4     5   ar
    25     4    13    1
    26    36    37   ar
    27    36    35   ar
    28     5     6    1
    29    17    13   ar
    30    17    16   ar
    31    13    14   ar
    32    44    37    1
    33    24    16    1
    34    24    28   ar
    35    16    15   ar
    36    27    28   ar
    37    27    35    1
    38    14    15   ar
    39    14    19    1
    40    15    21    1
    41    19    20    1
    42    28    29    1
    43    37    38   ar
    44    35    39   ar
    45    21    22    3
    46    22    23    1
    47    39    38   ar
    48    39    40    1
    49    38    41    1
