@<TRIPOS>MOLECULE
mol_data/opt/b3lyp/geoms/mol2/13fe13fe13fe-13fe.out
 46 49 0 0 0
SMALL
GASTEIGER

@<TRIPOS>ATOM
      1 C           1.1852   -0.1002    0.7531 C.ar    1  LIG1        0.0454
      2 C           0.8929    1.0749    0.1075 C.ar    1  LIG1        0.1501
      3 C          -0.5106    1.0880   -0.2015 C.ar    1  LIG1        0.0928
      4 C          -1.0453   -0.1106    0.2889 C.ar    1  LIG1        0.0857
      5 N          -0.0002   -0.8208    0.8337 N.ar    1  LIG1       -0.3554
      6 H          -0.1352   -1.6144    1.4396 H       1  LIG1        0.1655
      7 H           2.1176   -0.4838    1.1334 H       1  LIG1        0.0845
      8 O           1.7812    2.0515   -0.2160 O.3     1  LIG1       -0.5040
      9 H           1.2861    2.7418   -0.6836 H       1  LIG1        0.2923
     10 C          -1.1221    2.1258   -0.9406 C.1     1  LIG1       -0.0638
     11 C          -1.5345    3.0656   -1.5876 C.1     1  LIG1       -0.1137
     12 H          -1.9455    3.8721   -2.1485 H       1  LIG1        0.1232
     13 C          -2.3820   -0.6515    0.2633 C.ar    1  LIG1        0.1079
     14 C          -3.6292   -0.0645    0.4078 C.ar    1  LIG1        0.1596
     15 C          -4.6251   -1.0917    0.3684 C.ar    1  LIG1        0.0935
     16 C          -3.9464   -2.3120    0.2016 C.ar    1  LIG1        0.0862
     17 N          -2.6092   -2.0268    0.1625 N.ar    1  LIG1       -0.3478
     18 H          -1.9175   -2.7072   -0.1180 H       1  LIG1        0.1661
     19 O          -3.8540    1.2569    0.6053 O.3     1  LIG1       -0.5034
     20 H          -4.8108    1.3852    0.6837 H       1  LIG1        0.2923
     21 C          -6.0131   -0.8697    0.5055 C.1     1  LIG1       -0.0638
     22 C          -7.1967   -0.6257    0.6271 C.1     1  LIG1       -0.1137
     23 H          -8.2369   -0.4242    0.7345 H       1  LIG1        0.1232
     24 C          -4.4317   -3.6522    0.0573 C.ar    1  LIG1        0.1079
     25 C          -3.7261   -4.8296   -0.1408 C.ar    1  LIG1        0.1596
     26 C          -4.6483   -5.9106   -0.2385 C.ar    1  LIG1        0.0935
     27 C          -5.9345   -5.3495   -0.0923 C.ar    1  LIG1        0.0862
     28 N          -5.7763   -4.0054    0.0832 N.ar    1  LIG1       -0.3478
     29 H          -6.5409   -3.3542    0.2107 H       1  LIG1        0.1661
     30 O          -2.3645   -4.8959   -0.2257 O.3     1  LIG1       -0.5034
     31 H          -2.1161   -5.8124   -0.4148 H       1  LIG1        0.2923
     32 C          -4.2933   -7.2622   -0.4443 C.1     1  LIG1       -0.0638
     33 C          -3.9417   -8.4115   -0.6238 C.1     1  LIG1       -0.1137
     34 H          -3.6313   -9.4188   -0.7796 H       1  LIG1        0.1232
     35 C          -7.2261   -5.9725   -0.1071 C.ar    1  LIG1        0.1074
     36 C          -8.4909   -5.4208    0.0366 C.ar    1  LIG1        0.1589
     37 C          -9.4597   -6.4659   -0.0535 C.ar    1  LIG1        0.0840
     38 C          -8.7425   -7.6447   -0.2531 C.ar    1  LIG1        0.0213
     39 N          -7.4194   -7.3379   -0.2827 N.ar    1  LIG1       -0.3554
     40 H          -6.6601   -7.9908   -0.4127 H       1  LIG1        0.1655
     41 H          -9.0984   -8.6558   -0.3720 H       1  LIG1        0.0820
     42 O          -8.7275   -4.0936    0.2307 O.3     1  LIG1       -0.5035
     43 H          -9.6857   -3.9670    0.2985 H       1  LIG1        0.2923
     44 C         -10.8574   -6.2668    0.0495 C.1     1  LIG1       -0.0645
     45 C         -12.0385   -6.0121    0.1485 C.1     1  LIG1       -0.1137
     46 H         -13.0837   -5.8231    0.2309 H       1  LIG1        0.1232
@<TRIPOS>BOND
     1    12    11    1
     2    11    10    3
     3    10     3    1
     4    34    33    1
     5     9     8    1
     6    33    32    3
     7    32    26    1
     8    31    30    1
     9    40    39    1
    10    41    38    1
    11    39    38   ar
    12    39    35   ar
    13    38    37   ar
    14    26    25   ar
    15    26    27   ar
    16    30    25    1
    17     8     2    1
    18     3     2   ar
    19     3     4   ar
    20    25    24   ar
    21    18    17    1
    22    35    27    1
    23    35    36   ar
    24    27    28   ar
    25    37    36   ar
    26    37    44    1
    27    36    42    1
    28    44    45    3
    29    24    28   ar
    30    24    16    1
    31    28    29    1
    32     2     1   ar
    33    45    46    1
    34    17    16   ar
    35    17    13   ar
    36    16    15   ar
    37    42    43    1
    38    13     4    1
    39    13    14   ar
    40     4     5   ar
    41    15    14   ar
    42    15    21    1
    43    14    19    1
    44    21    22    3
    45    19    20    1
    46    22    23    1
    47     1     5   ar
    48     1     7    1
    49     5     6    1
