@<TRIPOS>MOLECULE
mol_data/opt/b3lyp/geoms/mol2/13fe13fe-13fe.out
 35 37 0 0 0
SMALL
GASTEIGER

@<TRIPOS>ATOM
      1 C           1.2964   -0.2518    0.0009 C.ar    1  LIG1        0.0454
      2 C           0.8973    1.0633    0.0037 C.ar    1  LIG1        0.1501
      3 C          -0.5374    1.0977    0.0038 C.ar    1  LIG1        0.0928
      4 C          -0.9719   -0.2400    0.0010 C.ar    1  LIG1        0.0857
      5 N           0.1467   -1.0253   -0.0007 N.ar    1  LIG1       -0.3554
      6 H           0.1071   -2.0334   -0.0027 H       1  LIG1        0.1655
      7 H           2.2819   -0.6871    0.0000 H       1  LIG1        0.0845
      8 O           1.7247    2.1437    0.0059 O.3     1  LIG1       -0.5040
      9 H           1.1684    2.9361    0.0069 H       1  LIG1        0.2923
     10 C          -1.3156    2.2758    0.0063 C.1     1  LIG1       -0.0638
     11 C          -1.9381    3.3193    0.0085 C.1     1  LIG1       -0.1137
     12 H          -2.4955    4.2266    0.0104 H       1  LIG1        0.1232
     13 C          -2.2904   -0.8081   -0.0002 C.ar    1  LIG1        0.1079
     14 C          -2.6799   -2.1378   -0.0031 C.ar    1  LIG1        0.1596
     15 C          -4.1037   -2.2030   -0.0033 C.ar    1  LIG1        0.0935
     16 C          -4.5618   -0.8692   -0.0003 C.ar    1  LIG1        0.0862
     17 N          -3.4622   -0.0605    0.0014 N.ar    1  LIG1       -0.3478
     18 H          -3.4989    0.9513    0.0039 H       1  LIG1        0.1661
     19 O          -1.8057   -3.1881   -0.0055 O.3     1  LIG1       -0.5034
     20 H          -2.3177   -4.0096   -0.0072 H       1  LIG1        0.2923
     21 C          -4.8603   -3.3956   -0.0058 C.1     1  LIG1       -0.0638
     22 C          -5.4704   -4.4468   -0.0081 C.1     1  LIG1       -0.1137
     23 H          -6.0033   -5.3694   -0.0101 H       1  LIG1        0.1232
     24 C          -5.8978   -0.3465    0.0010 C.ar    1  LIG1        0.1074
     25 C          -6.3495    0.9649    0.0041 C.ar    1  LIG1        0.1589
     26 C          -7.7777    0.9578    0.0042 C.ar    1  LIG1        0.0840
     27 C          -8.1599   -0.3830    0.0011 C.ar    1  LIG1        0.0213
     28 N          -7.0353   -1.1453   -0.0008 N.ar    1  LIG1       -0.3554
     29 H          -7.0002   -2.1546   -0.0032 H       1  LIG1        0.1655
     30 H          -9.1467   -0.8182    0.0002 H       1  LIG1        0.0820
     31 O          -5.5313    2.0541    0.0065 O.3     1  LIG1       -0.5035
     32 H          -6.0880    2.8470    0.0092 H       1  LIG1        0.2923
     33 C          -8.5802    2.1238    0.0071 C.1     1  LIG1       -0.0645
     34 C          -9.1951    3.1687    0.0097 C.1     1  LIG1       -0.1137
     35 H          -9.7660    4.0680    0.0119 H       1  LIG1        0.1232
@<TRIPOS>BOND
     1    23    22    1
     2    22    21    3
     3    20    19    1
     4    21    15    1
     5    19    14    1
     6    15    14   ar
     7    15    16   ar
     8    29    28    1
     9    14    13   ar
    10     6     5    1
    11    28    24   ar
    12    28    27   ar
    13     5     1   ar
    14     5     4   ar
    15    16    24    1
    16    16    17   ar
    17    13     4    1
    18    13    17   ar
    19     7     1    1
    20    30    27    1
    21     1     2   ar
    22    24    25   ar
    23     4     3   ar
    24    27    26   ar
    25    17    18    1
    26     2     3   ar
    27     2     8    1
    28     3    10    1
    29    25    26   ar
    30    25    31    1
    31    26    33    1
    32     8     9    1
    33    10    11    3
    34    31    32    1
    35    33    34    3
    36    11    12    1
    37    34    35    1
