@<TRIPOS>MOLECULE
mol_data/opt/b3lyp/geoms/mol2/13fe4ai4fl12ah6ha13ih-13df-4fl-.out
 99 106 0 0 0
SMALL
GASTEIGER

@<TRIPOS>ATOM
      1 C           1.3320    0.8881    0.3056 C.ar    1  LIG1        0.0454
      2 C           0.9118    1.9084   -0.5144 C.ar    1  LIG1        0.1500
      3 C          -0.4745    1.6981   -0.8163 C.ar    1  LIG1        0.0912
      4 C          -0.8700    0.5266   -0.1483 C.ar    1  LIG1        0.0657
      5 N           0.2346    0.0746    0.5252 N.ar    1  LIG1       -0.3566
      6 H           0.2738   -0.8164    0.9923 H       1  LIG1        0.1655
      7 H           2.2975    0.6834    0.7381 H       1  LIG1        0.0845
      8 O           1.6761    2.9428   -0.9516 O.3     1  LIG1       -0.5040
      9 H           1.1119    3.5044   -1.5045 H       1  LIG1        0.2923
     10 C          -1.2255    2.6000   -1.6054 C.1     1  LIG1       -0.0639
     11 C          -1.7704    3.4326   -2.3005 C.1     1  LIG1       -0.1137
     12 H          -2.2874    4.1501   -2.8943 H       1  LIG1        0.1232
     13 C          -3.1106   -0.0273   -1.1032 C.ar    1  LIG1       -0.0520
     14 C          -4.3187   -0.7046   -1.0224 C.ar    1  LIG1       -0.0530
     15 C          -2.1548   -0.1649   -0.0822 C.ar    1  LIG1       -0.0001
     16 C          -4.6250   -1.5559    0.0523 C.ar    1  LIG1       -0.0113
     17 H          -5.0467   -0.5863   -1.8181 H       1  LIG1        0.0624
     18 C          -2.4757   -0.9912    1.0082 C.ar    1  LIG1       -0.0491
     19 C          -3.6814   -1.6928    1.0957 C.ar    1  LIG1       -0.0420
     20 H          -1.7852   -1.0598    1.8457 H       1  LIG1        0.0627
     21 H          -2.8990    0.6028   -1.9592 H       1  LIG1        0.0624
     22 C          -3.9457   -2.5358    2.3245 C.3     1  LIG1       -0.0391
     23 H          -3.3314   -2.1952    3.1629 H       1  LIG1        0.0278
     24 H          -3.7068   -3.5929    2.1573 H       1  LIG1        0.0278
     25 H          -4.9944   -2.4896    2.6288 H       1  LIG1        0.0278
     26 C          -7.1588   -1.6161   -0.0466 C.ar    1  LIG1        0.1254
     27 C          -8.3541   -2.3263   -0.0765 C.ar    1  LIG1       -0.0054
     28 C          -5.9210   -2.2899    0.0515 C.ar    1  LIG1        0.0273
     29 C          -8.3979   -3.7336   -0.0127 C.ar    1  LIG1        0.0624
     30 H          -9.2877   -1.7727   -0.1380 H       1  LIG1        0.0662
     31 C          -5.9695   -3.6859    0.1172 C.ar    1  LIG1       -0.0080
     32 C          -7.1615   -4.4087    0.0933 C.ar    1  LIG1        0.1315
     33 H          -5.0439   -4.2507    0.1578 H       1  LIG1        0.0661
     34 O          -7.1374   -0.2493   -0.0981 O.3     1  LIG1       -0.5061
     35 H          -8.0451    0.0782   -0.1447 H       1  LIG1        0.2922
     36 O          -7.0821   -5.7916    0.1266 O.3     1  LIG1       -0.4944
     37 C          -7.0079   -6.3368    1.4473 C.3     1  LIG1        0.0788
     38 H          -6.9340   -7.4201    1.3329 H       1  LIG1        0.0660
     39 H          -6.1231   -5.9644    1.9784 H       1  LIG1        0.0660
     40 H          -7.9073   -6.0976    2.0255 H       1  LIG1        0.0660
     41 C          -9.6881   -4.3995   -0.0962 C.ar    1  LIG1        0.1411
     42 C         -10.9552   -3.9401   -0.3749 C.ar    1  LIG1        0.0057
     43 C         -11.8300   -5.0649   -0.3535 C.ar    1  LIG1        0.0717
     44 C         -11.0485   -6.1668   -0.0506 C.ar    1  LIG1        0.1595
     45 O          -9.7452   -5.7462    0.1104 O.2     1  LIG1       -0.4527
     46 H         -11.2383   -2.9219   -0.6003 H       1  LIG1        0.0674
     47 N         -13.2119   -5.0378   -0.5707 N.pl3   1  LIG1       -0.3550
     48 H         -13.5004   -4.2669   -1.1610 H       1  LIG1        0.1424
     49 H         -13.5699   -5.9101   -0.9441 H       1  LIG1        0.1424
     50 C         -10.3823   -8.6054   -0.2432 C.ar    1  LIG1        0.1277
     51 C         -11.3315   -7.5804    0.0914 C.ar    1  LIG1        0.0586
     52 C         -12.5860   -8.0207    0.5314 C.ar    1  LIG1       -0.0456
     53 C         -12.8915   -9.3744    0.6217 C.ar    1  LIG1       -0.0334
     54 C         -11.8963  -10.3024    0.2846 C.ar    1  LIG1        0.0896
     55 N         -10.6719   -9.9056   -0.1337 N.ar    1  LIG1       -0.2302
     56 H         -13.3264   -7.2837    0.8284 H       1  LIG1        0.0626
     57 N          -9.1411   -8.3109   -0.7377 N.pl3   1  LIG1       -0.3426
     58 H          -8.5223   -9.0976   -0.8526 H       1  LIG1        0.1437
     59 H          -8.7355   -7.3928   -0.6277 H       1  LIG1        0.1437
     60 H         -13.8714   -9.6924    0.9481 H       1  LIG1        0.0640
     61 C         -12.0844  -11.7477    0.3366 C.ar    1  LIG1        0.0702
     62 C         -13.1456  -12.5813    0.7130 C.ar    1  LIG1       -0.0024
     63 C         -12.7467  -13.9204    0.4324 C.ar    1  LIG1        0.0553
     64 C         -11.4414  -13.8777   -0.0932 C.ar    1  LIG1        0.0859
     65 N         -11.0632  -12.5443   -0.1046 N.ar    1  LIG1       -0.3501
     66 H         -10.2814  -12.1387   -0.5986 H       1  LIG1        0.1661
     67 C         -14.4485  -12.1996    1.3550 C.3     1  LIG1       -0.0359
     68 H         -14.9146  -13.0656    1.8349 H       1  LIG1        0.0279
     69 H         -15.1746  -11.7927    0.6388 H       1  LIG1        0.0279
     70 H         -14.3081  -11.4515    2.1412 H       1  LIG1        0.0279
     71 N         -13.4870  -15.0515    0.7664 N.pl3   1  LIG1       -0.3561
     72 H         -14.4831  -14.8784    0.7922 H       1  LIG1        0.1424
     73 H         -13.2999  -15.8735    0.2044 H       1  LIG1        0.1424
     74 C         -10.4892  -14.8933   -0.4460 C.ar    1  LIG1        0.0864
     75 C         -10.6209  -16.2047   -0.9363 C.ar    1  LIG1        0.1204
     76 C          -9.3057  -16.7563   -1.0673 C.ar    1  LIG1        0.1602
     77 C          -8.3856  -15.7860   -0.6810 C.ar    1  LIG1        0.0939
     78 N          -9.1430  -14.6547   -0.3380 N.ar    1  LIG1       -0.3489
     79 H          -8.7834  -13.9316    0.2672 H       1  LIG1        0.1661
     80 N         -12.8372  -17.3436   -1.5966 N.1     1  LIG1       -0.1907
     81 C         -11.8211  -16.8435   -1.3137 C.1     1  LIG1        0.1050
     82 O          -9.1023  -17.9863   -1.5732 O.3     1  LIG1       -0.5034
     83 H          -8.2043  -18.2669   -1.3121 H       1  LIG1        0.2923
     84 C          -6.0974  -16.8531   -0.5400 C.ar    1  LIG1        0.1263
     85 C          -4.7157  -16.7319   -0.5382 C.ar    1  LIG1       -0.0161
     86 C          -6.9299  -15.7181   -0.6866 C.ar    1  LIG1        0.0468
     87 C          -4.0936  -15.4853   -0.6603 C.ar    1  LIG1       -0.0165
     88 H          -4.1024  -17.6234   -0.4232 H       1  LIG1        0.0655
     89 C          -6.2855  -14.4764   -0.8169 C.ar    1  LIG1       -0.0072
     90 C          -4.8933  -14.3483   -0.7973 C.ar    1  LIG1        0.1209
     91 H          -6.8686  -13.5764   -0.9765 H       1  LIG1        0.0662
     92 H          -3.0130  -15.4253   -0.6492 H       1  LIG1        0.0655
     93 O          -6.7078  -18.0873   -0.3732 O.3     1  LIG1       -0.5061
     94 H          -6.0327  -18.7711   -0.2756 H       1  LIG1        0.2922
     95 O          -4.4186  -13.0722   -0.9342 O.3     1  LIG1       -0.4951
     96 C          -3.0130  -12.8861   -0.9647 C.3     1  LIG1        0.0788
     97 H          -2.8527  -11.8146   -1.0928 H       1  LIG1        0.0660
     98 H          -2.5397  -13.2113   -0.0290 H       1  LIG1        0.0660
     99 H          -2.5513  -13.4221   -1.8040 H       1  LIG1        0.0660
@<TRIPOS>BOND
     1    12    11    1
     2    11    10    3
     3    21    13    1
     4    17    14    1
     5    99    96    1
     6    10     3    1
     7    80    81    3
     8    82    83    1
     9    82    76    1
    10     9     8    1
    11    81    75    1
    12    48    47    1
    13    13    14   ar
    14    13    15   ar
    15    97    96    1
    16    76    75   ar
    17    76    77   ar
    18    14    16   ar
    19    91    89    1
    20    96    95    1
    21    96    98    1
    22     8     2    1
    23    49    47    1
    24    75    74   ar
    25    95    90    1
    26    58    57    1
    27    89    90   ar
    28    89    86   ar
    29     3     2   ar
    30     3     4   ar
    31    90    87   ar
    32    57    59    1
    33    57    50    1
    34    86    77    1
    35    86    84   ar
    36    77    78   ar
    37    87    92    1
    38    87    85   ar
    39    46    42    1
    40    66    65    1
    41    47    43    1
    42    84    85   ar
    43    84    93    1
    44    85    88    1
    45     2     1   ar
    46    74    78   ar
    47    74    64    1
    48    42    43   ar
    49    42    41   ar
    50    93    94    1
    51    43    44   ar
    52    78    79    1
    53    50    55   ar
    54    50    51   ar
    55     4    15    1
    56     4     5   ar
    57    35    34    1
    58    30    27    1
    59    55    54   ar
    60    65    64   ar
    61    65    61   ar
    62    34    26    1
    63    41    29    1
    64    41    45   ar
    65    64    63   ar
    66    15    18   ar
    67    27    26   ar
    68    27    29   ar
    69    44    51    1
    70    44    45   ar
    71    26    28   ar
    72    29    32   ar
    73    28    16    1
    74    28    31   ar
    75    16    19   ar
    76    51    52   ar
    77    32    31   ar
    78    32    36    1
    79    31    33    1
    80    36    37    1
    81    73    71    1
    82    54    61    1
    83    54    53   ar
    84     1     5   ar
    85     1     7    1
    86    61    62   ar
    87    63    62   ar
    88    63    71    1
    89     5     6    1
    90    52    53   ar
    91    52    56    1
    92    53    60    1
    93    69    67    1
    94    62    67    1
    95    71    72    1
    96    18    19   ar
    97    18    20    1
    98    19    22    1
    99    38    37    1
   100    67    68    1
   101    67    70    1
   102    37    39    1
   103    37    40    1
   104    24    22    1
   105    22    25    1
   106    22    23    1
