@<TRIPOS>MOLECULE
mol_data/opt/b3lyp/geoms/mol2/13fe13fe-13fe-13fe.out
 46 49 0 0 0
SMALL
GASTEIGER

@<TRIPOS>ATOM
      1 C           1.3281   -0.1889   -0.1901 C.ar    1  LIG1        0.0454
      2 C           0.8758    1.0775   -0.4747 C.ar    1  LIG1        0.1501
      3 C          -0.5588    1.0608   -0.4349 C.ar    1  LIG1        0.0928
      4 C          -0.9365   -0.2574   -0.1174 C.ar    1  LIG1        0.0857
      5 N           0.2115   -0.9826    0.0235 N.ar    1  LIG1       -0.3554
      6 H           0.2144   -1.9649    0.2536 H       1  LIG1        0.1655
      7 H           2.3307   -0.5776   -0.1239 H       1  LIG1        0.0845
      8 O           1.6614    2.1550   -0.7458 O.3     1  LIG1       -0.5040
      9 H           1.0788    2.9084   -0.9176 H       1  LIG1        0.2923
     10 C          -1.4019    2.1675   -0.6780 C.1     1  LIG1       -0.0638
     11 C          -2.1077    3.1336   -0.8952 C.1     1  LIG1       -0.1137
     12 H          -2.7361    3.9734   -1.0816 H       1  LIG1        0.1232
     13 C          -2.2367   -0.8399    0.0448 C.ar    1  LIG1        0.1079
     14 C          -2.6148   -2.1364    0.3425 C.ar    1  LIG1        0.1596
     15 C          -4.0405   -2.2020    0.3923 C.ar    1  LIG1        0.0935
     16 C          -4.5166   -0.9059    0.1007 C.ar    1  LIG1        0.0862
     17 N          -3.4165   -0.1132   -0.0881 N.ar    1  LIG1       -0.3478
     18 H          -3.4329    0.8294   -0.4527 H       1  LIG1        0.1661
     19 O          -1.7314   -3.1523    0.5689 O.3     1  LIG1       -0.5034
     20 H          -2.2338   -3.9572    0.7605 H       1  LIG1        0.2923
     21 C          -4.7793   -3.3539    0.7358 C.1     1  LIG1       -0.0638
     22 C          -5.3748   -4.3759    1.0182 C.1     1  LIG1       -0.1137
     23 H          -5.9086   -5.2492    1.3151 H       1  LIG1        0.1232
     24 C          -5.8487   -0.3788    0.0070 C.ar    1  LIG1        0.1079
     25 C          -7.0709   -0.9665   -0.3225 C.ar    1  LIG1        0.1596
     26 C          -8.0593    0.0637   -0.3898 C.ar    1  LIG1        0.0935
     27 C          -7.4081    1.2732   -0.0914 C.ar    1  LIG1        0.0862
     28 N          -6.0889    0.9924    0.1237 N.ar    1  LIG1       -0.3478
     29 H          -5.4555    1.6658    0.5321 H       1  LIG1        0.1661
     30 O          -7.3581   -2.2525   -0.6168 O.3     1  LIG1       -0.5034
     31 H          -6.6534   -2.8394   -0.2941 H       1  LIG1        0.2923
     32 C          -9.4291   -0.0961   -0.7051 C.1     1  LIG1       -0.0638
     33 C         -10.6084   -0.2043   -0.9703 C.1     1  LIG1       -0.1137
     34 H         -11.6354   -0.3499   -1.2126 H       1  LIG1        0.1232
     35 C          -7.9118    2.6100    0.0355 C.ar    1  LIG1        0.1074
     36 C          -7.2514    3.7807    0.3788 C.ar    1  LIG1        0.1589
     37 C          -8.1936    4.8524    0.3885 C.ar    1  LIG1        0.0840
     38 C          -9.4225    4.2905    0.0412 C.ar    1  LIG1        0.0213
     39 N          -9.2398    2.9611   -0.1658 N.ar    1  LIG1       -0.3554
     40 H          -9.9479    2.2878   -0.4270 H       1  LIG1        0.1655
     41 H         -10.3879    4.7593   -0.0659 H       1  LIG1        0.0820
     42 O          -5.9163    3.8528    0.6597 O.3     1  LIG1       -0.5035
     43 H          -5.7218    4.7564    0.9510 H       1  LIG1        0.2923
     44 C          -7.8702    6.1941    0.7036 C.1     1  LIG1       -0.0645
     45 C          -7.5109    7.3164    0.9886 C.1     1  LIG1       -0.1137
     46 H          -7.2298    8.3146    1.2322 H       1  LIG1        0.1232
@<TRIPOS>BOND
     1    34    33    1
     2    12    11    1
     3    33    32    3
     4     9     8    1
     5    11    10    3
     6     8     2    1
     7    32    26    1
     8    10     3    1
     9    30    25    1
    10    30    31    1
    11     2     3   ar
    12     2     1   ar
    13    18    17    1
    14     3     4   ar
    15    40    39    1
    16    26    25   ar
    17    26    27   ar
    18    25    24   ar
    19     1     7    1
    20     1     5   ar
    21    39    35   ar
    22    39    38   ar
    23     4     5   ar
    24     4    13    1
    25    27    35    1
    26    27    28   ar
    27    17    13   ar
    28    17    16   ar
    29    41    38    1
    30    24    16    1
    31    24    28   ar
    32     5     6    1
    33    35    36   ar
    34    38    37   ar
    35    13    14   ar
    36    16    15   ar
    37    28    29    1
    38    14    15   ar
    39    14    19    1
    40    36    37   ar
    41    36    42    1
    42    37    44    1
    43    15    21    1
    44    19    20    1
    45    42    43    1
    46    44    45    3
    47    21    22    3
    48    45    46    1
    49    22    23    1
