@<TRIPOS>MOLECULE
mol_data/opt/b3lyp/geoms/mol2/13fe13fe-4fe13fe.out
 48 51 0 0 0
SMALL
GASTEIGER

@<TRIPOS>ATOM
      1 C           1.3974   -0.3286    0.0097 C.ar    1  LIG1        0.0454
      2 C           1.0314    0.9952    0.0639 C.ar    1  LIG1        0.1501
      3 C          -0.4020    1.0657    0.0663 C.ar    1  LIG1        0.0928
      4 C          -0.8701   -0.2600    0.0115 C.ar    1  LIG1        0.0857
      5 N           0.2294   -1.0714   -0.0213 N.ar    1  LIG1       -0.3554
      6 H           0.1633   -2.0777   -0.0614 H       1  LIG1        0.1655
      7 H           2.3718   -0.7880   -0.0083 H       1  LIG1        0.0845
      8 O           1.8849    2.0538    0.1082 O.3     1  LIG1       -0.5040
      9 H           1.3478    2.8588    0.1414 H       1  LIG1        0.2923
     10 C          -1.1391    2.2684    0.1220 C.1     1  LIG1       -0.0638
     11 C          -1.7081    3.3409    0.1715 C.1     1  LIG1       -0.1137
     12 H          -2.2111    4.2779    0.2236 H       1  LIG1        0.1232
     13 C          -2.1983   -0.8052   -0.0113 C.ar    1  LIG1        0.1079
     14 C          -2.6035   -2.1312   -0.0521 C.ar    1  LIG1        0.1595
     15 C          -4.0230   -2.1808   -0.0615 C.ar    1  LIG1        0.0920
     16 C          -4.4784   -0.8399   -0.0258 C.ar    1  LIG1        0.0697
     17 N          -3.3567   -0.0528    0.0032 N.ar    1  LIG1       -0.3490
     18 H          -3.3890    0.9579    0.0211 H       1  LIG1        0.1661
     19 O          -1.7486   -3.1947   -0.0808 O.3     1  LIG1       -0.5034
     20 H          -2.2832   -4.0035   -0.1083 H       1  LIG1        0.2923
     21 C          -4.7124   -3.4142   -0.1102 C.1     1  LIG1       -0.0638
     22 C          -5.1778   -4.5351   -0.1530 C.1     1  LIG1       -0.1137
     23 H          -5.6320   -5.4978   -0.1939 H       1  LIG1        0.1232
     24 C          -6.1325    1.0820   -0.0582 C.ar    1  LIG1        0.1267
     25 C          -7.4376    1.5505   -0.0489 C.ar    1  LIG1       -0.0091
     26 C          -5.8336   -0.3032   -0.0140 C.ar    1  LIG1        0.0422
     27 C          -8.5525    0.6943    0.0059 C.ar    1  LIG1        0.0208
     28 H          -7.6036    2.6214   -0.0860 H       1  LIG1        0.0661
     29 C          -6.9452   -1.1548    0.0439 C.ar    1  LIG1       -0.0330
     30 C          -8.2740   -0.7046    0.0539 C.ar    1  LIG1        0.0347
     31 H          -6.7820   -2.2237    0.0846 H       1  LIG1        0.0638
     32 O          -5.0869    1.9682   -0.1134 O.3     1  LIG1       -0.5061
     33 H          -5.4319    2.8698   -0.1441 H       1  LIG1        0.2922
     34 C          -9.2796   -1.7209    0.1169 C.1     1  LIG1       -0.0690
     35 C         -10.0889   -2.6231    0.1710 C.1     1  LIG1       -0.1139
     36 H         -10.7836   -3.4297    0.2198 H       1  LIG1        0.1232
     37 C          -9.8839    1.2802    0.0109 C.ar    1  LIG1        0.0910
     38 C         -10.2916    2.6154   -0.0281 C.ar    1  LIG1        0.1574
     39 C         -11.7173    2.6677   -0.0035 C.ar    1  LIG1        0.0839
     40 C         -12.1541    1.3460    0.0506 C.ar    1  LIG1        0.0213
     41 N         -11.0660    0.5427    0.0583 N.ar    1  LIG1       -0.3566
     42 H         -11.0759   -0.4677    0.0947 H       1  LIG1        0.1655
     43 H         -13.1576    0.9511    0.0832 H       1  LIG1        0.0820
     44 O          -9.4773    3.7051   -0.0811 O.3     1  LIG1       -0.5035
     45 H         -10.0480    4.4895   -0.0966 H       1  LIG1        0.2923
     46 C         -12.4631    3.8700   -0.0315 C.1     1  LIG1       -0.0645
     47 C         -13.0199    4.9470   -0.0587 C.1     1  LIG1       -0.1137
     48 H         -13.5441    5.8741   -0.0813 H       1  LIG1        0.1232
@<TRIPOS>BOND
     1    23    22    1
     2    22    21    3
     3    33    32    1
     4    32    24    1
     5    21    15    1
     6    20    19    1
     7    45    44    1
     8    28    25    1
     9    48    47    1
    10    44    38    1
    11    19    14    1
    12    15    14   ar
    13    15    16   ar
    14     6     5    1
    15    47    46    3
    16    24    25   ar
    17    24    26   ar
    18    14    13   ar
    19    25    27   ar
    20    46    39    1
    21    38    39   ar
    22    38    37   ar
    23    16    26    1
    24    16    17   ar
    25     5     1   ar
    26     5     4   ar
    27    26    29   ar
    28    13    17   ar
    29    13     4    1
    30     7     1    1
    31    39    40   ar
    32    17    18    1
    33    27    37    1
    34    27    30   ar
    35     1     2   ar
    36    37    41   ar
    37     4     3   ar
    38    29    30   ar
    39    29    31    1
    40    40    41   ar
    41    40    43    1
    42    30    34    1
    43    41    42    1
    44     2     3   ar
    45     2     8    1
    46     3    10    1
    47     8     9    1
    48    34    35    3
    49    10    11    3
    50    35    36    1
    51    11    12    1
