@<TRIPOS>MOLECULE
mol_data/opt/b3lyp/geoms/mol2/13fe13fe13fe.out
 35 37 0 0 0
SMALL
GASTEIGER

@<TRIPOS>ATOM
      1 C           1.0423   -0.1586   -1.1244 C.ar    1  LIG1        0.0454
      2 C           0.8193    0.9927   -0.4116 C.ar    1  LIG1        0.1501
      3 C          -0.5421    0.9848    0.0494 C.ar    1  LIG1        0.0928
      4 C          -1.1233   -0.1985   -0.4189 C.ar    1  LIG1        0.0857
      5 N          -0.1413   -0.8870   -1.0968 N.ar    1  LIG1       -0.3554
      6 H          -0.3476   -1.6351   -1.7401 H       1  LIG1        0.1655
      7 H           1.9285   -0.5214   -1.6187 H       1  LIG1        0.0845
      8 O           1.7358    1.9620   -0.1537 O.3     1  LIG1       -0.5040
      9 H           1.2923    2.6399    0.3791 H       1  LIG1        0.2923
     10 C          -1.0808    1.9915    0.8832 C.1     1  LIG1       -0.0638
     11 C          -1.4378    2.9020    1.6004 C.1     1  LIG1       -0.1137
     12 H          -1.7994    3.6859    2.2241 H       1  LIG1        0.1232
     13 C          -2.4526   -0.7411   -0.2593 C.ar    1  LIG1        0.1079
     14 C          -3.7099   -0.1640   -0.3324 C.ar    1  LIG1        0.1596
     15 C          -4.6965   -1.1826   -0.1385 C.ar    1  LIG1        0.0935
     16 C          -4.0106   -2.3920    0.0414 C.ar    1  LIG1        0.0862
     17 N          -2.6715   -2.1026   -0.0348 N.ar    1  LIG1       -0.3478
     18 H          -1.9346   -2.7839    0.0518 H       1  LIG1        0.1661
     19 O          -3.9581    1.1460   -0.5672 O.3     1  LIG1       -0.5034
     20 H          -4.9206    1.2639   -0.5587 H       1  LIG1        0.2923
     21 C          -6.0852   -0.9179   -0.1075 C.1     1  LIG1       -0.0638
     22 C          -7.2503   -0.5828   -0.0892 C.1     1  LIG1       -0.1137
     23 H          -8.2856   -0.3335   -0.0733 H       1  LIG1        0.1232
     24 C          -4.4877   -3.7284    0.3149 C.ar    1  LIG1        0.1074
     25 C          -5.5271   -4.4693   -0.2212 C.ar    1  LIG1        0.1589
     26 C          -5.5228   -5.7677    0.3908 C.ar    1  LIG1        0.0840
     27 C          -4.4662   -5.7801    1.2929 C.ar    1  LIG1        0.0213
     28 N          -3.8394   -4.5726    1.2243 N.ar    1  LIG1       -0.3554
     29 H          -3.1786   -4.2388    1.9085 H       1  LIG1        0.1655
     30 H          -4.1393   -6.5584    1.9646 H       1  LIG1        0.0820
     31 O          -6.3677   -4.0488   -1.1960 O.3     1  LIG1       -0.5035
     32 H          -6.9891   -4.7696   -1.3790 H       1  LIG1        0.2923
     33 C          -6.4345   -6.8005    0.0640 C.1     1  LIG1       -0.0645
     34 C          -7.2526   -7.6296   -0.2718 C.1     1  LIG1       -0.1137
     35 H          -7.9585   -8.3799   -0.5434 H       1  LIG1        0.1232
@<TRIPOS>BOND
     1     6     5    1
     2     7     1    1
     3    32    31    1
     4    31    25    1
     5     1     5   ar
     6     1     2   ar
     7     5     4   ar
     8    19    20    1
     9    19    14    1
    10    35    34    1
    11     4    13    1
    12     4     3   ar
    13     2     8    1
    14     2     3   ar
    15    14    13   ar
    16    14    15   ar
    17    34    33    3
    18    13    17   ar
    19    25    24   ar
    20    25    26   ar
    21     8     9    1
    22    15    21    1
    23    15    16   ar
    24    21    22    3
    25    22    23    1
    26    17    16   ar
    27    17    18    1
    28    16    24    1
    29     3    10    1
    30    33    26    1
    31    24    28   ar
    32    26    27   ar
    33    10    11    3
    34    28    27   ar
    35    28    29    1
    36    27    30    1
    37    11    12    1
