@<TRIPOS>MOLECULE
mol_data/opt/b3lyp/geoms/mol2/13fe13fe13fe13fe-.out
 46 49 0 0 0
SMALL
GASTEIGER

@<TRIPOS>ATOM
      1 C           1.1659   -0.2107   -0.0042 C.ar    1  LIG1        0.0454
      2 C           0.7696    1.0429    0.3890 C.ar    1  LIG1        0.1501
      3 C          -0.6671    1.0864    0.3937 C.ar    1  LIG1        0.0928
      4 C          -1.1125   -0.1764   -0.0189 C.ar    1  LIG1        0.0857
      5 N           0.0084   -0.9488   -0.2224 N.ar    1  LIG1       -0.3554
      6 H          -0.0173   -1.8194   -0.7287 H       1  LIG1        0.1655
      7 H           2.1491   -0.6358   -0.1214 H       1  LIG1        0.0845
      8 O           1.5904    2.0653    0.7462 O.3     1  LIG1       -0.5040
      9 H           1.0230    2.8113    0.9949 H       1  LIG1        0.2923
     10 C          -1.3974    2.2147    0.8303 C.1     1  LIG1       -0.0638
     11 C          -1.9169    3.2341    1.2338 C.1     1  LIG1       -0.1137
     12 H          -2.4203    4.1094    1.5720 H       1  LIG1        0.1232
     13 C          -2.4344   -0.7228   -0.1956 C.ar    1  LIG1        0.1079
     14 C          -3.6200   -0.1774   -0.6484 C.ar    1  LIG1        0.1596
     15 C          -4.6242   -1.2042   -0.6705 C.ar    1  LIG1        0.0935
     16 C          -4.0194   -2.3789   -0.2124 C.ar    1  LIG1        0.0862
     17 N          -2.6882   -2.0882    0.0240 N.ar    1  LIG1       -0.3478
     18 H          -2.1613   -2.6034    0.7157 H       1  LIG1        0.1661
     19 O          -3.7928    1.0935   -1.0771 O.3     1  LIG1       -0.5034
     20 H          -4.7129    1.1766   -1.3734 H       1  LIG1        0.2923
     21 C          -5.9197   -0.9814   -1.1902 C.1     1  LIG1       -0.0638
     22 C          -6.9910   -0.6710   -1.6667 C.1     1  LIG1       -0.1137
     23 H          -7.9501   -0.4463   -2.0714 H       1  LIG1        0.1232
     24 C          -4.5269   -3.7083   -0.0058 C.ar    1  LIG1        0.1079
     25 C          -5.7703   -4.1876    0.3833 C.ar    1  LIG1        0.1596
     26 C          -5.6920   -5.6110    0.5048 C.ar    1  LIG1        0.0935
     27 C          -4.3718   -5.9755    0.1854 C.ar    1  LIG1        0.0862
     28 N          -3.6920   -4.8257   -0.0962 N.ar    1  LIG1       -0.3478
     29 H          -2.7672   -4.8256   -0.5022 H       1  LIG1        0.1661
     30 O          -6.8528   -3.4200    0.6501 O.3     1  LIG1       -0.5034
     31 H          -7.5753   -4.0045    0.9218 H       1  LIG1        0.2923
     32 C          -6.7579   -6.4499    0.9000 C.1     1  LIG1       -0.0638
     33 C          -7.7002   -7.1366    1.2422 C.1     1  LIG1       -0.1137
     34 H          -8.5293   -7.7334    1.5450 H       1  LIG1        0.1232
     35 C          -3.7421   -7.2610    0.1062 C.ar    1  LIG1        0.1074
     36 C          -2.4428   -7.5967   -0.2439 C.ar    1  LIG1        0.1589
     37 C          -2.3025   -9.0158   -0.1816 C.ar    1  LIG1        0.0840
     38 C          -3.5449   -9.5111    0.2130 C.ar    1  LIG1        0.0213
     39 N          -4.3889   -8.4592    0.3803 N.ar    1  LIG1       -0.3554
     40 H          -5.3573   -8.5104    0.6626 H       1  LIG1        0.1655
     41 H          -3.8594  -10.5294    0.3782 H       1  LIG1        0.0820
     42 O          -1.4846   -6.6873   -0.5898 O.3     1  LIG1       -0.5035
     43 H          -0.6797   -7.1765   -0.8186 H       1  LIG1        0.2923
     44 C          -1.1058   -9.7111   -0.4788 C.1     1  LIG1       -0.0645
     45 C          -0.0440  -10.2287   -0.7513 C.1     1  LIG1       -0.1137
     46 H           0.8742  -10.7168   -0.9828 H       1  LIG1        0.1232
@<TRIPOS>BOND
     1    23    22    1
     2    22    21    3
     3    20    19    1
     4    21    15    1
     5    19    14    1
     6    46    45    1
     7    43    42    1
     8    45    44    3
     9     6     5    1
    10    15    14   ar
    11    15    16   ar
    12    14    13   ar
    13    42    36    1
    14    29    28    1
    15    44    37    1
    16    36    37   ar
    17    36    35   ar
    18     5     4   ar
    19     5     1   ar
    20    16    24    1
    21    16    17   ar
    22    13     4    1
    23    13    17   ar
    24    37    38   ar
    25     7     1    1
    26    28    24   ar
    27    28    27   ar
    28     4     3   ar
    29    24    25   ar
    30     1     2   ar
    31    17    18    1
    32    35    27    1
    33    35    39   ar
    34    27    26   ar
    35    38    41    1
    36    38    39   ar
    37    39    40    1
    38    25    26   ar
    39    25    30    1
    40     2     3   ar
    41     2     8    1
    42     3    10    1
    43    26    32    1
    44    30    31    1
    45     8     9    1
    46    10    11    3
    47    32    33    3
    48    11    12    1
    49    33    34    1
