@<TRIPOS>MOLECULE
mol_data/opt/b3lyp/geoms/mol2/13fe13fe13fe13fe.out
 46 49 0 0 0
SMALL
GASTEIGER

@<TRIPOS>ATOM
      1 C           0.6567    0.1600   -1.9910 C.ar    1  LIG1        0.0454
      2 C           0.7129    1.0524   -0.9499 C.ar    1  LIG1        0.1501
      3 C          -0.4775    0.9025   -0.1587 C.ar    1  LIG1        0.0928
      4 C          -1.2464   -0.0965   -0.7654 C.ar    1  LIG1        0.0857
      5 N          -0.5290   -0.5517   -1.8500 N.ar    1  LIG1       -0.3554
      6 H          -0.9503   -1.0811   -2.5971 H       1  LIG1        0.1655
      7 H           1.3535   -0.0377   -2.7888 H       1  LIG1        0.0845
      8 O           1.7339    1.9099   -0.6883 O.3     1  LIG1       -0.5040
      9 H           1.4961    2.4018    0.1126 H       1  LIG1        0.2923
     10 C          -0.7045    1.6195    1.0385 C.1     1  LIG1       -0.0638
     11 C          -0.7941    2.2791    2.0524 C.1     1  LIG1       -0.1137
     12 H          -0.9224    2.8462    2.9446 H       1  LIG1        0.1232
     13 C          -2.5235   -0.6713   -0.4105 C.ar    1  LIG1        0.1079
     14 C          -3.7130   -0.1066    0.0200 C.ar    1  LIG1        0.1596
     15 C          -4.6851   -1.1447    0.1788 C.ar    1  LIG1        0.0935
     16 C          -4.0641   -2.3506   -0.1767 C.ar    1  LIG1        0.0862
     17 N          -2.7717   -2.0419   -0.5220 N.ar    1  LIG1       -0.3478
     18 H          -2.0934   -2.7091   -0.8528 H       1  LIG1        0.1661
     19 O          -3.9197    1.2136    0.2382 O.3     1  LIG1       -0.5034
     20 H          -4.8376    1.3174    0.5329 H       1  LIG1        0.2923
     21 C          -5.9952   -0.9103    0.6562 C.1     1  LIG1       -0.0638
     22 C          -7.0884   -0.6028    1.0815 C.1     1  LIG1       -0.1137
     23 H          -8.0641   -0.3764    1.4434 H       1  LIG1        0.1232
     24 C          -4.5483   -3.7113   -0.1697 C.ar    1  LIG1        0.1079
     25 C          -5.7322   -4.2770   -0.6145 C.ar    1  LIG1        0.1596
     26 C          -5.6716   -5.6922   -0.4120 C.ar    1  LIG1        0.0935
     27 C          -4.4210   -5.9745    0.1552 C.ar    1  LIG1        0.0862
     28 N          -3.7656   -4.7762    0.2864 N.ar    1  LIG1       -0.3478
     29 H          -2.8470   -4.6727    0.6867 H       1  LIG1        0.1661
     30 O          -6.7632   -3.5984   -1.1696 O.3     1  LIG1       -0.5034
     31 H          -7.4560   -4.2442   -1.3782 H       1  LIG1        0.2923
     32 C          -6.7416   -6.5634   -0.7210 C.1     1  LIG1       -0.0638
     33 C          -7.7189   -7.2195   -1.0122 C.1     1  LIG1       -0.1137
     34 H          -8.5526   -7.8342   -1.2597 H       1  LIG1        0.1232
     35 C          -3.8370   -7.2173    0.6056 C.ar    1  LIG1        0.1074
     36 C          -3.7946   -8.4788    0.0368 C.ar    1  LIG1        0.1589
     37 C          -3.0366   -9.3407    0.8983 C.ar    1  LIG1        0.0840
     38 C          -2.6335   -8.5685    1.9806 C.ar    1  LIG1        0.0213
     39 N          -3.0913   -7.3000    1.7876 N.ar    1  LIG1       -0.3554
     40 H          -3.1220   -6.5954    2.5080 H       1  LIG1        0.1655
     41 H          -2.0667   -8.8461    2.8556 H       1  LIG1        0.0820
     42 O          -4.3347   -8.8182   -1.1573 O.3     1  LIG1       -0.5035
     43 H          -4.1492   -9.7574   -1.3076 H       1  LIG1        0.2923
     44 C          -2.7661  -10.7017    0.6166 C.1     1  LIG1       -0.0645
     45 C          -2.5814  -11.8577    0.3021 C.1     1  LIG1       -0.1137
     46 H          -2.4019  -12.8785    0.0555 H       1  LIG1        0.1232
@<TRIPOS>BOND
     1     7     1    1
     2     6     5    1
     3     1     5   ar
     4     1     2   ar
     5     5     4   ar
     6    31    30    1
     7    43    42    1
     8    34    33    1
     9    30    25    1
    10    42    36    1
    11    33    32    3
    12     2     8    1
    13     2     3   ar
    14    18    17    1
    15     4    13    1
    16     4     3   ar
    17    32    26    1
    18     8     9    1
    19    25    26   ar
    20    25    24   ar
    21    17    13   ar
    22    17    16   ar
    23    26    27   ar
    24    13    14   ar
    25    16    24    1
    26    16    15   ar
    27    24    28   ar
    28     3    10    1
    29    14    15   ar
    30    14    19    1
    31    36    35   ar
    32    36    37   ar
    33    46    45    1
    34    27    28   ar
    35    27    35    1
    36    15    21    1
    37    19    20    1
    38    28    29    1
    39    45    44    3
    40    35    39   ar
    41    44    37    1
    42    21    22    3
    43    37    38   ar
    44    10    11    3
    45    22    23    1
    46    39    38   ar
    47    39    40    1
    48    38    41    1
    49    11    12    1
