@<TRIPOS>MOLECULE
mol_data/opt/b3lyp/geoms/mol2/13fe13fd4eh-13il.out
 52 55 0 0 0
SMALL
GASTEIGER

@<TRIPOS>ATOM
      1 C           0.8599    0.0562    1.7596 C.ar    1  LIG1        0.0454
      2 C           0.9120    1.0170    0.7802 C.ar    1  LIG1        0.1501
      3 C          -0.3173    0.9746    0.0378 C.ar    1  LIG1        0.0928
      4 C          -1.1025   -0.0313    0.6107 C.ar    1  LIG1        0.0857
      5 N          -0.3612   -0.5917    1.6269 N.ar    1  LIG1       -0.3554
      6 H          -0.7677   -1.1656    2.3490 H       1  LIG1        0.1655
      7 H           1.5807   -0.2254    2.5096 H       1  LIG1        0.0845
      8 O           1.9588    1.8458    0.5325 O.3     1  LIG1       -0.5040
      9 H           1.7120    2.4038   -0.2208 H       1  LIG1        0.2923
     10 C          -0.5666    1.7836   -1.0947 C.1     1  LIG1       -0.0638
     11 C          -0.6766    2.5156   -2.0552 C.1     1  LIG1       -0.1137
     12 H          -0.8208    3.1475   -2.9004 H       1  LIG1        0.1232
     13 C          -2.4193   -0.5232    0.2740 C.ar    1  LIG1        0.1079
     14 C          -3.5961    0.1274   -0.0627 C.ar    1  LIG1        0.1615
     15 C          -4.6196   -0.8588   -0.2297 C.ar    1  LIG1        0.1190
     16 C          -4.0443   -2.1160    0.0113 C.ar    1  LIG1        0.0694
     17 N          -2.7320   -1.8810    0.3057 N.ar    1  LIG1       -0.3490
     18 H          -2.0611   -2.6116    0.4867 H       1  LIG1        0.1661
     19 O          -3.7331    1.4674   -0.1798 O.3     1  LIG1       -0.5034
     20 H          -4.6470    1.6665   -0.4312 H       1  LIG1        0.2923
     21 N          -6.9617   -0.1263   -1.0147 N.1     1  LIG1       -0.1907
     22 C          -5.9281   -0.5250   -0.6510 C.1     1  LIG1        0.1050
     23 C          -5.7797   -3.8935    0.5055 C.ar    1  LIG1        0.0345
     24 C          -6.1715   -5.2359    0.3729 C.ar    1  LIG1       -0.0348
     25 C          -4.5604   -3.4847   -0.0898 C.ar    1  LIG1        0.0168
     26 C          -5.4211   -6.1925   -0.3185 C.ar    1  LIG1        0.0205
     27 H          -7.0838   -5.5480    0.8665 H       1  LIG1        0.0637
     28 C          -3.8009   -4.4378   -0.7836 C.ar    1  LIG1       -0.0301
     29 C          -4.2030   -5.7693   -0.9187 C.ar    1  LIG1        0.0345
     30 H          -2.8935   -4.1166   -1.2895 H       1  LIG1        0.0643
     31 C          -6.5848   -3.0170    1.2933 C.1     1  LIG1       -0.0690
     32 C          -7.2903   -2.3160    1.9829 C.1     1  LIG1       -0.1139
     33 H          -7.9124   -1.6706    2.5583 H       1  LIG1        0.1232
     34 N          -3.3939   -6.6779   -1.6162 N.pl3   1  LIG1       -0.3574
     35 H          -3.9183   -7.3746   -2.1341 H       1  LIG1        0.1423
     36 H          -2.7034   -6.2322   -2.2076 H       1  LIG1        0.1423
     37 C          -5.8962   -7.5778   -0.4020 C.ar    1  LIG1        0.0548
     38 C          -7.1870   -8.0936   -0.5192 C.ar    1  LIG1        0.0165
     39 C          -7.0545   -9.5140   -0.5045 C.ar    1  LIG1        0.1408
     40 C          -5.7180   -9.8367   -0.3791 C.ar    1  LIG1        0.0446
     41 N          -5.0237   -8.6555   -0.3381 N.ar    1  LIG1       -0.3573
     42 H          -4.0314   -8.5609   -0.1867 H       1  LIG1        0.1655
     43 H          -5.2270  -10.7970   -0.3496 H       1  LIG1        0.0844
     44 C          -8.4779   -7.3549   -0.7140 C.3     1  LIG1       -0.0342
     45 H          -8.9913   -7.1426    0.2330 H       1  LIG1        0.0279
     46 H          -9.1607   -7.9569   -1.3214 H       1  LIG1        0.0279
     47 H          -8.3235   -6.3975   -1.2194 H       1  LIG1        0.0279
     48 O          -8.0740  -10.4177   -0.6769 O.3     1  LIG1       -0.4933
     49 C          -8.8352  -10.6773    0.5015 C.3     1  LIG1        0.0789
     50 H          -9.6002  -11.4064    0.2253 H       1  LIG1        0.0660
     51 H          -8.2051  -11.0945    1.2978 H       1  LIG1        0.0660
     52 H          -9.3236   -9.7700    0.8790 H       1  LIG1        0.0660
@<TRIPOS>BOND
     1    12    11    1
     2    36    34    1
     3    35    34    1
     4    11    10    3
     5    34    29    1
     6    46    44    1
     7    30    28    1
     8    47    44    1
     9    10     3    1
    10    21    22    3
    11    29    28   ar
    12    29    26   ar
    13    28    25   ar
    14    44    38    1
    15    44    45    1
    16    48    39    1
    17    48    49    1
    18    22    15    1
    19    38    39   ar
    20    38    37   ar
    21    39    40   ar
    22    20    19    1
    23    37    41   ar
    24    37    26    1
    25    40    43    1
    26    40    41   ar
    27    41    42    1
    28    26    24   ar
    29    15    14   ar
    30    15    16   ar
    31     9     8    1
    32    19    14    1
    33    25    16    1
    34    25    23   ar
    35    14    13   ar
    36    16    17   ar
    37     3     4   ar
    38     3     2   ar
    39    50    49    1
    40    13    17   ar
    41    13     4    1
    42    17    18    1
    43    24    23   ar
    44    24    27    1
    45    49    52    1
    46    49    51    1
    47    23    31    1
    48     8     2    1
    49     4     5   ar
    50     2     1   ar
    51    31    32    3
    52     5     1   ar
    53     5     6    1
    54     1     7    1
    55    32    33    1
