@<TRIPOS>MOLECULE
mol_data/opt/b3lyp/geoms/mol2/13fe13fe-.out
 24 25 0 0 0
SMALL
GASTEIGER

@<TRIPOS>ATOM
      1 C           1.2278   -0.2421   -0.0373 C.ar    1  LIG1        0.0454
      2 C           0.8306    1.0735   -0.0356 C.ar    1  LIG1        0.1501
      3 C          -0.6047    1.1085   -0.0190 C.ar    1  LIG1        0.0928
      4 C          -1.0388   -0.2290   -0.0109 C.ar    1  LIG1        0.0857
      5 N           0.0770   -1.0147   -0.0219 N.ar    1  LIG1       -0.3554
      6 H           0.0351   -2.0230   -0.0193 H       1  LIG1        0.1655
      7 H           2.2128   -0.6784   -0.0477 H       1  LIG1        0.0845
      8 O           1.6615    2.1511   -0.0476 O.3     1  LIG1       -0.5040
      9 H           1.1108    2.9470   -0.0443 H       1  LIG1        0.2923
     10 C          -1.3910    2.2816   -0.0124 C.1     1  LIG1       -0.0638
     11 C          -2.0321    3.3146   -0.0072 C.1     1  LIG1       -0.1137
     12 H          -2.5890    4.2227   -0.0026 H       1  LIG1        0.1232
     13 C          -2.3610   -0.7917    0.0056 C.ar    1  LIG1        0.1074
     14 C          -2.7678   -2.1161    0.0127 C.ar    1  LIG1        0.1589
     15 C          -4.1956   -2.1579    0.0295 C.ar    1  LIG1        0.0840
     16 C          -4.6226   -0.8307    0.0321 C.ar    1  LIG1        0.0213
     17 N          -3.5227   -0.0317    0.0180 N.ar    1  LIG1       -0.3554
     18 H          -3.5180    0.9785    0.0155 H       1  LIG1        0.1655
     19 H          -5.6231   -0.4283    0.0432 H       1  LIG1        0.0820
     20 O          -1.9101   -3.1792    0.0043 O.3     1  LIG1       -0.5035
     21 H          -2.4398   -3.9904    0.0127 H       1  LIG1        0.2923
     22 C          -4.9572   -3.3511    0.0409 C.1     1  LIG1       -0.0645
     23 C          -5.5339   -4.4176    0.0497 C.1     1  LIG1       -0.1137
     24 H          -6.0726   -5.3365    0.0577 H       1  LIG1        0.1232
@<TRIPOS>BOND
     1     7     1    1
     2     8     9    1
     3     8     2    1
     4     1     2   ar
     5     1     5   ar
     6     2     3   ar
     7     5     6    1
     8     5     4   ar
     9     3    10    1
    10     3     4   ar
    11    10    11    3
    12     4    13    1
    13    11    12    1
    14    20    21    1
    15    20    14    1
    16    13    14   ar
    17    13    17   ar
    18    14    15   ar
    19    18    17    1
    20    17    16   ar
    21    15    16   ar
    22    15    22    1
    23    16    19    1
    24    22    23    3
    25    23    24    1
