@<TRIPOS>MOLECULE
mol_data/opt/b3lyp/geoms/mol2/13fe13fe13fe-13fe-.out
 46 49 0 0 0
SMALL
GASTEIGER

@<TRIPOS>ATOM
      1 C           1.1965    0.0016    0.6445 C.ar    1  LIG1        0.0454
      2 C           0.8696    1.1412   -0.0473 C.ar    1  LIG1        0.1501
      3 C          -0.5391    1.1140   -0.3291 C.ar    1  LIG1        0.0928
      4 C          -1.0408   -0.0710    0.2246 C.ar    1  LIG1        0.0857
      5 N           0.0277   -0.7365    0.7803 N.ar    1  LIG1       -0.3554
      6 H          -0.0793   -1.5050    1.4232 H       1  LIG1        0.1655
      7 H           2.1430   -0.3466    1.0239 H       1  LIG1        0.0845
      8 O           1.7331    2.1180   -0.4300 O.3     1  LIG1       -0.5040
      9 H           1.2179    2.7787   -0.9181 H       1  LIG1        0.2923
     10 C          -1.1856    2.1050   -1.1022 C.1     1  LIG1       -0.0638
     11 C          -1.6303    3.0057   -1.7824 C.1     1  LIG1       -0.1137
     12 H          -2.0668    3.7774   -2.3723 H       1  LIG1        0.1232
     13 C          -2.3681   -0.6357    0.2475 C.ar    1  LIG1        0.1079
     14 C          -3.6213   -0.0630    0.3957 C.ar    1  LIG1        0.1596
     15 C          -4.6011   -1.1071    0.4106 C.ar    1  LIG1        0.0935
     16 C          -3.9043   -2.3218    0.2734 C.ar    1  LIG1        0.0862
     17 N          -2.5744   -2.0173    0.1975 N.ar    1  LIG1       -0.3478
     18 H          -1.8744   -2.6961   -0.0662 H       1  LIG1        0.1661
     19 O          -3.8588    1.2618    0.5499 O.3     1  LIG1       -0.5034
     20 H          -4.8154    1.3882    0.6267 H       1  LIG1        0.2923
     21 C          -5.9929   -0.9103    0.5499 C.1     1  LIG1       -0.0638
     22 C          -7.1837   -0.6964    0.6684 C.1     1  LIG1       -0.1137
     23 H          -8.2259   -0.4960    0.7619 H       1  LIG1        0.1232
     24 C          -4.3803   -3.6688    0.1832 C.ar    1  LIG1        0.1079
     25 C          -3.6879   -4.8515   -0.0100 C.ar    1  LIG1        0.1596
     26 C          -4.6191   -5.9321   -0.0396 C.ar    1  LIG1        0.0935
     27 C          -5.9002   -5.3690    0.1278 C.ar    1  LIG1        0.0862
     28 N          -5.7261   -4.0182    0.2744 N.ar    1  LIG1       -0.3478
     29 H          -6.4669   -3.3313    0.2464 H       1  LIG1        0.1661
     30 O          -2.3303   -4.9262   -0.1237 O.3     1  LIG1       -0.5034
     31 H          -2.0874   -5.8477   -0.2951 H       1  LIG1        0.2923
     32 C          -4.2677   -7.2942   -0.1589 C.1     1  LIG1       -0.0638
     33 C          -3.9239   -8.4530   -0.2866 C.1     1  LIG1       -0.1137
     34 H          -3.6354   -9.4773   -0.3476 H       1  LIG1        0.1232
     35 C          -7.2005   -5.9810    0.1762 C.ar    1  LIG1        0.1074
     36 C          -7.7142   -7.1328   -0.4190 C.ar    1  LIG1        0.1589
     37 C          -9.1129   -7.2084   -0.1113 C.ar    1  LIG1        0.0840
     38 C          -9.4070   -6.0996    0.6706 C.ar    1  LIG1        0.0213
     39 N          -8.2739   -5.3559    0.8184 N.ar    1  LIG1       -0.3554
     40 H          -8.1576   -4.6439    1.5228 H       1  LIG1        0.1655
     41 H         -10.3404   -5.8130    1.1297 H       1  LIG1        0.0820
     42 O          -7.1053   -8.0325   -1.2209 O.3     1  LIG1       -0.5035
     43 H          -6.1416   -7.9936   -1.1026 H       1  LIG1        0.2923
     44 C         -10.0188   -8.2128   -0.5351 C.1     1  LIG1       -0.0645
     45 C         -10.7948   -9.0696   -0.8929 C.1     1  LIG1       -0.1137
     46 H         -11.4712   -9.8274   -1.2125 H       1  LIG1        0.1232
@<TRIPOS>BOND
     1    12    11    1
     2    11    10    3
     3    42    43    1
     4    42    36    1
     5    46    45    1
     6    10     3    1
     7     9     8    1
     8    45    44    3
     9    44    37    1
    10     8     2    1
    11    36    37   ar
    12    36    35   ar
    13    34    33    1
    14     3     2   ar
    15     3     4   ar
    16    31    30    1
    17    33    32    3
    18    32    26    1
    19    30    25    1
    20    37    38   ar
    21    18    17    1
    22     2     1   ar
    23    26    25   ar
    24    26    27   ar
    25    25    24   ar
    26    27    35    1
    27    27    28   ar
    28    35    39   ar
    29    24    16    1
    30    24    28   ar
    31    17    13   ar
    32    17    16   ar
    33     4    13    1
    34     4     5   ar
    35    29    28    1
    36    13    14   ar
    37    16    15   ar
    38    14    15   ar
    39    14    19    1
    40    15    21    1
    41    19    20    1
    42    21    22    3
    43     1     5   ar
    44     1     7    1
    45    22    23    1
    46    38    39   ar
    47    38    41    1
    48     5     6    1
    49    39    40    1
