@<TRIPOS>MOLECULE
mol_data/opt/b3lyp/geoms/mol2/13fe13fe-13fe13fe-.out
 46 49 0 0 0
SMALL
GASTEIGER

@<TRIPOS>ATOM
      1 C           1.3886   -0.2515   -0.0080 C.ar    1  LIG1        0.0454
      2 C           1.0081    1.0688   -0.0130 C.ar    1  LIG1        0.1501
      3 C          -0.4261    1.1239   -0.0114 C.ar    1  LIG1        0.0928
      4 C          -0.8801   -0.2076   -0.0054 C.ar    1  LIG1        0.0857
      5 N           0.2277   -1.0085   -0.0036 N.ar    1  LIG1       -0.3554
      6 H           0.1726   -2.0159    0.0009 H       1  LIG1        0.1655
      7 H           2.3676   -0.7010   -0.0077 H       1  LIG1        0.0845
      8 O           1.8500    2.1384   -0.0185 O.3     1  LIG1       -0.5040
      9 H           1.3032    2.9375   -0.0208 H       1  LIG1        0.2923
     10 C          -1.1848    2.3143   -0.0153 C.1     1  LIG1       -0.0638
     11 C          -1.7876    3.3695   -0.0188 C.1     1  LIG1       -0.1137
     12 H          -2.3274    4.2871   -0.0218 H       1  LIG1        0.1232
     13 C          -2.2050   -0.7591   -0.0013 C.ar    1  LIG1        0.1079
     14 C          -2.6089   -2.0847    0.0048 C.ar    1  LIG1        0.1596
     15 C          -4.0320   -2.1365    0.0071 C.ar    1  LIG1        0.0935
     16 C          -4.4784   -0.7982    0.0021 C.ar    1  LIG1        0.0862
     17 N          -3.3686    0.0004   -0.0028 N.ar    1  LIG1       -0.3478
     18 H          -3.3954    1.0120   -0.0072 H       1  LIG1        0.1661
     19 O          -1.7475   -3.1457    0.0081 O.3     1  LIG1       -0.5034
     20 H          -2.2727   -3.9592    0.0124 H       1  LIG1        0.2923
     21 C          -4.7923   -3.3263    0.0131 C.1     1  LIG1       -0.0638
     22 C          -5.3954   -4.3807    0.0184 C.1     1  LIG1       -0.1137
     23 H          -5.9390   -5.2965    0.0230 H       1  LIG1        0.1232
     24 C          -5.8056   -0.2588    0.0017 C.ar    1  LIG1        0.1079
     25 C          -6.2284    1.0625   -0.0040 C.ar    1  LIG1        0.1596
     26 C          -7.6526    1.0916   -0.0017 C.ar    1  LIG1        0.0935
     27 C          -8.0782   -0.2533    0.0054 C.ar    1  LIG1        0.0862
     28 N          -6.9604   -1.0352    0.0073 N.ar    1  LIG1       -0.3478
     29 H          -6.9752   -2.0473    0.0120 H       1  LIG1        0.1661
     30 O          -5.3826    2.1310   -0.0104 O.3     1  LIG1       -0.5034
     31 H          -5.9132    2.9404   -0.0139 H       1  LIG1        0.2923
     32 C          -8.4390    2.2650   -0.0061 C.1     1  LIG1       -0.0638
     33 C          -9.0758    3.3001   -0.0102 C.1     1  LIG1       -0.1137
     34 H          -9.6316    4.2091   -0.0137 H       1  LIG1        0.1232
     35 C          -9.4007   -0.8079    0.0102 C.ar    1  LIG1        0.1074
     36 C          -9.8210   -2.1300    0.0172 C.ar    1  LIG1        0.1589
     37 C         -11.2487   -2.1571    0.0197 C.ar    1  LIG1        0.0840
     38 C         -11.6629   -0.8259    0.0142 C.ar    1  LIG1        0.0213
     39 N         -10.5572   -0.0367    0.0085 N.ar    1  LIG1       -0.3554
     40 H         -10.5466    0.9732    0.0037 H       1  LIG1        0.1655
     41 H         -12.6600   -0.4144    0.0139 H       1  LIG1        0.0820
     42 O          -8.9780   -3.2001    0.0209 O.3     1  LIG1       -0.5035
     43 H          -9.5172   -4.0050    0.0258 H       1  LIG1        0.2923
     44 C         -12.0223   -3.3425    0.0266 C.1     1  LIG1       -0.0645
     45 C         -12.6110   -4.4024    0.0326 C.1     1  LIG1       -0.1137
     46 H         -13.1599   -5.3153    0.0377 H       1  LIG1        0.1232
@<TRIPOS>BOND
     1    12    11    1
     2     9     8    1
     3    11    10    3
     4     8     2    1
     5    10     3    1
     6    31    30    1
     7    34    33    1
     8     2     3   ar
     9     2     1   ar
    10     3     4   ar
    11    30    25    1
    12    33    32    3
    13     1     7    1
    14     1     5   ar
    15    18    17    1
    16    32    26    1
    17     4     5   ar
    18     4    13    1
    19    25    26   ar
    20    25    24   ar
    21     5     6    1
    22    17    13   ar
    23    17    16   ar
    24    26    27   ar
    25    13    14   ar
    26    24    16    1
    27    24    28   ar
    28    16    15   ar
    29    40    39    1
    30    14    15   ar
    31    14    19    1
    32    27    28   ar
    33    27    35    1
    34    15    21    1
    35    28    29    1
    36    19    20    1
    37    39    35   ar
    38    39    38   ar
    39    35    36   ar
    40    21    22    3
    41    41    38    1
    42    38    37   ar
    43    36    37   ar
    44    36    42    1
    45    22    23    1
    46    37    44    1
    47    42    43    1
    48    44    45    3
    49    45    46    1
