@<TRIPOS>MOLECULE
mol_data/opt/b3lyp/geoms/mol2/13ff13ff-13ff13ff-.out
 42 45 0 0 0
SMALL
GASTEIGER

@<TRIPOS>ATOM
      1 C           1.3533   -0.2190   -0.3287 C.ar    1  LIG1        0.0480
      2 C           0.9416    1.0853   -0.1415 C.ar    1  LIG1        0.1767
      3 C          -0.4668    1.0694    0.0262 C.ar    1  LIG1        0.1857
      4 C          -0.9022   -0.2480   -0.0726 C.ar    1  LIG1        0.1124
      5 N           0.2235   -1.0145   -0.2692 N.ar    1  LIG1       -0.3534
      6 H           0.1792   -2.0072   -0.4385 H       1  LIG1        0.1656
      7 H           2.3372   -0.6284   -0.4889 H       1  LIG1        0.0845
      8 O           1.7377    2.1951   -0.1067 O.3     1  LIG1       -0.5023
      9 H           1.1428    2.9585   -0.1296 H       1  LIG1        0.2923
     10 O          -1.2544    2.2022    0.1964 O.3     1  LIG1       -0.5019
     11 H          -1.3926    2.3391    1.1452 H       1  LIG1        0.2924
     12 C          -2.2230   -0.8081   -0.0100 C.ar    1  LIG1        0.1129
     13 C          -2.6392   -2.1373    0.0159 C.ar    1  LIG1        0.1864
     14 C          -4.0514   -2.1544    0.0428 C.ar    1  LIG1        0.1864
     15 C          -4.4957   -0.8365    0.0473 C.ar    1  LIG1        0.1129
     16 N          -3.3642   -0.0388    0.0301 N.ar    1  LIG1       -0.3458
     17 H          -3.3804    0.9681   -0.0541 H       1  LIG1        0.1662
     18 O          -1.8168   -3.2568   -0.0455 O.3     1  LIG1       -0.5019
     19 H          -1.7013   -3.5966    0.8542 H       1  LIG1        0.2924
     20 O          -4.8740   -3.2556    0.0882 O.3     1  LIG1       -0.5019
     21 H          -4.3865   -3.9961   -0.2993 H       1  LIG1        0.2924
     22 C          -5.8265   -0.3046    0.0454 C.ar    1  LIG1        0.1129
     23 C          -6.2708    1.0132    0.0328 C.ar    1  LIG1        0.1864
     24 C          -7.6830    0.9960    0.0053 C.ar    1  LIG1        0.1864
     25 C          -8.0992   -0.3334   -0.0127 C.ar    1  LIG1        0.1129
     26 N          -6.9579   -1.1025    0.0323 N.ar    1  LIG1       -0.3458
     27 H          -6.9418   -2.1099   -0.0451 H       1  LIG1        0.1662
     28 O          -5.4483    2.1147    0.0719 O.3     1  LIG1       -0.5019
     29 H          -5.9353    2.8526   -0.3211 H       1  LIG1        0.2924
     30 O          -8.5054    2.1150   -0.0634 O.3     1  LIG1       -0.5019
     31 H          -8.6210    2.4607    0.8340 H       1  LIG1        0.2924
     32 C          -9.4199   -0.8939   -0.0725 C.ar    1  LIG1        0.1124
     33 C          -9.8555   -2.2105    0.0354 C.ar    1  LIG1        0.1857
     34 C         -11.2637   -2.2276   -0.1331 C.ar    1  LIG1        0.1767
     35 C         -11.6753   -0.9246   -0.3298 C.ar    1  LIG1        0.0480
     36 N         -10.5455   -0.1288   -0.2754 N.ar    1  LIG1       -0.3534
     37 H         -10.5012    0.8628   -0.4507 H       1  LIG1        0.1656
     38 H         -12.6590   -0.5164   -0.4937 H       1  LIG1        0.0845
     39 O          -9.0680   -3.3422    0.2141 O.3     1  LIG1       -0.5019
     40 H          -8.9293   -3.4716    1.1639 H       1  LIG1        0.2924
     41 O         -12.0599   -3.3371   -0.0910 O.3     1  LIG1       -0.5023
     42 H         -11.4649   -4.1007   -0.1081 H       1  LIG1        0.2923
@<TRIPOS>BOND
     1    38    35    1
     2     7     1    1
     3    37    36    1
     4     6     5    1
     5    35    36   ar
     6    35    34   ar
     7     1     5   ar
     8     1     2   ar
     9    29    28    1
    10    21    20    1
    11    36    32   ar
    12     5     4   ar
    13     2     8    1
    14     2     3   ar
    15    34    41    1
    16    34    33   ar
    17     9     8    1
    18    42    41    1
    19     4    12    1
    20     4     3   ar
    21    32    25    1
    22    32    33   ar
    23    30    24    1
    24    30    31    1
    25    17    16    1
    26    18    13    1
    27    18    19    1
    28    27    26    1
    29    25    24   ar
    30    25    26   ar
    31    12    13   ar
    32    12    16   ar
    33    24    23   ar
    34    13    14   ar
    35     3    10    1
    36    16    15   ar
    37    26    22   ar
    38    23    22   ar
    39    23    28    1
    40    33    39    1
    41    14    15   ar
    42    14    20    1
    43    22    15    1
    44    10    11    1
    45    39    40    1
