@<TRIPOS>MOLECULE
mol_data/opt/b3lyp/geoms/mol2/13ff13ff13ff13ff-.out
 42 45 0 0 0
SMALL
GASTEIGER

@<TRIPOS>ATOM
      1 C           1.2954    0.0444    0.0216 C.ar    1  LIG1        0.0480
      2 C           0.7712    1.2948    0.2452 C.ar    1  LIG1        0.1767
      3 C          -0.6488    1.1871    0.2141 C.ar    1  LIG1        0.1857
      4 C          -0.9710   -0.1402   -0.0280 C.ar    1  LIG1        0.1124
      5 N           0.2311   -0.8466   -0.0942 N.ar    1  LIG1       -0.3534
      6 H           0.3038   -1.6720   -0.6716 H       1  LIG1        0.1656
      7 H           2.3209   -0.2841   -0.0315 H       1  LIG1        0.0845
      8 O           1.4615    2.4432    0.4999 O.3     1  LIG1       -0.5023
      9 H           0.8011    3.1452    0.5939 H       1  LIG1        0.2923
     10 O          -1.4483    2.2615    0.4734 O.3     1  LIG1       -0.5019
     11 H          -2.3334    2.0959    0.0981 H       1  LIG1        0.2924
     12 C          -2.2553   -0.7695   -0.1489 C.ar    1  LIG1        0.1129
     13 C          -3.4955   -0.2205   -0.4052 C.ar    1  LIG1        0.1864
     14 C          -4.4714   -1.2483   -0.3661 C.ar    1  LIG1        0.1864
     15 C          -3.8193   -2.4399   -0.0839 C.ar    1  LIG1        0.1129
     16 N          -2.4462   -2.1491   -0.0014 N.ar    1  LIG1       -0.3458
     17 H          -1.8784   -2.6314    0.6835 H       1  LIG1        0.1662
     18 O          -3.7331    1.0999   -0.7146 O.3     1  LIG1       -0.5019
     19 H          -4.6930    1.2213   -0.7519 H       1  LIG1        0.2924
     20 O          -5.7777   -0.9934   -0.6490 O.3     1  LIG1       -0.5019
     21 H          -6.3187   -1.7435   -0.3344 H       1  LIG1        0.2924
     22 C          -4.3386   -3.7725    0.0368 C.ar    1  LIG1        0.1129
     23 C          -5.6402   -4.2201    0.2304 C.ar    1  LIG1        0.1864
     24 C          -5.6269   -5.6321    0.2803 C.ar    1  LIG1        0.1864
     25 C          -4.3151   -6.0557    0.1065 C.ar    1  LIG1        0.1129
     26 N          -3.5464   -4.9118   -0.0056 N.ar    1  LIG1       -0.3458
     27 H          -2.5938   -4.9389   -0.3386 H       1  LIG1        0.1662
     28 O          -6.7448   -3.4055    0.4000 O.3     1  LIG1       -0.5019
     29 H          -7.5240   -3.9180    0.1396 H       1  LIG1        0.2924
     30 O          -6.7462   -6.4420    0.4185 O.3     1  LIG1       -0.5019
     31 H          -6.9473   -6.5259    1.3624 H       1  LIG1        0.2924
     32 C          -3.7579   -7.3744    0.0082 C.ar    1  LIG1        0.1124
     33 C          -2.4345   -7.7916   -0.0898 C.ar    1  LIG1        0.1857
     34 C          -2.4224   -9.2041   -0.2210 C.ar    1  LIG1        0.1767
     35 C          -3.7335   -9.6348   -0.1885 C.ar    1  LIG1        0.0480
     36 N          -4.5281   -8.5136   -0.0352 N.ar    1  LIG1       -0.3534
     37 H          -5.5355   -8.4885   -0.0600 H       1  LIG1        0.1656
     38 H          -4.1467  -10.6279   -0.2546 H       1  LIG1        0.0845
     39 O          -1.3102   -6.9726   -0.1234 O.3     1  LIG1       -0.5019
     40 H          -0.9486   -6.9190    0.7736 H       1  LIG1        0.2924
     41 O          -1.3118   -9.9917   -0.3344 O.3     1  LIG1       -0.5023
     42 H          -0.5766   -9.4056   -0.5642 H       1  LIG1        0.2923
@<TRIPOS>BOND
     1    19    18    1
     2    18    13    1
     3     6     5    1
     4    20    14    1
     5    20    21    1
     6    42    41    1
     7    13    14   ar
     8    13    12   ar
     9    14    15   ar
    10    27    26    1
    11    41    34    1
    12    38    35    1
    13    34    35   ar
    14    34    33   ar
    15    35    36   ar
    16    12     4    1
    17    12    16   ar
    18    39    33    1
    19    39    40    1
    20     5     4   ar
    21     5     1   ar
    22    33    32   ar
    23    15    16   ar
    24    15    22    1
    25    37    36    1
    26    36    32   ar
    27     7     1    1
    28     4     3   ar
    29    26    22   ar
    30    26    25   ar
    31    16    17    1
    32    32    25    1
    33     1     2   ar
    34    22    23   ar
    35    11    10    1
    36    25    24   ar
    37    29    28    1
    38     3     2   ar
    39     3    10    1
    40    23    24   ar
    41    23    28    1
    42     2     8    1
    43    24    30    1
    44    30    31    1
    45     8     9    1
