@<TRIPOS>MOLECULE
mol_data/opt/b3lyp/geoms/mol2/13ff13ff-4ff13ff.out
 44 47 0 0 0
SMALL
GASTEIGER

@<TRIPOS>ATOM
      1 C           1.4065   -0.3058   -0.3595 C.ar    1  LIG1        0.0480
      2 C           1.0191    0.9959   -0.1112 C.ar    1  LIG1        0.1767
      3 C          -0.3878    0.9974    0.0660 C.ar    1  LIG1        0.1857
      4 C          -0.8477   -0.3065   -0.0860 C.ar    1  LIG1        0.1124
      5 N           0.2642   -1.0842   -0.3216 N.ar    1  LIG1       -0.3534
      6 H           0.2016   -2.0632   -0.5530 H       1  LIG1        0.1656
      7 H           2.3819   -0.7246   -0.5452 H       1  LIG1        0.0845
      8 O           1.8337    2.0887   -0.0326 O.3     1  LIG1       -0.5023
      9 H           1.2502    2.8591    0.0292 H       1  LIG1        0.2923
     10 O          -1.1429    2.1396    0.2978 O.3     1  LIG1       -0.5019
     11 H          -1.3591    2.1788    1.2410 H       1  LIG1        0.2924
     12 C          -2.1756   -0.8524   -0.0333 C.ar    1  LIG1        0.1128
     13 C          -2.6021   -2.1784   -0.0114 C.ar    1  LIG1        0.1864
     14 C          -4.0102   -2.1889    0.0110 C.ar    1  LIG1        0.1850
     15 C          -4.4584   -0.8632    0.0179 C.ar    1  LIG1        0.0964
     16 N          -3.3078   -0.0827    0.0014 N.ar    1  LIG1       -0.3469
     17 H          -3.3288    0.9249   -0.0665 H       1  LIG1        0.1662
     18 O          -1.8070   -3.3202   -0.0579 O.3     1  LIG1       -0.5019
     19 H          -1.5607   -3.5537    0.8495 H       1  LIG1        0.2924
     20 O          -4.7834   -3.3193    0.0328 O.3     1  LIG1       -0.5019
     21 H          -4.1845   -4.0605   -0.1419 H       1  LIG1        0.2924
     22 C          -6.0950    1.0648    0.0257 C.ar    1  LIG1        0.1269
     23 C          -7.4002    1.5341    0.0272 C.ar    1  LIG1       -0.0068
     24 C          -5.8053   -0.3188    0.0321 C.ar    1  LIG1        0.0469
     25 C          -8.5170    0.6754    0.0338 C.ar    1  LIG1        0.0469
     26 H          -7.5743    2.6053    0.0242 H       1  LIG1        0.0662
     27 C          -6.9228   -1.1779    0.0441 C.ar    1  LIG1       -0.0068
     28 C          -8.2274   -0.7076    0.0439 C.ar    1  LIG1        0.1269
     29 H          -6.7500   -2.2493    0.0487 H       1  LIG1        0.0662
     30 O          -5.0360    1.9560    0.0223 O.3     1  LIG1       -0.5061
     31 H          -5.3857    2.8521   -0.0595 H       1  LIG1        0.2922
     32 O          -9.2871   -1.6014    0.0537 O.3     1  LIG1       -0.5061
     33 H          -8.9316   -2.4990    0.0585 H       1  LIG1        0.2922
     34 C          -9.8636    1.2249    0.0330 C.ar    1  LIG1        0.0959
     35 C         -10.3073    2.5488    0.0056 C.ar    1  LIG1        0.1842
     36 C         -11.7198    2.5449    0.0133 C.ar    1  LIG1        0.1766
     37 C         -12.1404    1.2274    0.0496 C.ar    1  LIG1        0.0479
     38 N         -11.0155    0.4497    0.0504 N.ar    1  LIG1       -0.3546
     39 H         -10.9751   -0.5572    0.0667 H       1  LIG1        0.1656
     40 H         -13.1317    0.8020    0.0754 H       1  LIG1        0.0845
     41 O          -9.5367    3.6805   -0.0262 O.3     1  LIG1       -0.5019
     42 H         -10.1580    4.4245   -0.0297 H       1  LIG1        0.2924
     43 O         -12.4442    3.7231    0.0353 O.3     1  LIG1       -0.5023
     44 H         -13.0833    3.7101   -0.6886 H       1  LIG1        0.2923
@<TRIPOS>BOND
     1    44    43    1
     2     6     5    1
     3     7     1    1
     4     1     5   ar
     5     1     2   ar
     6     5     4   ar
     7    21    20    1
     8     2     8    1
     9     2     3   ar
    10     4    12    1
    11     4     3   ar
    12    17    16    1
    13    31    30    1
    14    18    13    1
    15    18    19    1
    16    12    13   ar
    17    12    16   ar
    18     8     9    1
    19    42    41    1
    20    41    35    1
    21    13    14   ar
    22    16    15   ar
    23    35    36   ar
    24    35    34   ar
    25    14    15   ar
    26    14    20    1
    27    36    43    1
    28    36    37   ar
    29    15    24    1
    30    30    22    1
    31    26    23    1
    32    22    23   ar
    33    22    24   ar
    34    23    25   ar
    35    24    27   ar
    36    34    25    1
    37    34    38   ar
    38    25    28   ar
    39    28    27   ar
    40    28    32    1
    41    27    29    1
    42    37    38   ar
    43    37    40    1
    44    38    39    1
    45    32    33    1
    46     3    10    1
    47    10    11    1
