@<TRIPOS>MOLECULE
mol_data/opt/b3lyp/geoms/mol2/13ff13ff-13ff.out
 32 34 0 0 0
SMALL
GASTEIGER

@<TRIPOS>ATOM
      1 C           1.2511   -0.2315   -0.5439 C.ar    1  LIG1        0.0480
      2 C           0.9023    0.9645    0.0348 C.ar    1  LIG1        0.1767
      3 C          -0.5018    0.9355    0.2773 C.ar    1  LIG1        0.1857
      4 C          -0.9944   -0.2801   -0.1581 C.ar    1  LIG1        0.1124
      5 N           0.1027   -1.0219   -0.6067 N.ar    1  LIG1       -0.3534
      6 H          -0.0211   -1.7081   -1.3380 H       1  LIG1        0.1656
      7 H           2.2111   -0.5956   -0.8718 H       1  LIG1        0.0845
      8 O           1.7383    1.9888    0.3662 O.3     1  LIG1       -0.5023
      9 H           1.2026    2.6536    0.8224 H       1  LIG1        0.2923
     10 O          -1.1539    1.9745    0.8975 O.3     1  LIG1       -0.5019
     11 H          -1.9406    1.6261    1.3419 H       1  LIG1        0.2924
     12 C          -2.3224   -0.8304   -0.0978 C.ar    1  LIG1        0.1129
     13 C          -2.7295   -2.1460    0.0873 C.ar    1  LIG1        0.1864
     14 C          -4.1402   -2.1638    0.1687 C.ar    1  LIG1        0.1864
     15 C          -4.5954   -0.8594    0.0407 C.ar    1  LIG1        0.1129
     16 N          -3.4741   -0.0502   -0.0798 N.ar    1  LIG1       -0.3458
     17 H          -3.5343    0.8877   -0.4513 H       1  LIG1        0.1662
     18 O          -1.9593   -3.2762    0.2281 O.3     1  LIG1       -0.5019
     19 H          -1.0819   -3.0031    0.5365 H       1  LIG1        0.2924
     20 O          -4.9492   -3.2571    0.3612 O.3     1  LIG1       -0.5019
     21 H          -4.3747   -4.0173    0.5272 H       1  LIG1        0.2924
     22 C          -5.9312   -0.3380    0.0105 C.ar    1  LIG1        0.1124
     23 C          -6.3815    0.9607   -0.1827 C.ar    1  LIG1        0.1857
     24 C          -7.7957    0.9437   -0.1466 C.ar    1  LIG1        0.1767
     25 C          -8.1975   -0.3626    0.0687 C.ar    1  LIG1        0.0480
     26 N          -7.0547   -1.1281    0.1576 N.ar    1  LIG1       -0.3534
     27 H          -7.0080   -2.1237    0.3067 H       1  LIG1        0.1656
     28 H          -9.1822   -0.7919    0.1682 H       1  LIG1        0.0845
     29 O          -5.5654    2.0499   -0.3787 O.3     1  LIG1       -0.5019
     30 H          -6.1359    2.8018   -0.5908 H       1  LIG1        0.2924
     31 O          -8.5259    2.1016   -0.2941 O.3     1  LIG1       -0.5023
     32 H          -9.4059    1.8809   -0.6224 H       1  LIG1        0.2923
@<TRIPOS>BOND
     1     6     5    1
     2     7     1    1
     3    32    31    1
     4     5     1   ar
     5     5     4   ar
     6    30    29    1
     7     1     2   ar
     8    17    16    1
     9    29    23    1
    10    31    24    1
    11    23    24   ar
    12    23    22   ar
    13     4    12    1
    14     4     3   ar
    15    24    25   ar
    16    12    16   ar
    17    12    13   ar
    18    16    15   ar
    19    22    15    1
    20    22    26   ar
    21     2     3   ar
    22     2     8    1
    23    15    14   ar
    24    25    26   ar
    25    25    28    1
    26    13    14   ar
    27    13    18    1
    28    26    27    1
    29    14    20    1
    30    18    19    1
    31     3    10    1
    32    20    21    1
    33     8     9    1
    34    10    11    1
