@<TRIPOS>MOLECULE
mol_data/opt/b3lyp/geoms/mol2/13ff13ff.out
 22 23 0 0 0
SMALL
GASTEIGER

@<TRIPOS>ATOM
      1 C           1.2500   -0.3027   -0.0007 C.ar    1  LIG1        0.0480
      2 C           0.7953    0.9961   -0.0000 C.ar    1  LIG1        0.1767
      3 C          -0.6240    0.9655    0.0003 C.ar    1  LIG1        0.1857
      4 C          -1.0313   -0.3678    0.0001 C.ar    1  LIG1        0.1124
      5 N           0.1369   -1.1225   -0.0004 N.ar    1  LIG1       -0.3534
      6 H           0.1869   -2.1250   -0.0018 H       1  LIG1        0.1656
      7 H           2.2527   -0.6967   -0.0013 H       1  LIG1        0.0845
      8 O           1.5529    2.1324    0.0003 O.3     1  LIG1       -0.5023
      9 H           0.9302    2.8740    0.0007 H       1  LIG1        0.2923
     10 O          -1.3290    2.1333    0.0009 O.3     1  LIG1       -0.5019
     11 H          -2.2846    1.9421    0.0007 H       1  LIG1        0.2924
     12 C          -2.3548   -0.9508    0.0006 C.ar    1  LIG1        0.1124
     13 C          -3.6056   -0.3482    0.0005 C.ar    1  LIG1        0.1857
     14 C          -4.5995   -1.3548    0.0010 C.ar    1  LIG1        0.1767
     15 C          -3.9631   -2.5770    0.0016 C.ar    1  LIG1        0.0480
     16 N          -2.6029   -2.3144    0.0014 N.ar    1  LIG1       -0.3534
     17 H          -1.8997   -3.0313    0.0012 H       1  LIG1        0.1656
     18 H          -4.3495   -3.5834    0.0022 H       1  LIG1        0.0845
     19 O          -3.8439    1.0105    0.0001 O.3     1  LIG1       -0.5019
     20 H          -4.8002    1.1507   -0.0002 H       1  LIG1        0.2924
     21 O          -5.9304   -1.0168    0.0009 O.3     1  LIG1       -0.5023
     22 H          -6.4678   -1.8177    0.0009 H       1  LIG1        0.2923
@<TRIPOS>BOND
     1     6     5    1
     2     7     1    1
     3     1     5   ar
     4     1     2   ar
     5     5     4   ar
     6    20    19    1
     7     2     8    1
     8     2     3   ar
     9    19    13    1
    10     4     3   ar
    11     4    12    1
    12     8     9    1
    13     3    10    1
    14    13    12   ar
    15    13    14   ar
    16    12    16   ar
    17    11    10    1
    18    21    22    1
    19    21    14    1
    20    14    15   ar
    21    17    16    1
    22    16    15   ar
    23    15    18    1
