@<TRIPOS>MOLECULE
mol_data/opt/b3lyp/geoms/mol2/13ff13ff-13ff-13ff-.out
 42 45 0 0 0
SMALL
GASTEIGER

@<TRIPOS>ATOM
      1 C           1.4209   -0.4562   -0.5329 C.ar    1  LIG1        0.0480
      2 C           1.1289    0.7807   -0.0125 C.ar    1  LIG1        0.1767
      3 C          -0.2758    0.8275    0.2287 C.ar    1  LIG1        0.1857
      4 C          -0.8234   -0.3831   -0.1492 C.ar    1  LIG1        0.1124
      5 N           0.2382   -1.1986   -0.5612 N.ar    1  LIG1       -0.3534
      6 H           0.0828   -1.8888   -1.2836 H       1  LIG1        0.1656
      7 H           2.3632   -0.8762   -0.8453 H       1  LIG1        0.0845
      8 O           2.0134    1.7773    0.2688 O.3     1  LIG1       -0.5023
      9 H           1.5183    2.4872    0.7019 H       1  LIG1        0.2923
     10 O          -0.8798    1.9137    0.8100 O.3     1  LIG1       -0.5019
     11 H          -1.7298    1.6269    1.1754 H       1  LIG1        0.2924
     12 C          -2.1732   -0.8682   -0.0472 C.ar    1  LIG1        0.1129
     13 C          -2.6403   -2.1318    0.2614 C.ar    1  LIG1        0.1864
     14 C          -4.0552   -2.0777    0.3209 C.ar    1  LIG1        0.1864
     15 C          -4.4606   -0.7831    0.0514 C.ar    1  LIG1        0.1129
     16 N          -3.2954   -0.0203   -0.1116 N.ar    1  LIG1       -0.3458
     17 H          -3.3005    0.7310   -0.7902 H       1  LIG1        0.1662
     18 O          -1.9401   -3.2722    0.5484 O.3     1  LIG1       -0.5019
     19 H          -1.0175   -3.0265    0.7178 H       1  LIG1        0.2924
     20 O          -4.8977   -3.1134    0.6582 O.3     1  LIG1       -0.5019
     21 H          -4.3647   -3.9110    0.7830 H       1  LIG1        0.2924
     22 C          -5.7777   -0.2306   -0.0587 C.ar    1  LIG1        0.1129
     23 C          -7.0026   -0.8620   -0.2319 C.ar    1  LIG1        0.1864
     24 C          -7.9987    0.1432   -0.3044 C.ar    1  LIG1        0.1864
     25 C          -7.3992    1.3807   -0.1751 C.ar    1  LIG1        0.1129
     26 N          -6.0215    1.1537   -0.0770 N.ar    1  LIG1       -0.3458
     27 H          -5.4811    1.7586    0.5279 H       1  LIG1        0.1662
     28 O          -7.3139   -2.1754   -0.4011 O.3     1  LIG1       -0.5019
     29 H          -6.5834   -2.7253   -0.0600 H       1  LIG1        0.2924
     30 O          -9.3387   -0.0720   -0.5350 O.3     1  LIG1       -0.5019
     31 H          -9.4936   -1.0265   -0.4824 H       1  LIG1        0.2924
     32 C          -7.9820    2.6912   -0.1301 C.ar    1  LIG1        0.1124
     33 C          -9.2881    3.0771    0.1368 C.ar    1  LIG1        0.1857
     34 C          -9.3479    4.4984    0.0683 C.ar    1  LIG1        0.1767
     35 C          -8.0905    4.9604   -0.2389 C.ar    1  LIG1        0.0480
     36 N          -7.2402    3.8601   -0.3095 N.ar    1  LIG1       -0.3534
     37 H          -6.4344    3.8640   -0.9181 H       1  LIG1        0.1656
     38 H          -7.7312    5.9671   -0.3793 H       1  LIG1        0.0845
     39 O         -10.3770    2.3385    0.4937 O.3     1  LIG1       -0.5019
     40 H         -10.2517    1.4201    0.1893 H       1  LIG1        0.2924
     41 O         -10.4616    5.2460    0.3132 O.3     1  LIG1       -0.5023
     42 H         -11.1810    4.6207    0.4837 H       1  LIG1        0.2923
@<TRIPOS>BOND
     1     6     5    1
     2    37    36    1
     3     7     1    1
     4    17    16    1
     5     5     1   ar
     6     5     4   ar
     7    30    31    1
     8    30    24    1
     9     1     2   ar
    10    28    23    1
    11    28    29    1
    12    38    35    1
    13    36    35   ar
    14    36    32   ar
    15    24    23   ar
    16    24    25   ar
    17    35    34   ar
    18    23    22   ar
    19    25    32    1
    20    25    26   ar
    21     4    12    1
    22     4     3   ar
    23    32    33   ar
    24    16    12   ar
    25    16    15   ar
    26    26    22   ar
    27    26    27    1
    28    22    15    1
    29    12    13   ar
    30     2     3   ar
    31     2     8    1
    32    15    14   ar
    33    34    33   ar
    34    34    41    1
    35    33    39    1
    36    40    39    1
    37     3    10    1
    38    13    14   ar
    39    13    18    1
    40     8     9    1
    41    41    42    1
    42    14    20    1
    43    18    19    1
    44    20    21    1
    45    10    11    1
