@<TRIPOS>MOLECULE
mol_data/opt/b3lyp/geoms/mol2/13ff13ff13ff13ff.out
 42 45 0 0 0
SMALL
GASTEIGER

@<TRIPOS>ATOM
      1 C           1.3191    0.1476   -0.0995 C.ar    1  LIG1        0.0480
      2 C           0.7768    1.3855    0.1490 C.ar    1  LIG1        0.1767
      3 C          -0.6408    1.2483    0.1669 C.ar    1  LIG1        0.1857
      4 C          -0.9441   -0.0844   -0.0710 C.ar    1  LIG1        0.1124
      5 N           0.2696   -0.7651   -0.1821 N.ar    1  LIG1       -0.3534
      6 H           0.3391   -1.5856   -0.7665 H       1  LIG1        0.1656
      7 H           2.3487   -0.1594   -0.1881 H       1  LIG1        0.0845
      8 O           1.4510    2.5474    0.3859 O.3     1  LIG1       -0.5023
      9 H           0.7791    3.2335    0.5100 H       1  LIG1        0.2923
     10 O          -1.4520    2.3050    0.4599 O.3     1  LIG1       -0.5019
     11 H          -2.3485    2.1192    0.1223 H       1  LIG1        0.2924
     12 C          -2.2189   -0.7394   -0.1506 C.ar    1  LIG1        0.1129
     13 C          -3.4788   -0.2123   -0.3548 C.ar    1  LIG1        0.1864
     14 C          -4.4328   -1.2587   -0.2932 C.ar    1  LIG1        0.1864
     15 C          -3.7464   -2.4407   -0.0502 C.ar    1  LIG1        0.1129
     16 N          -2.3776   -2.1241   -0.0155 N.ar    1  LIG1       -0.3458
     17 H          -1.7783   -2.6129    0.6371 H       1  LIG1        0.1662
     18 O          -3.7542    1.1065   -0.6398 O.3     1  LIG1       -0.5019
     19 H          -4.7172    1.2089   -0.6334 H       1  LIG1        0.2924
     20 O          -5.7529   -1.0264   -0.5269 O.3     1  LIG1       -0.5019
     21 H          -6.2747   -1.7773   -0.1829 H       1  LIG1        0.2924
     22 C          -4.2369   -3.7790    0.0918 C.ar    1  LIG1        0.1129
     23 C          -5.5186   -4.2383    0.3278 C.ar    1  LIG1        0.1864
     24 C          -5.5077   -5.6556    0.3336 C.ar    1  LIG1        0.1864
     25 C          -4.2045   -6.0675    0.1025 C.ar    1  LIG1        0.1129
     26 N          -3.4134   -4.9095    0.0048 N.ar    1  LIG1       -0.3458
     27 H          -2.6515   -4.8907   -0.6613 H       1  LIG1        0.1662
     28 O          -6.6144   -3.4449    0.5872 O.3     1  LIG1       -0.5019
     29 H          -7.3925   -4.0212    0.6060 H       1  LIG1        0.2924
     30 O          -6.6320   -6.3716    0.6067 O.3     1  LIG1       -0.5019
     31 H          -6.5126   -7.2844    0.2792 H       1  LIG1        0.2924
     32 C          -3.6587   -7.3942    0.0327 C.ar    1  LIG1        0.1124
     33 C          -4.2926   -8.6046   -0.1880 C.ar    1  LIG1        0.1857
     34 C          -3.3250   -9.6390   -0.1203 C.ar    1  LIG1        0.1767
     35 C          -2.1039   -9.0563    0.1388 C.ar    1  LIG1        0.0480
     36 N          -2.3087   -7.6816    0.1859 N.ar    1  LIG1       -0.3534
     37 H          -1.6940   -7.0559    0.6831 H       1  LIG1        0.1656
     38 H          -1.1219   -9.4884    0.2520 H       1  LIG1        0.0845
     39 O          -5.6338   -8.7521   -0.4823 O.3     1  LIG1       -0.5019
     40 H          -5.8430   -9.6963   -0.4529 H       1  LIG1        0.2924
     41 O          -3.6847  -10.9441   -0.3377 O.3     1  LIG1       -0.5023
     42 H          -2.9275  -11.5199   -0.1763 H       1  LIG1        0.2923
@<TRIPOS>BOND
     1     6     5    1
     2    27    26    1
     3    18    19    1
     4    18    13    1
     5    20    14    1
     6    20    21    1
     7    39    40    1
     8    39    33    1
     9    13    14   ar
    10    13    12   ar
    11    41    42    1
    12    41    34    1
    13    14    15   ar
    14     7     1    1
    15    33    34   ar
    16    33    32   ar
    17     5     1   ar
    18     5     4   ar
    19    12     4    1
    20    12    16   ar
    21    34    35   ar
    22     1     2   ar
    23     4     3   ar
    24    15    16   ar
    25    15    22    1
    26    16    17    1
    27    26    22   ar
    28    26    25   ar
    29    32    25    1
    30    32    36   ar
    31    22    23   ar
    32    25    24   ar
    33    11    10    1
    34    35    36   ar
    35    35    38    1
    36     2     3   ar
    37     2     8    1
    38     3    10    1
    39    36    37    1
    40    31    30    1
    41    23    24   ar
    42    23    28    1
    43    24    30    1
    44     8     9    1
    45    28    29    1
