@<TRIPOS>MOLECULE
mol_data/opt/b3lyp/geoms/mol2/13ff13ff13ff.out
 32 34 0 0 0
SMALL
GASTEIGER

@<TRIPOS>ATOM
      1 C           1.3242   -0.1134    0.0380 C.ar    1  LIG1        0.0480
      2 C           0.8158    1.1356   -0.2268 C.ar    1  LIG1        0.1767
      3 C          -0.6054    1.0407   -0.2226 C.ar    1  LIG1        0.1857
      4 C          -0.9446   -0.2775    0.0451 C.ar    1  LIG1        0.1124
      5 N           0.2494   -0.9914    0.1534 N.ar    1  LIG1       -0.3534
      6 H           0.3033   -1.8076    0.7452 H       1  LIG1        0.1656
      7 H           2.3453   -0.4498    0.1183 H       1  LIG1        0.0845
      8 O           1.5214    2.2718   -0.4949 O.3     1  LIG1       -0.5023
      9 H           0.8689    2.9754   -0.6245 H       1  LIG1        0.2923
     10 O          -1.3893    2.1154   -0.5245 O.3     1  LIG1       -0.5019
     11 H          -2.2858    1.9623   -0.1710 H       1  LIG1        0.2924
     12 C          -2.2377   -0.8927    0.1542 C.ar    1  LIG1        0.1129
     13 C          -3.4783   -0.3250    0.3611 C.ar    1  LIG1        0.1864
     14 C          -4.4637   -1.3456    0.3294 C.ar    1  LIG1        0.1864
     15 C          -3.8156   -2.5491    0.1036 C.ar    1  LIG1        0.1129
     16 N          -2.4377   -2.2756    0.0460 N.ar    1  LIG1       -0.3458
     17 H          -1.8651   -2.7840   -0.6162 H       1  LIG1        0.1662
     18 O          -3.7132    1.0062    0.6238 O.3     1  LIG1       -0.5019
     19 H          -4.6728    1.1371    0.6186 H       1  LIG1        0.2924
     20 O          -5.7748   -1.0725    0.5704 O.3     1  LIG1       -0.5019
     21 H          -6.3190   -1.8053    0.2217 H       1  LIG1        0.2924
     22 C          -4.3520   -3.8785    0.0058 C.ar    1  LIG1        0.1124
     23 C          -5.6453   -4.2979   -0.2528 C.ar    1  LIG1        0.1857
     24 C          -5.6783   -5.7146   -0.2020 C.ar    1  LIG1        0.1767
     25 C          -4.4048   -6.1550    0.0849 C.ar    1  LIG1        0.0480
     26 N          -3.5929   -5.0293    0.1666 N.ar    1  LIG1       -0.3534
     27 H          -2.7231   -5.0172    0.6761 H       1  LIG1        0.1656
     28 H          -4.0073   -7.1517    0.1964 H       1  LIG1        0.0845
     29 O          -6.6998   -3.4622   -0.5652 O.3     1  LIG1       -0.5019
     30 H          -7.5095   -3.9916   -0.5630 H       1  LIG1        0.2924
     31 O          -6.8421   -6.3941   -0.4565 O.3     1  LIG1       -0.5023
     32 H          -6.7058   -7.3369   -0.3037 H       1  LIG1        0.2923
@<TRIPOS>BOND
     1     9     8    1
     2    17    16    1
     3    29    30    1
     4    29    23    1
     5    10     3    1
     6    10    11    1
     7     8     2    1
     8    31    32    1
     9    31    24    1
    10    23    24   ar
    11    23    22   ar
    12     2     3   ar
    13     2     1   ar
    14     3     4   ar
    15    24    25   ar
    16    22    15    1
    17    22    26   ar
    18     1     7    1
    19     1     5   ar
    20     4     5   ar
    21     4    12    1
    22    16    15   ar
    23    16    12   ar
    24    25    26   ar
    25    25    28    1
    26    15    14   ar
    27     5     6    1
    28    12    13   ar
    29    26    27    1
    30    21    20    1
    31    14    13   ar
    32    14    20    1
    33    13    18    1
    34    19    18    1
