@<TRIPOS>MOLECULE
mol_data/opt/b3lyp/geoms/mol2/13ff13ff-13ff-13ff.out
 42 45 0 0 0
SMALL
GASTEIGER

@<TRIPOS>ATOM
      1 C           1.3759   -0.4352   -0.6208 C.ar    1  LIG1        0.0480
      2 C           1.0741    0.8186   -0.1501 C.ar    1  LIG1        0.1767
      3 C          -0.3286    0.8593    0.1063 C.ar    1  LIG1        0.1857
      4 C          -0.8649   -0.3723   -0.2134 C.ar    1  LIG1        0.1124
      5 N           0.2019   -1.1937   -0.6030 N.ar    1  LIG1       -0.3534
      6 H           0.0451   -1.9054   -1.3042 H       1  LIG1        0.1656
      7 H           2.3198   -0.8565   -0.9267 H       1  LIG1        0.0845
      8 O           1.9489    1.8375    0.0799 O.3     1  LIG1       -0.5023
      9 H           1.4458    2.5629    0.4763 H       1  LIG1        0.2923
     10 O          -0.9360    1.9608    0.6512 O.3     1  LIG1       -0.5019
     11 H          -1.8080    1.6944    0.9793 H       1  LIG1        0.2924
     12 C          -2.2072   -0.8678   -0.0701 C.ar    1  LIG1        0.1129
     13 C          -2.6541   -2.1180    0.3105 C.ar    1  LIG1        0.1864
     14 C          -4.0681   -2.0732    0.4052 C.ar    1  LIG1        0.1864
     15 C          -4.4931   -0.7971    0.0858 C.ar    1  LIG1        0.1129
     16 N          -3.3393   -0.0321   -0.1471 N.ar    1  LIG1       -0.3458
     17 H          -3.3699    0.6728   -0.8737 H       1  LIG1        0.1662
     18 O          -1.9346   -3.2354    0.6388 O.3     1  LIG1       -0.5019
     19 H          -1.0097   -2.9717    0.7637 H       1  LIG1        0.2924
     20 O          -4.8887   -3.0992    0.8184 O.3     1  LIG1       -0.5019
     21 H          -4.3419   -3.8832    0.9665 H       1  LIG1        0.2924
     22 C          -5.8181   -0.2600   -0.0124 C.ar    1  LIG1        0.1129
     23 C          -7.0443   -0.9137   -0.1513 C.ar    1  LIG1        0.1864
     24 C          -8.0504    0.0731   -0.2340 C.ar    1  LIG1        0.1864
     25 C          -7.4499    1.3213   -0.1512 C.ar    1  LIG1        0.1129
     26 N          -6.0856    1.1044   -0.0483 N.ar    1  LIG1       -0.3458
     27 H          -5.4630    1.8241    0.2884 H       1  LIG1        0.1662
     28 O          -7.3315   -2.2422   -0.2703 O.3     1  LIG1       -0.5019
     29 H          -6.5972   -2.7617    0.1057 H       1  LIG1        0.2924
     30 O          -9.3975   -0.1390   -0.3981 O.3     1  LIG1       -0.5019
     31 H          -9.5357   -1.0969   -0.3926 H       1  LIG1        0.2924
     32 C          -8.0288    2.6322   -0.1349 C.ar    1  LIG1        0.1124
     33 C          -7.4353    3.8755    0.0393 C.ar    1  LIG1        0.1857
     34 C          -8.4542    4.8558    0.0036 C.ar    1  LIG1        0.1767
     35 C          -9.6602    4.2062   -0.1920 C.ar    1  LIG1        0.0480
     36 N          -9.3850    2.8582   -0.2702 N.ar    1  LIG1       -0.3534
     37 H         -10.0527    2.1129   -0.3917 H       1  LIG1        0.1656
     38 H         -10.6632    4.5917   -0.2879 H       1  LIG1        0.0845
     39 O          -6.0879    4.0832    0.2239 O.3     1  LIG1       -0.5019
     40 H          -5.9675    5.0273    0.3974 H       1  LIG1        0.2924
     41 O          -8.1583    6.1952    0.1291 O.3     1  LIG1       -0.5023
     42 H          -8.9295    6.6576    0.4789 H       1  LIG1        0.2923
@<TRIPOS>BOND
     1     6     5    1
     2     7     1    1
     3    17    16    1
     4     1     5   ar
     5     1     2   ar
     6     5     4   ar
     7    30    31    1
     8    30    24    1
     9    37    36    1
    10    38    35    1
    11    28    23    1
    12    28    29    1
    13    36    35   ar
    14    36    32   ar
    15    24    23   ar
    16    24    25   ar
    17     4    12    1
    18     4     3   ar
    19    35    34   ar
    20    23    22   ar
    21    25    32    1
    22    25    26   ar
    23     2     8    1
    24     2     3   ar
    25    16    12   ar
    26    16    15   ar
    27    32    33   ar
    28    12    13   ar
    29    26    22   ar
    30    26    27    1
    31    22    15    1
    32    34    33   ar
    33    34    41    1
    34    33    39    1
    35     8     9    1
    36    15    14   ar
    37     3    10    1
    38    41    42    1
    39    39    40    1
    40    13    14   ar
    41    13    18    1
    42    14    20    1
    43    18    19    1
    44    10    11    1
    45    20    21    1
