@<TRIPOS>MOLECULE
mol_data/opt/b3lyp/geoms/mol2/13ff4fd-12fi13de-.out
 46 49 0 0 0
SMALL
GASTEIGER

@<TRIPOS>ATOM
      1 C           1.3322   -0.1512    0.4311 C.ar    1  LIG1        0.0479
      2 C           1.0148    1.0150   -0.2256 C.ar    1  LIG1        0.1766
      3 C          -0.3858    1.0104   -0.4647 C.ar    1  LIG1        0.1842
      4 C          -0.9143   -0.1735    0.0498 C.ar    1  LIG1        0.0958
      5 N           0.1717   -0.8912    0.5549 N.ar    1  LIG1       -0.3546
      6 H           0.0573   -1.5881    1.2750 H       1  LIG1        0.1656
      7 H           2.2786   -0.5061    0.8065 H       1  LIG1        0.0845
      8 O           1.8737    1.9961   -0.6198 O.3     1  LIG1       -0.5023
      9 H           1.3367    2.6789   -1.0479 H       1  LIG1        0.2923
     10 O          -0.9626    2.0154   -1.1793 O.3     1  LIG1       -0.5019
     11 H          -1.9039    2.0477   -0.9337 H       1  LIG1        0.2924
     12 C          -3.4393    0.0142    0.0289 C.ar    1  LIG1        0.1268
     13 C          -4.6963   -0.5695    0.0342 C.ar    1  LIG1       -0.0075
     14 C          -2.2472   -0.7529    0.0402 C.ar    1  LIG1        0.0446
     15 C          -4.8670   -1.9655    0.0774 C.ar    1  LIG1        0.0418
     16 H          -5.5788    0.0627    0.0206 H       1  LIG1        0.0662
     17 C          -2.4237   -2.1438    0.0742 C.ar    1  LIG1       -0.0309
     18 C          -3.6839   -2.7576    0.1072 C.ar    1  LIG1        0.0634
     19 H          -1.5461   -2.7803    0.0534 H       1  LIG1        0.0638
     20 O          -3.3138    1.3851    0.0267 O.3     1  LIG1       -0.5061
     21 H          -4.1912    1.7901    0.0561 H       1  LIG1        0.2922
     22 N          -3.7263   -5.3484    0.2794 N.1     1  LIG1       -0.1908
     23 C          -3.7165   -4.1867    0.1910 C.1     1  LIG1        0.0999
     24 C          -6.1940   -2.5282    0.0909 C.ar    1  LIG1        0.1785
     25 C          -7.4692   -2.0205    0.2540 C.ar    1  LIG1        0.1663
     26 C          -8.4005   -3.1054    0.2463 C.ar    1  LIG1        0.0389
     27 C          -7.6287   -4.2340    0.0427 C.ar    1  LIG1        0.1596
     28 O          -6.3132   -3.8844   -0.0509 O.2     1  LIG1       -0.4492
     29 O          -7.7519   -0.7018    0.4322 O.3     1  LIG1       -0.5030
     30 H          -8.7113   -0.5880    0.4660 H       1  LIG1        0.2923
     31 C          -9.8756   -2.9732    0.4802 C.3     1  LIG1       -0.0325
     32 H         -10.2685   -3.8165    1.0498 H       1  LIG1        0.0280
     33 H         -10.4486   -2.9245   -0.4510 H       1  LIG1        0.0280
     34 H         -10.0951   -2.0682    1.0609 H       1  LIG1        0.0280
     35 C          -7.8292   -5.6584   -0.0534 C.ar    1  LIG1        0.1013
     36 C          -8.9462   -6.4742   -0.2807 C.ar    1  LIG1        0.0953
     37 C          -8.4914   -7.8427   -0.2754 C.ar    1  LIG1        0.0600
     38 C          -7.1234   -7.7985   -0.0598 C.ar    1  LIG1        0.0190
     39 N          -6.7442   -6.4967    0.0708 N.ar    1  LIG1       -0.3561
     40 H          -5.7871   -6.1768    0.2068 H       1  LIG1        0.1655
     41 H          -6.4099   -8.6049    0.0061 H       1  LIG1        0.0820
     42 N         -11.3670   -5.7321   -0.7809 N.1     1  LIG1       -0.1908
     43 C         -10.2739   -6.0611   -0.5469 C.1     1  LIG1        0.1026
     44 C          -9.2853   -9.0000   -0.4666 C.1     1  LIG1       -0.0669
     45 C          -9.9693   -9.9844   -0.6299 C.1     1  LIG1       -0.1138
     46 H         -10.5772  -10.8468   -0.7764 H       1  LIG1        0.1232
@<TRIPOS>BOND
     1    10    11    1
     2    10     3    1
     3     9     8    1
     4    42    43    3
     5    46    45    1
     6    45    44    3
     7     8     2    1
     8    43    36    1
     9    44    37    1
    10     3     2   ar
    11     3     4   ar
    12    33    31    1
    13    36    37   ar
    14    36    35   ar
    15    37    38   ar
    16     2     1   ar
    17    38    41    1
    18    38    39   ar
    19    35    27    1
    20    35    39   ar
    21    28    27   ar
    22    28    24   ar
    23    16    13    1
    24    20    12    1
    25    20    21    1
    26    12    13   ar
    27    12    14   ar
    28    13    15   ar
    29    14     4    1
    30    14    17   ar
    31    27    26   ar
    32     4     5   ar
    33    19    17    1
    34    39    40    1
    35    17    18   ar
    36    15    24    1
    37    15    18   ar
    38    24    25   ar
    39    18    23    1
    40    23    22    3
    41    26    25   ar
    42    26    31    1
    43    25    29    1
    44     1     5   ar
    45     1     7    1
    46    29    30    1
    47    31    32    1
    48    31    34    1
    49     5     6    1
