@<TRIPOS>MOLECULE
mol_data/opt/b3lyp/geoms/mol2/13ff13ff13ff-13ff-.out
 42 45 0 0 0
SMALL
GASTEIGER

@<TRIPOS>ATOM
      1 C           1.3466   -0.1295   -0.4846 C.ar    1  LIG1        0.0480
      2 C           0.8537    1.1435   -0.6450 C.ar    1  LIG1        0.1767
      3 C          -0.5537    1.0979   -0.4345 C.ar    1  LIG1        0.1857
      4 C          -0.9012   -0.2157   -0.1485 C.ar    1  LIG1        0.1124
      5 N           0.2686   -0.9720   -0.2315 N.ar    1  LIG1       -0.3534
      6 H           0.3798   -1.8121    0.3170 H       1  LIG1        0.1656
      7 H           2.3552   -0.5028   -0.5595 H       1  LIG1        0.0845
      8 O           1.5573    2.2596   -0.9876 O.3     1  LIG1       -0.5023
      9 H           0.9229    2.9908   -1.0092 H       1  LIG1        0.2923
     10 O          -1.3293    2.2070   -0.5999 O.3     1  LIG1       -0.5019
     11 H          -2.1701    2.0831   -0.1226 H       1  LIG1        0.2924
     12 C          -2.1866   -0.7916    0.1276 C.ar    1  LIG1        0.1129
     13 C          -3.3671   -0.1897    0.5143 C.ar    1  LIG1        0.1864
     14 C          -4.3806   -1.1807    0.5862 C.ar    1  LIG1        0.1864
     15 C          -3.8212   -2.3953    0.2414 C.ar    1  LIG1        0.1129
     16 N          -2.4454   -2.1698    0.0182 N.ar    1  LIG1       -0.3458
     17 H          -2.0013   -2.6665   -0.7454 H       1  LIG1        0.1662
     18 O          -3.5057    1.1398    0.8393 O.3     1  LIG1       -0.5019
     19 H          -4.4335    1.3047    1.0582 H       1  LIG1        0.2924
     20 O          -5.6486   -0.8994    1.0153 O.3     1  LIG1       -0.5019
     21 H          -6.0915   -1.7396    1.2099 H       1  LIG1        0.2924
     22 C          -4.3957   -3.7098    0.2438 C.ar    1  LIG1        0.1129
     23 C          -3.8370   -4.9227    0.5952 C.ar    1  LIG1        0.1864
     24 C          -4.8504   -5.9141    0.5256 C.ar    1  LIG1        0.1864
     25 C          -6.0301   -5.3140    0.1337 C.ar    1  LIG1        0.1129
     26 N          -5.7711   -3.9363    0.0187 N.ar    1  LIG1       -0.3458
     27 H          -6.2136   -3.4428   -0.7479 H       1  LIG1        0.1662
     28 O          -2.5700   -5.2021    1.0282 O.3     1  LIG1       -0.5019
     29 H          -2.1274   -4.3610    1.2199 H       1  LIG1        0.2924
     30 O          -4.7125   -7.2421    0.8569 O.3     1  LIG1       -0.5019
     31 H          -3.7851   -7.4061    1.0782 H       1  LIG1        0.2924
     32 C          -7.3149   -5.8911   -0.1425 C.ar    1  LIG1        0.1124
     33 C          -7.6617   -7.2060   -0.4234 C.ar    1  LIG1        0.1857
     34 C          -9.0687   -7.2527   -0.6364 C.ar    1  LIG1        0.1767
     35 C          -9.5620   -5.9790   -0.4826 C.ar    1  LIG1        0.0480
     36 N          -8.4846   -5.1354   -0.2311 N.ar    1  LIG1       -0.3534
     37 H          -8.5969   -4.2929    0.3135 H       1  LIG1        0.1656
     38 H         -10.5705   -5.6062   -0.5612 H       1  LIG1        0.0845
     39 O          -6.8856   -8.3157   -0.5824 O.3     1  LIG1       -0.5019
     40 H          -6.0459   -8.1897   -0.1037 H       1  LIG1        0.2924
     41 O          -9.7714   -8.3703   -0.9755 O.3     1  LIG1       -0.5023
     42 H          -9.1369   -9.1016   -0.9926 H       1  LIG1        0.2923
@<TRIPOS>BOND
     1     9     8    1
     2    42    41    1
     3     8     2    1
     4    41    34    1
     5    27    26    1
     6    17    16    1
     7     2     1   ar
     8     2     3   ar
     9    34    35   ar
    10    34    33   ar
    11    10     3    1
    12    10    11    1
    13    39    33    1
    14    39    40    1
    15    38    35    1
    16     7     1    1
    17     1     5   ar
    18    35    36   ar
    19     3     4   ar
    20    33    32   ar
    21     5     4   ar
    22     5     6    1
    23    36    32   ar
    24    36    37    1
    25     4    12    1
    26    32    25    1
    27    16    12   ar
    28    16    15   ar
    29    26    25   ar
    30    26    22   ar
    31    12    13   ar
    32    25    24   ar
    33    15    22    1
    34    15    14   ar
    35    22    23   ar
    36    13    14   ar
    37    13    18    1
    38    24    23   ar
    39    24    30    1
    40    14    20    1
    41    23    28    1
    42    18    19    1
    43    30    31    1
    44    20    21    1
    45    28    29    1
