@<TRIPOS>MOLECULE
mol_data/opt/b3lyp/geoms/mol2/13ff13ff13ff-13ff.out
 42 45 0 0 0
SMALL
GASTEIGER

@<TRIPOS>ATOM
      1 C           1.2785   -0.0682   -0.6271 C.ar    1  LIG1        0.0480
      2 C           0.7607    1.2048   -0.6516 C.ar    1  LIG1        0.1767
      3 C          -0.6289    1.1187   -0.3541 C.ar    1  LIG1        0.1857
      4 C          -0.9412   -0.2188   -0.1523 C.ar    1  LIG1        0.1124
      5 N           0.2289   -0.9456   -0.3720 N.ar    1  LIG1       -0.3534
      6 H           0.3843   -1.8276    0.0934 H       1  LIG1        0.1656
      7 H           2.2835   -0.4178   -0.8002 H       1  LIG1        0.0845
      8 O           1.4261    2.3576   -0.9485 O.3     1  LIG1       -0.5023
      9 H           0.7817    3.0758   -0.8671 H       1  LIG1        0.2923
     10 O          -1.4278    2.2246   -0.3780 O.3     1  LIG1       -0.5019
     11 H          -2.2301    2.0492    0.1472 H       1  LIG1        0.2924
     12 C          -2.1982   -0.8351    0.1672 C.ar    1  LIG1        0.1129
     13 C          -3.3507   -0.2851    0.6897 C.ar    1  LIG1        0.1864
     14 C          -4.3464   -1.2944    0.7613 C.ar    1  LIG1        0.1864
     15 C          -3.8038   -2.4691    0.2788 C.ar    1  LIG1        0.1129
     16 N          -2.4526   -2.2037   -0.0301 N.ar    1  LIG1       -0.3458
     17 H          -2.0606   -2.6408   -0.8557 H       1  LIG1        0.1662
     18 O          -3.4791    1.0117    1.1307 O.3     1  LIG1       -0.5019
     19 H          -4.3897    1.1388    1.4322 H       1  LIG1        0.2924
     20 O          -5.5808   -1.0561    1.3032 O.3     1  LIG1       -0.5019
     21 H          -5.9915   -1.9058    1.5239 H       1  LIG1        0.2924
     22 C          -4.3619   -3.7892    0.2026 C.ar    1  LIG1        0.1129
     23 C          -3.7525   -5.0223    0.3946 C.ar    1  LIG1        0.1864
     24 C          -4.7504   -6.0223    0.3308 C.ar    1  LIG1        0.1864
     25 C          -5.9697   -5.4015    0.1069 C.ar    1  LIG1        0.1129
     26 N          -5.7307   -4.0310    0.0782 N.ar    1  LIG1       -0.3458
     27 H          -6.3669   -3.4087   -0.4025 H       1  LIG1        0.1662
     28 O          -2.4376   -5.2993    0.6719 O.3     1  LIG1       -0.5019
     29 H          -2.0140   -4.4731    0.9505 H       1  LIG1        0.2924
     30 O          -4.5827   -7.3764    0.4841 O.3     1  LIG1       -0.5019
     31 H          -3.6609   -7.5316    0.7324 H       1  LIG1        0.2924
     32 C          -7.2752   -5.9579   -0.0956 C.ar    1  LIG1        0.1124
     33 C          -8.4763   -5.3333   -0.4041 C.ar    1  LIG1        0.1857
     34 C          -9.4707   -6.3320   -0.5252 C.ar    1  LIG1        0.1767
     35 C          -8.8710   -7.5564   -0.2894 C.ar    1  LIG1        0.0480
     36 N          -7.5389   -7.3127   -0.0343 N.ar    1  LIG1       -0.3534
     37 H          -6.8299   -7.9999    0.1673 H       1  LIG1        0.1656
     38 H          -9.2819   -8.5539   -0.2781 H       1  LIG1        0.0845
     39 O          -8.6333   -3.9770   -0.5670 O.3     1  LIG1       -0.5019
     40 H          -9.5357   -3.8291   -0.8832 H       1  LIG1        0.2924
     41 O         -10.7765   -6.0044   -0.8121 O.3     1  LIG1       -0.5023
     42 H         -11.2099   -6.7611   -1.2250 H       1  LIG1        0.2923
@<TRIPOS>BOND
     1    42    41    1
     2     8     9    1
     3     8     2    1
     4    40    39    1
     5    17    16    1
     6    41    34    1
     7     7     1    1
     8     2     1   ar
     9     2     3   ar
    10     1     5   ar
    11    39    33    1
    12    34    33   ar
    13    34    35   ar
    14    33    32   ar
    15    27    26    1
    16    10     3    1
    17    10    11    1
    18     5     4   ar
    19     5     6    1
    20     3     4   ar
    21    35    38    1
    22    35    36   ar
    23     4    12    1
    24    32    36   ar
    25    32    25    1
    26    36    37    1
    27    16    12   ar
    28    16    15   ar
    29    26    25   ar
    30    26    22   ar
    31    25    24   ar
    32    12    13   ar
    33    22    15    1
    34    22    23   ar
    35    15    14   ar
    36    24    23   ar
    37    24    30    1
    38    23    28    1
    39    30    31    1
    40    28    29    1
    41    13    14   ar
    42    13    18    1
    43    14    20    1
    44    18    19    1
    45    20    21    1
