@<TRIPOS>MOLECULE
mol_data/opt/b3lyp/geoms/mol2/13ff.out
 12 12 0 0 0
SMALL
GASTEIGER

@<TRIPOS>ATOM
      1 C           1.1307   -0.3698   -0.0002 C.ar    1  LIG1        0.0475
      2 C           0.6966    0.9381    0.0002 C.ar    1  LIG1        0.1760
      3 C          -0.7252    0.9179    0.0001 C.ar    1  LIG1        0.1760
      4 C          -1.1345   -0.3998    0.0005 C.ar    1  LIG1        0.0475
      5 N           0.0083   -1.1725    0.0002 N.ar    1  LIG1       -0.3610
      6 H           0.0214   -2.1771   -0.0004 H       1  LIG1        0.1650
      7 H          -2.1208   -0.8367    0.0009 H       1  LIG1        0.0845
      8 H           2.1303   -0.7745   -0.0005 H       1  LIG1        0.0845
      9 O           1.4841    2.0573    0.0003 O.3     1  LIG1       -0.5023
     10 H           0.8893    2.8200    0.0005 H       1  LIG1        0.2923
     11 O          -1.4422    2.0921    0.0001 O.3     1  LIG1       -0.5023
     12 H          -2.3855    1.8918    0.0001 H       1  LIG1        0.2923
@<TRIPOS>BOND
     1     8     1    1
     2     6     5    1
     3     1     2   ar
     4     1     5   ar
     5    11    12    1
     6    11     3    1
     7     3     2   ar
     8     3     4   ar
     9     2     9    1
    10     5     4   ar
    11     9    10    1
    12     4     7    1
