@<TRIPOS>MOLECULE
mol_data/opt/b3lyp/geoms/mol2/13ff13ff-.out
 22 23 0 0 0
SMALL
GASTEIGER

@<TRIPOS>ATOM
      1 C           1.2036   -0.2380   -0.1651 C.ar    1  LIG1        0.0480
      2 C           0.7663    1.0673   -0.0655 C.ar    1  LIG1        0.1767
      3 C          -0.6501    1.0371    0.0190 C.ar    1  LIG1        0.1857
      4 C          -1.0618   -0.2886   -0.0442 C.ar    1  LIG1        0.1124
      5 N           0.0817   -1.0463   -0.1369 N.ar    1  LIG1       -0.3534
      6 H           0.0603   -2.0456   -0.2685 H       1  LIG1        0.1656
      7 H           2.2004   -0.6397   -0.2455 H       1  LIG1        0.0845
      8 O           1.5485    2.1877   -0.0310 O.3     1  LIG1       -0.5023
      9 H           0.9593    2.9406   -0.1817 H       1  LIG1        0.2923
     10 O          -1.4715    2.1585    0.0899 O.3     1  LIG1       -0.5019
     11 H          -1.5724    2.4004    1.0224 H       1  LIG1        0.2924
     12 C          -2.3805   -0.8638   -0.0436 C.ar    1  LIG1        0.1124
     13 C          -2.7922   -2.1895    0.0199 C.ar    1  LIG1        0.1857
     14 C          -4.2086   -2.2198   -0.0634 C.ar    1  LIG1        0.1767
     15 C          -4.6460   -0.9145   -0.1626 C.ar    1  LIG1        0.0480
     16 N          -3.5241   -0.1062   -0.1356 N.ar    1  LIG1       -0.3534
     17 H          -3.5028    0.8933   -0.2656 H       1  LIG1        0.1656
     18 H          -5.6428   -0.5128   -0.2422 H       1  LIG1        0.0845
     19 O          -1.9709   -3.3111    0.0902 O.3     1  LIG1       -0.5019
     20 H          -1.8660   -3.5504    1.0230 H       1  LIG1        0.2924
     21 O          -4.9907   -3.3402   -0.0288 O.3     1  LIG1       -0.5023
     22 H          -4.4007   -4.0933   -0.1758 H       1  LIG1        0.2923
@<TRIPOS>BOND
     1     6     5    1
     2    17    16    1
     3     7     1    1
     4    18    15    1
     5     9     8    1
     6    22    21    1
     7     1     5   ar
     8     1     2   ar
     9    15    16   ar
    10    15    14   ar
    11     5     4   ar
    12    16    12   ar
    13     2     8    1
    14     2     3   ar
    15    14    21    1
    16    14    13   ar
    17     4    12    1
    18     4     3   ar
    19    12    13   ar
    20     3    10    1
    21    13    19    1
    22    10    11    1
    23    19    20    1
