@<TRIPOS>MOLECULE
mol_data/opt/b3lyp/geoms/mol2/13fg13fg-13fg.out
 32 34 0 0 0
SMALL
GASTEIGER

@<TRIPOS>ATOM
      1 C           1.2773   -0.1045    0.2564 C.ar    1  LIG1        0.0453
      2 C           0.8315    0.9939   -0.4434 C.ar    1  LIG1        0.1478
      3 C          -0.5845    0.8765   -0.5980 C.ar    1  LIG1        0.0732
      4 C          -0.9775   -0.3018    0.0332 C.ar    1  LIG1        0.0835
      5 N           0.1677   -0.8947    0.5206 N.ar    1  LIG1       -0.3555
      6 H           0.1523   -1.6268    1.2126 H       1  LIG1        0.1655
      7 H           2.2714   -0.3890    0.5604 H       1  LIG1        0.0845
      8 O           1.6118    1.9934   -0.9311 O.3     1  LIG1       -0.5042
      9 H           1.0129    2.6513   -1.3202 H       1  LIG1        0.2923
     10 S          -1.5446    1.9895   -1.5847 S.3     1  LIG1       -0.1370
     11 H          -2.3509    2.4737   -0.6142 H       1  LIG1        0.1073
     12 C          -2.2852   -0.8838    0.2269 C.ar    1  LIG1        0.1076
     13 C          -3.5032   -0.3163    0.5588 C.ar    1  LIG1        0.1573
     14 C          -4.4775   -1.3554    0.6548 C.ar    1  LIG1        0.0739
     15 C          -3.8383   -2.5555    0.3665 C.ar    1  LIG1        0.0840
     16 N          -2.5027   -2.2657    0.1494 N.ar    1  LIG1       -0.3479
     17 H          -1.9224   -2.8485   -0.4372 H       1  LIG1        0.1661
     18 O          -3.7117    0.9978    0.8339 O.3     1  LIG1       -0.5035
     19 H          -4.6657    1.1061    0.9848 H       1  LIG1        0.2923
     20 S          -6.1238   -1.0759    1.2456 S.3     1  LIG1       -0.1370
     21 H          -6.7941   -1.4688    0.1404 H       1  LIG1        0.1073
     22 C          -4.3569   -3.8988    0.2563 C.ar    1  LIG1        0.1072
     23 C          -5.5257   -4.3892   -0.3069 C.ar    1  LIG1        0.1566
     24 C          -5.5218   -5.8105   -0.1791 C.ar    1  LIG1        0.0643
     25 C          -4.3491   -6.1603    0.4688 C.ar    1  LIG1        0.0191
     26 N          -3.6464   -5.0152    0.7015 N.ar    1  LIG1       -0.3555
     27 H          -2.8317   -4.9488    1.2908 H       1  LIG1        0.1655
     28 H          -3.9861   -7.1299    0.7729 H       1  LIG1        0.0819
     29 O          -6.4750   -3.6418   -0.9290 O.3     1  LIG1       -0.5035
     30 H          -7.1996   -4.2451   -1.1641 H       1  LIG1        0.2923
     31 S          -6.8394   -6.8671   -0.7124 S.3     1  LIG1       -0.1377
     32 H          -6.4249   -7.1069   -1.9789 H       1  LIG1        0.1073
@<TRIPOS>BOND
     1    32    31    1
     2    10    11    1
     3    10     3    1
     4     9     8    1
     5    30    29    1
     6     8     2    1
     7    29    23    1
     8    31    24    1
     9     3     2   ar
    10     3     4   ar
    11     2     1   ar
    12    17    16    1
    13    23    24   ar
    14    23    22   ar
    15    24    25   ar
    16     4    12    1
    17     4     5   ar
    18    21    20    1
    19    16    12   ar
    20    16    15   ar
    21    12    13   ar
    22    22    15    1
    23    22    26   ar
    24     1     5   ar
    25     1     7    1
    26    15    14   ar
    27    25    26   ar
    28    25    28    1
    29     5     6    1
    30    13    14   ar
    31    13    18    1
    32    14    20    1
    33    26    27    1
    34    18    19    1
