@<TRIPOS>MOLECULE
mol_data/opt/b3lyp/geoms/mol2/13fg13fg13fg-13fg-.out
 42 45 0 0 0
SMALL
GASTEIGER

@<TRIPOS>ATOM
      1 C           0.8348    0.5416    1.4559 C.ar    1  LIG1        0.0453
      2 C           0.7805    1.2962    0.3063 C.ar    1  LIG1        0.1478
      3 C          -0.4029    0.9307   -0.4076 C.ar    1  LIG1        0.0732
      4 C          -1.0589   -0.0431    0.3398 C.ar    1  LIG1        0.0835
      5 N          -0.2794   -0.2866    1.4527 N.ar    1  LIG1       -0.3555
      6 H          -0.6380   -0.7346    2.2816 H       1  LIG1        0.1655
      7 H           1.5688    0.5143    2.2447 H       1  LIG1        0.0845
      8 O           1.7116    2.2016   -0.0930 O.3     1  LIG1       -0.5042
      9 H           1.3670    2.6213   -0.8980 H       1  LIG1        0.2923
     10 S          -0.7895    1.5420   -2.0240 S.3     1  LIG1       -0.1370
     11 H          -1.9536    2.1610   -1.7272 H       1  LIG1        0.1073
     12 C          -2.3174   -0.7175    0.1150 C.ar    1  LIG1        0.1076
     13 C          -3.5562   -0.2359   -0.2839 C.ar    1  LIG1        0.1573
     14 C          -4.4741   -1.3219   -0.3259 C.ar    1  LIG1        0.0739
     15 C          -3.7854   -2.4698    0.0707 C.ar    1  LIG1        0.0840
     16 N          -2.4920   -2.0826    0.3338 N.ar    1  LIG1       -0.3479
     17 H          -1.7652   -2.7009    0.6565 H       1  LIG1        0.1661
     18 O          -3.8368    1.0652   -0.5631 O.3     1  LIG1       -0.5035
     19 H          -4.7902    1.1129   -0.7452 H       1  LIG1        0.2923
     20 S          -6.1327   -1.1629   -0.9235 S.3     1  LIG1       -0.1370
     21 H          -6.7884   -1.4804    0.2145 H       1  LIG1        0.1073
     22 C          -4.2277   -3.8357    0.2238 C.ar    1  LIG1        0.1077
     23 C          -5.3779   -4.3704    0.7762 C.ar    1  LIG1        0.1573
     24 C          -5.2946   -5.7945    0.7103 C.ar    1  LIG1        0.0739
     25 C          -4.0870   -6.1142    0.1010 C.ar    1  LIG1        0.0840
     26 N          -3.4259   -4.9243   -0.1514 N.ar    1  LIG1       -0.3479
     27 H          -2.7741   -4.8426   -0.9196 H       1  LIG1        0.1661
     28 O          -6.3729   -3.6596    1.3663 O.3     1  LIG1       -0.5035
     29 H          -7.0613   -4.2966    1.6220 H       1  LIG1        0.2923
     30 S          -6.4764   -6.8612    1.4868 S.3     1  LIG1       -0.1370
     31 H          -6.9275   -7.4906    0.3797 H       1  LIG1        0.1073
     32 C          -3.5287   -7.3905   -0.2764 C.ar    1  LIG1        0.1072
     33 C          -4.1131   -8.5204   -0.8301 C.ar    1  LIG1        0.1566
     34 C          -3.0916   -9.4944   -1.0404 C.ar    1  LIG1        0.0643
     35 C          -1.8962   -8.9295   -0.6288 C.ar    1  LIG1        0.0191
     36 N          -2.1634   -7.6680   -0.1863 N.ar    1  LIG1       -0.3555
     37 H          -1.5127   -7.0820    0.3123 H       1  LIG1        0.1655
     38 H          -0.8989   -9.3414   -0.6235 H       1  LIG1        0.0819
     39 O          -5.4228   -8.6454   -1.1662 O.3     1  LIG1       -0.5035
     40 H          -5.5151   -9.4901   -1.6378 H       1  LIG1        0.2923
     41 S          -3.3488  -11.0592   -1.8298 S.3     1  LIG1       -0.1377
     42 H          -3.6630  -11.7974   -0.7396 H       1  LIG1        0.1073
@<TRIPOS>BOND
     1    10    11    1
     2    10     3    1
     3    41    34    1
     4    41    42    1
     5    40    39    1
     6    39    33    1
     7    34    33   ar
     8    34    35   ar
     9    20    14    1
    10    20    21    1
    11    27    26    1
    12     9     8    1
    13    33    32   ar
    14    19    18    1
    15    35    38    1
    16    35    36   ar
    17    18    13    1
    18     3     2   ar
    19     3     4   ar
    20    14    13   ar
    21    14    15   ar
    22    13    12   ar
    23    32    36   ar
    24    32    25    1
    25    36    37    1
    26    26    25   ar
    27    26    22   ar
    28     8     2    1
    29    15    22    1
    30    15    16   ar
    31    25    24   ar
    32    12    16   ar
    33    12     4    1
    34    22    23   ar
    35     2     1   ar
    36    16    17    1
    37     4     5   ar
    38    31    30    1
    39    24    23   ar
    40    24    30    1
    41    23    28    1
    42    28    29    1
    43     5     1   ar
    44     5     6    1
    45     1     7    1
