@<TRIPOS>MOLECULE
mol_data/opt/b3lyp/geoms/mol2/13fg13fg-13fg13fg-.out
 42 45 0 0 0
SMALL
GASTEIGER

@<TRIPOS>ATOM
      1 C           0.7260    0.3524   -1.8926 C.ar    1  LIG1        0.0453
      2 C           0.8281    1.1363   -0.7658 C.ar    1  LIG1        0.1478
      3 C          -0.2779    0.8314    0.0866 C.ar    1  LIG1        0.0732
      4 C          -1.0464   -0.1361   -0.5544 C.ar    1  LIG1        0.0835
      5 N          -0.4081   -0.4329   -1.7412 N.ar    1  LIG1       -0.3555
      6 H          -0.8680   -0.8965   -2.5091 H       1  LIG1        0.1655
      7 H           1.3638    0.2797   -2.7585 H       1  LIG1        0.0845
      8 O           1.8281    2.0172   -0.5009 O.3     1  LIG1       -0.5042
      9 H           1.5917    2.4699    0.3249 H       1  LIG1        0.2923
     10 S          -0.4611    1.4956    1.7179 S.3     1  LIG1       -0.1370
     11 H          -1.6297    2.1492    1.5342 H       1  LIG1        0.1073
     12 C          -2.2948   -0.7558   -0.1691 C.ar    1  LIG1        0.1076
     13 C          -3.4649   -0.2108    0.3407 C.ar    1  LIG1        0.1573
     14 C          -4.4096   -1.2578    0.5250 C.ar    1  LIG1        0.0739
     15 C          -3.8093   -2.4457    0.1075 C.ar    1  LIG1        0.0840
     16 N          -2.5381   -2.1205   -0.3082 N.ar    1  LIG1       -0.3479
     17 H          -1.8801   -2.7702   -0.7085 H       1  LIG1        0.1661
     18 O          -3.6660    1.1100    0.5959 O.3     1  LIG1       -0.5035
     19 H          -4.5938    1.2044    0.8688 H       1  LIG1        0.2923
     20 S          -5.9966   -1.0158    1.2721 S.3     1  LIG1       -0.1370
     21 H          -6.7654   -1.3612    0.2157 H       1  LIG1        0.1073
     22 C          -4.3299   -3.7934    0.0533 C.ar    1  LIG1        0.1077
     23 C          -5.5326   -4.2854   -0.4334 C.ar    1  LIG1        0.1573
     24 C          -5.5439   -5.6981   -0.2696 C.ar    1  LIG1        0.0739
     25 C          -4.3286   -6.0643    0.3089 C.ar    1  LIG1        0.0840
     26 N          -3.6099   -4.9054    0.4873 N.ar    1  LIG1       -0.3479
     27 H          -2.6857   -4.8614    0.8867 H       1  LIG1        0.1661
     28 O          -6.5154   -3.5317   -0.9935 O.3     1  LIG1       -0.5035
     29 H          -7.2034   -4.1482   -1.2958 H       1  LIG1        0.2923
     30 S          -6.9458   -6.7095   -0.6516 S.3     1  LIG1       -0.1370
     31 H          -6.3995   -7.4354   -1.6520 H       1  LIG1        0.1073
     32 C          -3.8109   -7.3666    0.6692 C.ar    1  LIG1        0.1072
     33 C          -3.7810   -8.5618   -0.0309 C.ar    1  LIG1        0.1566
     34 C          -3.1200   -9.5368    0.7755 C.ar    1  LIG1        0.0643
     35 C          -2.7678   -8.9154    1.9614 C.ar    1  LIG1        0.0191
     36 N          -3.1584   -7.6116    1.8804 N.ar    1  LIG1       -0.3555
     37 H          -3.1873   -6.9747    2.6614 H       1  LIG1        0.1655
     38 H          -2.2794   -9.3154    2.8366 H       1  LIG1        0.0819
     39 O          -4.2502   -8.7467   -1.2924 O.3     1  LIG1       -0.5035
     40 H          -4.1606   -9.6938   -1.4899 H       1  LIG1        0.2923
     41 S          -2.8919  -11.2314    0.3134 S.3     1  LIG1       -0.1377
     42 H          -1.6976  -11.1251   -0.3153 H       1  LIG1        0.1073
@<TRIPOS>BOND
     1     7     1    1
     2     6     5    1
     3     1     5   ar
     4     1     2   ar
     5     5     4   ar
     6    31    30    1
     7    40    39    1
     8    29    28    1
     9    39    33    1
    10    28    23    1
    11     2     8    1
    12     2     3   ar
    13    17    16    1
    14    30    24    1
    15     4    12    1
    16     4     3   ar
    17     8     9    1
    18    23    24   ar
    19    23    22   ar
    20    42    41    1
    21    16    12   ar
    22    16    15   ar
    23    24    25   ar
    24    12    13   ar
    25    33    32   ar
    26    33    34   ar
    27    22    15    1
    28    22    26   ar
    29     3    10    1
    30    15    14   ar
    31    21    20    1
    32    25    26   ar
    33    25    32    1
    34    41    34    1
    35    13    14   ar
    36    13    18    1
    37    26    27    1
    38    14    20    1
    39    18    19    1
    40    32    36   ar
    41    34    35   ar
    42    11    10    1
    43    36    35   ar
    44    36    37    1
    45    35    38    1
