@<TRIPOS>MOLECULE
mol_data/opt/b3lyp/geoms/mol2/13fg13fg-13fg-13fg-.out
 42 45 0 0 0
SMALL
GASTEIGER

@<TRIPOS>ATOM
      1 C           1.2729    0.1328   -0.1601 C.ar    1  LIG1        0.0453
      2 C           0.7670    1.3056    0.3525 C.ar    1  LIG1        0.1478
      3 C          -0.6525    1.1701    0.4536 C.ar    1  LIG1        0.0732
      4 C          -0.9860   -0.0969   -0.0204 C.ar    1  LIG1        0.0835
      5 N           0.1961   -0.7201   -0.3604 N.ar    1  LIG1       -0.3555
      6 H           0.2306   -1.5370   -0.9493 H       1  LIG1        0.1655
      7 H           2.2876   -0.1625   -0.3720 H       1  LIG1        0.0845
      8 O           1.4983    2.3866    0.7301 O.3     1  LIG1       -0.5042
      9 H           0.8651    3.0738    0.9943 H       1  LIG1        0.2923
     10 S          -1.6867    2.3827    1.2242 S.3     1  LIG1       -0.1370
     11 H          -2.4462    2.7092    0.1551 H       1  LIG1        0.1073
     12 C          -2.2669   -0.7414   -0.1912 C.ar    1  LIG1        0.1076
     13 C          -3.4811   -0.2670   -0.6562 C.ar    1  LIG1        0.1573
     14 C          -4.4198   -1.3425   -0.6585 C.ar    1  LIG1        0.0739
     15 C          -3.7633   -2.4707   -0.1760 C.ar    1  LIG1        0.0840
     16 N          -2.4489   -2.1078    0.0608 N.ar    1  LIG1       -0.3479
     17 H          -1.8853   -2.5870    0.7484 H       1  LIG1        0.1661
     18 O          -3.7107    0.9893   -1.1200 O.3     1  LIG1       -0.5035
     19 H          -4.6585    1.0437   -1.3280 H       1  LIG1        0.2923
     20 S          -6.0315   -1.2006   -1.3785 S.3     1  LIG1       -0.1370
     21 H          -6.7623   -1.4883   -0.2793 H       1  LIG1        0.1073
     22 C          -4.2416   -3.8036    0.0914 C.ar    1  LIG1        0.1077
     23 C          -5.4440   -4.2664    0.6012 C.ar    1  LIG1        0.1573
     24 C          -5.3781   -5.6885    0.7003 C.ar    1  LIG1        0.0739
     25 C          -4.1269   -6.0821    0.2389 C.ar    1  LIG1        0.0840
     26 N          -3.4307   -4.9324   -0.0874 N.ar    1  LIG1       -0.3479
     27 H          -2.6937   -4.9374   -0.7781 H       1  LIG1        0.1661
     28 O          -6.4728   -3.4888    1.0260 O.3     1  LIG1       -0.5035
     29 H          -7.1823   -4.0900    1.3100 H       1  LIG1        0.2923
     30 S          -6.6363   -6.6547    1.4871 S.3     1  LIG1       -0.1370
     31 H          -7.0361   -7.3703    0.4131 H       1  LIG1        0.1073
     32 C          -3.5559   -7.3959    0.0630 C.ar    1  LIG1        0.1072
     33 C          -4.1031   -8.5770   -0.4164 C.ar    1  LIG1        0.1566
     34 C          -3.0835   -9.5757   -0.4124 C.ar    1  LIG1        0.0643
     35 C          -1.9251   -8.9764    0.0527 C.ar    1  LIG1        0.0191
     36 N          -2.2111   -7.6702    0.3203 N.ar    1  LIG1       -0.3555
     37 H          -1.6075   -7.0414    0.8262 H       1  LIG1        0.1655
     38 H          -0.9418   -9.3929    0.2073 H       1  LIG1        0.0819
     39 O          -5.3750   -8.7296   -0.8660 O.3     1  LIG1       -0.5035
     40 H          -5.4372   -9.6232   -1.2427 H       1  LIG1        0.2923
     41 S          -3.2895  -11.2180   -1.0436 S.3     1  LIG1       -0.1377
     42 H          -3.7208  -11.8262    0.0861 H       1  LIG1        0.1073
@<TRIPOS>BOND
     1    20    14    1
     2    20    21    1
     3    19    18    1
     4    40    39    1
     5    18    13    1
     6    41    34    1
     7    41    42    1
     8     6     5    1
     9    39    33    1
    10    27    26    1
    11    14    13   ar
    12    14    15   ar
    13    13    12   ar
    14    33    34   ar
    15    33    32   ar
    16    34    35   ar
    17     7     1    1
    18     5     1   ar
    19     5     4   ar
    20    12     4    1
    21    12    16   ar
    22    15    16   ar
    23    15    22    1
    24     1     2   ar
    25    26    22   ar
    26    26    25   ar
    27     4     3   ar
    28    35    38    1
    29    35    36   ar
    30    16    17    1
    31    32    25    1
    32    32    36   ar
    33    22    23   ar
    34    11    10    1
    35    25    24   ar
    36    36    37    1
    37     2     3   ar
    38     2     8    1
    39    31    30    1
    40     3    10    1
    41    23    24   ar
    42    23    28    1
    43    24    30    1
    44     8     9    1
    45    28    29    1
