@<TRIPOS>MOLECULE
mol_data/opt/b3lyp/geoms/mol2/13fg13fg-13fg13fg.out
 42 45 0 0 0
SMALL
GASTEIGER

@<TRIPOS>ATOM
      1 C           1.2906    0.0802    0.1384 C.ar    1  LIG1        0.0453
      2 C           0.7784    1.2794   -0.3019 C.ar    1  LIG1        0.1478
      3 C          -0.6447    1.1588   -0.3630 C.ar    1  LIG1        0.0732
      4 C          -0.9736   -0.1268    0.0618 C.ar    1  LIG1        0.0835
      5 N           0.2135   -0.7735    0.3336 N.ar    1  LIG1       -0.3555
      6 H           0.2600   -1.6181    0.8812 H       1  LIG1        0.1655
      7 H           2.3090   -0.2319    0.3030 H       1  LIG1        0.0845
      8 O           1.5064    2.3718   -0.6520 O.3     1  LIG1       -0.5042
      9 H           0.8710    3.0753   -0.8628 H       1  LIG1        0.2923
     10 S          -1.6927    2.4137   -1.0417 S.3     1  LIG1       -0.1370
     11 H          -2.4150    2.6942    0.0656 H       1  LIG1        0.1073
     12 C          -2.2537   -0.7696    0.2443 C.ar    1  LIG1        0.1076
     13 C          -3.4483   -0.3090    0.7697 C.ar    1  LIG1        0.1573
     14 C          -4.3954   -1.3770    0.7529 C.ar    1  LIG1        0.0739
     15 C          -3.7643   -2.4860    0.1979 C.ar    1  LIG1        0.0840
     16 N          -2.4549   -2.1218   -0.0642 N.ar    1  LIG1       -0.3479
     17 H          -1.9189   -2.5715   -0.7928 H       1  LIG1        0.1661
     18 O          -3.6523    0.9258    1.2986 O.3     1  LIG1       -0.5035
     19 H          -4.5929    0.9779    1.5375 H       1  LIG1        0.2923
     20 S          -5.9822   -1.2574    1.5302 S.3     1  LIG1       -0.1370
     21 H          -6.7497   -1.4929    0.4437 H       1  LIG1        0.1073
     22 C          -4.2621   -3.8018   -0.1146 C.ar    1  LIG1        0.1077
     23 C          -5.4842   -4.2323   -0.6063 C.ar    1  LIG1        0.1573
     24 C          -5.4338   -5.6487   -0.7719 C.ar    1  LIG1        0.0739
     25 C          -4.1722   -6.0722   -0.3687 C.ar    1  LIG1        0.0840
     26 N          -3.4562   -4.9434   -0.0130 N.ar    1  LIG1       -0.3479
     27 H          -2.6963   -4.9849    0.6510 H       1  LIG1        0.1661
     28 O          -6.5190   -3.4286   -0.9620 O.3     1  LIG1       -0.5035
     29 H          -7.2433   -4.0109   -1.2479 H       1  LIG1        0.2923
     30 S          -6.7252   -6.5685   -1.5607 S.3     1  LIG1       -0.1370
     31 H          -7.0871   -7.3372   -0.5103 H       1  LIG1        0.1073
     32 C          -3.6064   -7.3966   -0.2701 C.ar    1  LIG1        0.1072
     33 C          -4.1446   -8.5948    0.1758 C.ar    1  LIG1        0.1566
     34 C          -3.1293   -9.5952    0.1028 C.ar    1  LIG1        0.0643
     35 C          -1.9899   -8.9867   -0.3957 C.ar    1  LIG1        0.0191
     36 N          -2.2738   -7.6672   -0.5891 N.ar    1  LIG1       -0.3555
     37 H          -1.6884   -7.0218   -1.0956 H       1  LIG1        0.1655
     38 H          -1.0218   -9.4058   -0.6229 H       1  LIG1        0.0819
     39 O          -5.4025   -8.7619    0.6591 O.3     1  LIG1       -0.5035
     40 H          -5.5137   -9.7112    0.8349 H       1  LIG1        0.2923
     41 S          -3.3702  -11.2984    0.5255 S.3     1  LIG1       -0.1377
     42 H          -3.0416  -11.2427    1.8376 H       1  LIG1        0.1073
@<TRIPOS>BOND
     1    30    24    1
     2    30    31    1
     3    29    28    1
     4    37    36    1
     5    10     3    1
     6    10    11    1
     7    28    23    1
     8     9     8    1
     9    17    16    1
    10    24    23   ar
    11    24    25   ar
    12     8     2    1
    13    38    35    1
    14    23    22   ar
    15    36    35   ar
    16    36    32   ar
    17    35    34   ar
    18    25    32    1
    19    25    26   ar
    20     3     2   ar
    21     3     4   ar
    22     2     1   ar
    23    32    33   ar
    24    22    26   ar
    25    22    15    1
    26    16    15   ar
    27    16    12   ar
    28    26    27    1
    29     4    12    1
    30     4     5   ar
    31    34    33   ar
    32    34    41    1
    33     1     7    1
    34     1     5   ar
    35    33    39    1
    36    15    14   ar
    37    12    13   ar
    38     5     6    1
    39    21    20    1
    40    41    42    1
    41    39    40    1
    42    14    13   ar
    43    14    20    1
    44    13    18    1
    45    18    19    1
