@<TRIPOS>MOLECULE
mol_data/opt/b3lyp/geoms/mol2/13fg13fg-.out
 22 23 0 0 0
SMALL
GASTEIGER

@<TRIPOS>ATOM
      1 C           1.1587   -0.2887   -0.5600 C.ar    1  LIG1        0.0453
      2 C           0.8022    0.9457   -0.0659 C.ar    1  LIG1        0.1478
      3 C          -0.5742    0.8889    0.3152 C.ar    1  LIG1        0.0732
      4 C          -1.0347   -0.3937    0.0300 C.ar    1  LIG1        0.0835
      5 N           0.0355   -1.0988   -0.4773 N.ar    1  LIG1       -0.3555
      6 H          -0.0664   -1.9666   -0.9794 H       1  LIG1        0.1655
      7 H           2.1021   -0.6509   -0.9345 H       1  LIG1        0.0845
      8 O           1.6280    2.0161    0.0657 O.3     1  LIG1       -0.5042
      9 H           1.0836    2.7512    0.3916 H       1  LIG1        0.2923
     10 S          -1.4080    2.2128    1.1443 S.3     1  LIG1       -0.1370
     11 H          -2.3200    2.5041    0.1903 H       1  LIG1        0.1073
     12 C          -2.3503   -0.9805    0.1678 C.ar    1  LIG1        0.1072
     13 C          -3.6089   -0.4972   -0.1518 C.ar    1  LIG1        0.1566
     14 C          -4.5692   -1.5055    0.1642 C.ar    1  LIG1        0.0643
     15 C          -3.8740   -2.5859    0.6806 C.ar    1  LIG1        0.0191
     16 N          -2.5468   -2.2740    0.6559 N.ar    1  LIG1       -0.3555
     17 H          -1.8221   -2.8028    1.1153 H       1  LIG1        0.1655
     18 H          -4.2367   -3.5301    1.0565 H       1  LIG1        0.0819
     19 O          -3.8685    0.7092   -0.7222 O.3     1  LIG1       -0.5035
     20 H          -4.8348    0.8033   -0.7533 H       1  LIG1        0.2923
     21 S          -6.3201   -1.3185   -0.0247 S.3     1  LIG1       -0.1377
     22 H          -6.4503   -1.7564   -1.2994 H       1  LIG1        0.1073
@<TRIPOS>BOND
     1    22    21    1
     2     6     5    1
     3     7     1    1
     4    20    19    1
     5    19    13    1
     6     1     5   ar
     7     1     2   ar
     8     5     4   ar
     9    13    14   ar
    10    13    12   ar
    11     2     8    1
    12     2     3   ar
    13    21    14    1
    14     4    12    1
    15     4     3   ar
    16     8     9    1
    17    14    15   ar
    18    12    16   ar
    19    11    10    1
    20     3    10    1
    21    16    15   ar
    22    16    17    1
    23    15    18    1
