@<TRIPOS>MOLECULE
mol_data/opt/b3lyp/geoms/mol2/13fg13fg-13fg-.out
 32 34 0 0 0
SMALL
GASTEIGER

@<TRIPOS>ATOM
      1 C           1.2742   -0.0996   -0.2693 C.ar    1  LIG1        0.0453
      2 C           0.8303    0.9974    0.4339 C.ar    1  LIG1        0.1478
      3 C          -0.5848    0.8783    0.5946 C.ar    1  LIG1        0.0732
      4 C          -0.9793   -0.2996   -0.0364 C.ar    1  LIG1        0.0835
      5 N           0.1643   -0.8907   -0.5296 N.ar    1  LIG1       -0.3555
      6 H           0.1466   -1.6217   -1.2227 H       1  LIG1        0.1655
      7 H           2.2673   -0.3824   -0.5782 H       1  LIG1        0.0845
      8 O           1.6117    1.9972    0.9194 O.3     1  LIG1       -0.5042
      9 H           1.0139    2.6535    1.3130 H       1  LIG1        0.2923
     10 S          -1.5420    1.9885    1.5873 S.3     1  LIG1       -0.1370
     11 H          -2.3519    2.4749    0.6207 H       1  LIG1        0.1073
     12 C          -2.2872   -0.8829   -0.2248 C.ar    1  LIG1        0.1076
     13 C          -3.5072   -0.3162   -0.5508 C.ar    1  LIG1        0.1573
     14 C          -4.4809   -1.3562   -0.6436 C.ar    1  LIG1        0.0739
     15 C          -3.8392   -2.5560   -0.3594 C.ar    1  LIG1        0.0840
     16 N          -2.5030   -2.2651   -0.1478 N.ar    1  LIG1       -0.3479
     17 H          -1.9192   -2.8481    0.4351 H       1  LIG1        0.1661
     18 O          -3.7181    0.9980   -0.8237 O.3     1  LIG1       -0.5035
     19 H          -4.6729    1.1057   -0.9700 H       1  LIG1        0.2923
     20 S          -6.1302   -1.0780   -1.2268 S.3     1  LIG1       -0.1370
     21 H          -6.7952   -1.4738   -0.1194 H       1  LIG1        0.1073
     22 C          -4.3560   -3.9000   -0.2485 C.ar    1  LIG1        0.1072
     23 C          -5.5218   -4.3922    0.3190 C.ar    1  LIG1        0.1566
     24 C          -5.5173   -5.8134    0.1890 C.ar    1  LIG1        0.0643
     25 C          -4.3470   -6.1611   -0.4644 C.ar    1  LIG1        0.0191
     26 N          -3.6463   -5.0151   -0.6984 N.ar    1  LIG1       -0.3555
     27 H          -2.8344   -4.9470   -1.2914 H       1  LIG1        0.1655
     28 H          -3.9843   -7.1299   -0.7713 H       1  LIG1        0.0819
     29 O          -6.4692   -3.6467    0.9463 O.3     1  LIG1       -0.5035
     30 H          -7.1922   -4.2509    1.1836 H       1  LIG1        0.2923
     31 S          -6.8314   -6.8719    0.7268 S.3     1  LIG1       -0.1377
     32 H          -6.4108   -7.1132    1.9909 H       1  LIG1        0.1073
@<TRIPOS>BOND
     1    27    26    1
     2    20    14    1
     3    20    21    1
     4     6     5    1
     5    19    18    1
     6    18    13    1
     7    28    25    1
     8    26    25   ar
     9    26    22   ar
    10    14    13   ar
    11    14    15   ar
    12     7     1    1
    13    13    12   ar
    14     5     1   ar
    15     5     4   ar
    16    25    24   ar
    17    15    22    1
    18    15    16   ar
    19     1     2   ar
    20    22    23   ar
    21    12    16   ar
    22    12     4    1
    23    16    17    1
    24     4     3   ar
    25    24    23   ar
    26    24    31    1
    27    23    29    1
    28     2     3   ar
    29     2     8    1
    30     3    10    1
    31    11    10    1
    32    31    32    1
    33     8     9    1
    34    29    30    1
