@<TRIPOS>MOLECULE
mol_data/opt/b3lyp/geoms/mol2/13fg13fg.out
 22 23 0 0 0
SMALL
GASTEIGER

@<TRIPOS>ATOM
      1 C           1.1612   -0.2905    0.5497 C.ar    1  LIG1        0.0453
      2 C           0.8016    0.9465    0.0645 C.ar    1  LIG1        0.1478
      3 C          -0.5763    0.8909   -0.3110 C.ar    1  LIG1        0.0732
      4 C          -1.0345   -0.3938   -0.0314 C.ar    1  LIG1        0.0835
      5 N           0.0383   -1.1008    0.4674 N.ar    1  LIG1       -0.3555
      6 H          -0.0605   -1.9726    0.9633 H       1  LIG1        0.1655
      7 H           2.1066   -0.6539    0.9183 H       1  LIG1        0.0845
      8 O           1.6262    2.0183   -0.0637 O.3     1  LIG1       -0.5042
      9 H           1.0802    2.7549   -0.3838 H       1  LIG1        0.2923
     10 S          -1.4147    2.2190   -1.1284 S.3     1  LIG1       -0.1370
     11 H          -2.3228    2.5035   -0.1688 H       1  LIG1        0.1073
     12 C          -2.3506   -0.9802   -0.1664 C.ar    1  LIG1        0.1072
     13 C          -3.6076   -0.4991    0.1626 C.ar    1  LIG1        0.1566
     14 C          -4.5695   -1.5051   -0.1560 C.ar    1  LIG1        0.0643
     15 C          -3.8768   -2.5818   -0.6835 C.ar    1  LIG1        0.0191
     16 N          -2.5495   -2.2701   -0.6629 N.ar    1  LIG1       -0.3555
     17 H          -1.8271   -2.7956   -1.1298 H       1  LIG1        0.1655
     18 H          -4.2413   -3.5232   -1.0647 H       1  LIG1        0.0819
     19 O          -3.8644    0.7032    0.7427 O.3     1  LIG1       -0.5035
     20 H          -4.8306    0.7968    0.7795 H       1  LIG1        0.2923
     21 S          -6.3193   -1.3188    0.0433 S.3     1  LIG1       -0.1377
     22 H          -6.4431   -1.7663    1.3152 H       1  LIG1        0.1073
@<TRIPOS>BOND
     1    17    16    1
     2    10     3    1
     3    10    11    1
     4    18    15    1
     5    15    16   ar
     6    15    14   ar
     7    16    12   ar
     8     9     8    1
     9     3     4   ar
    10     3     2   ar
    11    12     4    1
    12    12    13   ar
    13    14    21    1
    14    14    13   ar
    15     8     2    1
    16     4     5   ar
    17    21    22    1
    18     2     1   ar
    19    13    19    1
    20     5     1   ar
    21     5     6    1
    22     1     7    1
    23    19    20    1
