@<TRIPOS>MOLECULE
mol_data/opt/b3lyp/geoms/mol2/13fg13fg-13fg-13fg.out
 42 45 0 0 0
SMALL
GASTEIGER

@<TRIPOS>ATOM
      1 C           0.7367    0.3347    1.9037 C.ar    1  LIG1        0.0453
      2 C           0.8344    1.1278    0.7830 C.ar    1  LIG1        0.1478
      3 C          -0.2752    0.8304   -0.0673 C.ar    1  LIG1        0.0732
      4 C          -1.0416   -0.1418    0.5690 C.ar    1  LIG1        0.0835
      5 N          -0.3985   -0.4488    1.7507 N.ar    1  LIG1       -0.3555
      6 H          -0.8556   -0.9179    2.5169 H       1  LIG1        0.1655
      7 H           1.3780    0.2546    2.7663 H       1  LIG1        0.0845
      8 O           1.8338    2.0104    0.5212 O.3     1  LIG1       -0.5042
      9 H           1.5942    2.4699   -0.2999 H       1  LIG1        0.2923
     10 S          -0.4648    1.5082   -1.6922 S.3     1  LIG1       -0.1370
     11 H          -1.6326    2.1602   -1.4985 H       1  LIG1        0.1073
     12 C          -2.2920   -0.7577    0.1838 C.ar    1  LIG1        0.1076
     13 C          -3.4637   -0.2079   -0.3168 C.ar    1  LIG1        0.1573
     14 C          -4.4098   -1.2528   -0.5058 C.ar    1  LIG1        0.0739
     15 C          -3.8086   -2.4444   -0.1003 C.ar    1  LIG1        0.0840
     16 N          -2.5355   -2.1234    0.3127 N.ar    1  LIG1       -0.3479
     17 H          -1.8768   -2.7766    0.7060 H       1  LIG1        0.1661
     18 O          -3.6651    1.1149   -0.5606 O.3     1  LIG1       -0.5035
     19 H          -4.5939    1.2121   -0.8291 H       1  LIG1        0.2923
     20 S          -5.9997   -1.0037   -1.2445 S.3     1  LIG1       -0.1370
     21 H          -6.7645   -1.3572   -0.1879 H       1  LIG1        0.1073
     22 C          -4.3299   -3.7922   -0.0548 C.ar    1  LIG1        0.1077
     23 C          -5.5310   -4.2871    0.4332 C.ar    1  LIG1        0.1573
     24 C          -5.5441   -5.6985    0.2582 C.ar    1  LIG1        0.0739
     25 C          -4.3316   -6.0610   -0.3285 C.ar    1  LIG1        0.0840
     26 N          -3.6128   -4.9012   -0.5009 N.ar    1  LIG1       -0.3479
     27 H          -2.6901   -4.8549   -0.9033 H       1  LIG1        0.1661
     28 O          -6.5108   -3.5372    1.0035 O.3     1  LIG1       -0.5035
     29 H          -7.1982   -4.1555    1.3032 H       1  LIG1        0.2923
     30 S          -6.9453   -6.7118    0.6375 S.3     1  LIG1       -0.1370
     31 H          -6.3961   -7.4455    1.6306 H       1  LIG1        0.1073
     32 C          -3.8165   -7.3607   -0.7014 C.ar    1  LIG1        0.1072
     33 C          -3.7846   -8.5614   -0.0110 C.ar    1  LIG1        0.1566
     34 C          -3.1279   -9.5306   -0.8279 C.ar    1  LIG1        0.0643
     35 C          -2.7800   -8.9000   -2.0102 C.ar    1  LIG1        0.0191
     36 N          -3.1692   -7.5966   -1.9172 N.ar    1  LIG1       -0.3555
     37 H          -3.2007   -6.9535   -2.6931 H       1  LIG1        0.1655
     38 H          -2.2956   -9.2934   -2.8906 H       1  LIG1        0.0819
     39 O          -4.2488   -8.7560    1.2510 O.3     1  LIG1       -0.5035
     40 H          -4.1591   -9.7048    1.4405 H       1  LIG1        0.2923
     41 S          -2.8990  -11.2290   -0.3803 S.3     1  LIG1       -0.1377
     42 H          -1.7022  -11.1283    0.2446 H       1  LIG1        0.1073
@<TRIPOS>BOND
     1    38    35    1
     2    37    36    1
     3    35    36   ar
     4    35    34   ar
     5    36    32   ar
     6    10    11    1
     7    10     3    1
     8    20    14    1
     9    20    21    1
    10    27    26    1
    11    19    18    1
    12    34    41    1
    13    34    33   ar
    14    32    25    1
    15    32    33   ar
    16    18    13    1
    17    14    13   ar
    18    14    15   ar
    19    26    25   ar
    20    26    22   ar
    21    41    42    1
    22    25    24   ar
    23    13    12   ar
    24     9     8    1
    25    15    22    1
    26    15    16   ar
    27     3     4   ar
    28     3     2   ar
    29    22    23   ar
    30    33    39    1
    31    12    16   ar
    32    12     4    1
    33    24    23   ar
    34    24    30    1
    35    16    17    1
    36    23    28    1
    37     8     2    1
    38     4     5   ar
    39    30    31    1
    40     2     1   ar
    41    28    29    1
    42    39    40    1
    43     5     1   ar
    44     5     6    1
    45     1     7    1
