@<TRIPOS>MOLECULE
mol_data/opt/b3lyp/geoms/mol2/13fg13fg13fg.out
 32 34 0 0 0
SMALL
GASTEIGER

@<TRIPOS>ATOM
      1 C           1.2808   -0.0559    0.2521 C.ar    1  LIG1        0.0453
      2 C           0.8091    1.0780   -0.3696 C.ar    1  LIG1        0.1478
      3 C          -0.6068    0.9481   -0.5146 C.ar    1  LIG1        0.0732
      4 C          -0.9734   -0.2748    0.0435 C.ar    1  LIG1        0.0835
      5 N           0.1869   -0.8793    0.4778 N.ar    1  LIG1       -0.3555
      6 H           0.1918   -1.6555    1.1202 H       1  LIG1        0.1655
      7 H           2.2830   -0.3433    0.5254 H       1  LIG1        0.0845
      8 O           1.5675    2.1195   -0.8007 O.3     1  LIG1       -0.5042
      9 H           0.9536    2.7903   -1.1414 H       1  LIG1        0.2923
     10 S          -1.5962    2.1068   -1.4159 S.3     1  LIG1       -0.1370
     11 H          -2.3935    2.5194   -0.4057 H       1  LIG1        0.1073
     12 C          -2.2690   -0.8903    0.2143 C.ar    1  LIG1        0.1076
     13 C          -3.4925   -0.3662    0.5938 C.ar    1  LIG1        0.1573
     14 C          -4.4481   -1.4264    0.6333 C.ar    1  LIG1        0.0739
     15 C          -3.7918   -2.5946    0.2638 C.ar    1  LIG1        0.0840
     16 N          -2.4639   -2.2684    0.0519 N.ar    1  LIG1       -0.3479
     17 H          -1.8816   -2.8020   -0.5781 H       1  LIG1        0.1661
     18 O          -3.7203    0.9236    0.9544 O.3     1  LIG1       -0.5035
     19 H          -4.6737    1.0041    1.1252 H       1  LIG1        0.2923
     20 S          -6.0920   -1.2149    1.2580 S.3     1  LIG1       -0.1370
     21 H          -6.7703   -1.5319    0.1334 H       1  LIG1        0.1073
     22 C          -4.2894   -3.9367    0.0748 C.ar    1  LIG1        0.1072
     23 C          -5.4579   -4.4088   -0.5044 C.ar    1  LIG1        0.1566
     24 C          -5.4353   -5.8351   -0.4584 C.ar    1  LIG1        0.0643
     25 C          -4.2392   -6.2069    0.1320 C.ar    1  LIG1        0.0191
     26 N          -3.5545   -5.0674    0.4355 N.ar    1  LIG1       -0.3555
     27 H          -2.7274   -5.0270    1.0097 H       1  LIG1        0.1655
     28 H          -3.8473   -7.1885    0.3491 H       1  LIG1        0.0819
     29 O          -6.4246   -3.6381   -1.0677 O.3     1  LIG1       -0.5035
     30 H          -7.0548   -4.2413   -1.4954 H       1  LIG1        0.2923
     31 S          -6.6705   -6.8797   -1.1800 S.3     1  LIG1       -0.1377
     32 H          -7.5140   -6.9718   -0.1251 H       1  LIG1        0.1073
@<TRIPOS>BOND
     1    30    29    1
     2    10     3    1
     3    10    11    1
     4    31    24    1
     5    31    32    1
     6     9     8    1
     7    29    23    1
     8     8     2    1
     9    17    16    1
    10     3     2   ar
    11     3     4   ar
    12    23    24   ar
    13    23    22   ar
    14    24    25   ar
    15     2     1   ar
    16     4    12    1
    17     4     5   ar
    18    16    12   ar
    19    16    15   ar
    20    22    15    1
    21    22    26   ar
    22    25    28    1
    23    25    26   ar
    24    21    20    1
    25    12    13   ar
    26     1     5   ar
    27     1     7    1
    28    15    14   ar
    29    26    27    1
    30     5     6    1
    31    13    14   ar
    32    13    18    1
    33    14    20    1
    34    18    19    1
