@<TRIPOS>MOLECULE
mol_data/opt/b3lyp/geoms/mol2/13fg.out
 12 12 0 0 0
SMALL
GASTEIGER

@<TRIPOS>ATOM
      1 C           1.1574   -0.3931   -0.0001 C.ar    1  LIG1        0.0448
      2 C           0.7219    0.9149    0.0001 C.ar    1  LIG1        0.1472
      3 C          -0.7061    0.8989    0.0003 C.ar    1  LIG1        0.0636
      4 C          -1.0985   -0.4270    0.0003 C.ar    1  LIG1        0.0186
      5 N           0.0366   -1.1960    0.0000 N.ar    1  LIG1       -0.3630
      6 H           0.0505   -2.2017   -0.0004 H       1  LIG1        0.1649
      7 H          -2.0836   -0.8665    0.0004 H       1  LIG1        0.0819
      8 H           2.1584   -0.7936   -0.0003 H       1  LIG1        0.0844
      9 O           1.5550    1.9997    0.0001 O.3     1  LIG1       -0.5042
     10 H           1.0274    2.8079   -0.0000 H       1  LIG1        0.2923
     11 S          -1.7018    2.3769    0.0008 S.3     1  LIG1       -0.1377
     12 H          -2.8996    1.7646    0.0005 H       1  LIG1        0.1073
@<TRIPOS>BOND
     1     6     5    1
     2     8     1    1
     3     1     5   ar
     4     1     2   ar
     5    10     9    1
     6     5     4   ar
     7     2     9    1
     8     2     3   ar
     9     4     3   ar
    10     4     7    1
    11     3    11    1
    12    12    11    1
