@<TRIPOS>MOLECULE
mol_data/opt/b3lyp/geoms/mol2/13fg13fg13fg13fg-.out
 42 45 0 0 0
SMALL
GASTEIGER

@<TRIPOS>ATOM
      1 C           1.2865    0.0846    0.1246 C.ar    1  LIG1        0.0453
      2 C           0.7729    1.2856   -0.3089 C.ar    1  LIG1        0.1478
      3 C          -0.6501    1.1639   -0.3700 C.ar    1  LIG1        0.0732
      4 C          -0.9775   -0.1243    0.0479 C.ar    1  LIG1        0.0835
      5 N           0.2105   -0.7714    0.3155 N.ar    1  LIG1       -0.3555
      6 H           0.2582   -1.6183    0.8593 H       1  LIG1        0.1655
      7 H           2.3054   -0.2272    0.2868 H       1  LIG1        0.0845
      8 O           1.4996    2.3807   -0.6536 O.3     1  LIG1       -0.5042
      9 H           0.8634    3.0852   -0.8582 H       1  LIG1        0.2923
     10 S          -1.6996    2.4216   -1.0413 S.3     1  LIG1       -0.1370
     11 H          -2.4245    2.6921    0.0667 H       1  LIG1        0.1073
     12 C          -2.2566   -0.7697    0.2273 C.ar    1  LIG1        0.1076
     13 C          -3.4520   -0.3132    0.7549 C.ar    1  LIG1        0.1573
     14 C          -4.3976   -1.3824    0.7327 C.ar    1  LIG1        0.0739
     15 C          -3.7650   -2.4879    0.1723 C.ar    1  LIG1        0.0840
     16 N          -2.4562   -2.1206   -0.0880 N.ar    1  LIG1       -0.3479
     17 H          -1.9189   -2.5664   -0.8179 H       1  LIG1        0.1661
     18 O          -3.6578    0.9187    1.2898 O.3     1  LIG1       -0.5035
     19 H          -4.5985    0.9681    1.5291 H       1  LIG1        0.2923
     20 S          -5.9846   -1.2690    1.5103 S.3     1  LIG1       -0.1370
     21 H          -6.7517   -1.4983    0.4221 H       1  LIG1        0.1073
     22 C          -4.2613   -3.8027   -0.1466 C.ar    1  LIG1        0.1077
     23 C          -5.4825   -4.2319   -0.6413 C.ar    1  LIG1        0.1573
     24 C          -5.4308   -5.6476   -0.8135 C.ar    1  LIG1        0.0739
     25 C          -4.1692   -6.0718   -0.4110 C.ar    1  LIG1        0.0840
     26 N          -3.4545   -4.9442   -0.0494 N.ar    1  LIG1       -0.3479
     27 H          -2.6948   -4.9881    0.6147 H       1  LIG1        0.1661
     28 O          -6.5178   -3.4275   -0.9938 O.3     1  LIG1       -0.5035
     29 H          -7.2408   -4.0090   -1.2845 H       1  LIG1        0.2923
     30 S          -6.7209   -6.5648   -1.6071 S.3     1  LIG1       -0.1370
     31 H          -7.0853   -7.3360   -0.5593 H       1  LIG1        0.1073
     32 C          -3.6023   -7.3963   -0.3179 C.ar    1  LIG1        0.1072
     33 C          -4.1397   -8.5967    0.1228 C.ar    1  LIG1        0.1566
     34 C          -3.1236   -9.5959    0.0461 C.ar    1  LIG1        0.0643
     35 C          -1.9845   -8.9844   -0.4493 C.ar    1  LIG1        0.0191
     36 N          -2.2694   -7.6643   -0.6372 N.ar    1  LIG1       -0.3555
     37 H          -1.6843   -7.0163   -1.1408 H       1  LIG1        0.1655
     38 H          -1.0159   -9.4017   -0.6778 H       1  LIG1        0.0819
     39 O          -5.3977   -8.7670    0.6048 O.3     1  LIG1       -0.5035
     40 H          -5.5083   -9.7171    0.7761 H       1  LIG1        0.2923
     41 S          -3.3631  -11.3010    0.4619 S.3     1  LIG1       -0.1377
     42 H          -3.0355  -11.2502    1.7745 H       1  LIG1        0.1073
@<TRIPOS>BOND
     1    30    24    1
     2    30    31    1
     3    29    28    1
     4    37    36    1
     5    10     3    1
     6    10    11    1
     7    28    23    1
     8     9     8    1
     9    17    16    1
    10    24    23   ar
    11    24    25   ar
    12    38    35    1
    13     8     2    1
    14    23    22   ar
    15    36    35   ar
    16    36    32   ar
    17    35    34   ar
    18    25    32    1
    19    25    26   ar
    20     3     2   ar
    21     3     4   ar
    22    32    33   ar
    23     2     1   ar
    24    22    26   ar
    25    22    15    1
    26    16    15   ar
    27    16    12   ar
    28    26    27    1
    29    34    33   ar
    30    34    41    1
    31     4    12    1
    32     4     5   ar
    33    33    39    1
    34     1     7    1
    35     1     5   ar
    36    15    14   ar
    37    12    13   ar
    38     5     6    1
    39    21    20    1
    40    41    42    1
    41    39    40    1
    42    14    13   ar
    43    14    20    1
    44    13    18    1
    45    18    19    1
