@<TRIPOS>MOLECULE
mol_data/opt/b3lyp/geoms/mol2/13fg13fg13fg-13fg.out
 42 45 0 0 0
SMALL
GASTEIGER

@<TRIPOS>ATOM
      1 C           0.7392    0.3172    1.9058 C.ar    1  LIG1        0.0453
      2 C           0.8348    1.1217    0.7931 C.ar    1  LIG1        0.1478
      3 C          -0.2759    0.8323   -0.0585 C.ar    1  LIG1        0.0732
      4 C          -1.0409   -0.1467    0.5690 C.ar    1  LIG1        0.0835
      5 N          -0.3958   -0.4654    1.7465 N.ar    1  LIG1       -0.3555
      6 H          -0.8519   -0.9419    2.5088 H       1  LIG1        0.1655
      7 H           1.3818    0.2287    2.7666 H       1  LIG1        0.0845
      8 O           1.8334    2.0073    0.5387 O.3     1  LIG1       -0.5042
      9 H           1.5924    2.4750   -0.2773 H       1  LIG1        0.2923
     10 S          -0.4678    1.5263   -1.6764 S.3     1  LIG1       -0.1370
     11 H          -1.6360    2.1752   -1.4749 H       1  LIG1        0.1073
     12 C          -2.2915   -0.7593    0.1797 C.ar    1  LIG1        0.1076
     13 C          -3.4644   -0.2052   -0.3137 C.ar    1  LIG1        0.1573
     14 C          -4.4105   -1.2487   -0.5106 C.ar    1  LIG1        0.0739
     15 C          -3.8081   -2.4438   -0.1174 C.ar    1  LIG1        0.0840
     16 N          -2.5344   -2.1262    0.2965 N.ar    1  LIG1       -0.3479
     17 H          -1.8744   -2.7828    0.6817 H       1  LIG1        0.1661
     18 O          -3.6666    1.1198   -0.5448 O.3     1  LIG1       -0.5035
     19 H          -4.5960    1.2192   -0.8104 H       1  LIG1        0.2923
     20 S          -6.0017   -0.9934   -1.2441 S.3     1  LIG1       -0.1370
     21 H          -6.7644   -1.3582   -0.1898 H       1  LIG1        0.1073
     22 C          -4.3293   -3.7919   -0.0834 C.ar    1  LIG1        0.1077
     23 C          -5.5292   -4.2912    0.4030 C.ar    1  LIG1        0.1573
     24 C          -5.5429   -5.7010    0.2149 C.ar    1  LIG1        0.0739
     25 C          -4.3319   -6.0581   -0.3782 C.ar    1  LIG1        0.0840
     26 N          -3.6135   -4.8969   -0.5415 N.ar    1  LIG1       -0.3479
     27 H          -2.6914   -4.8470   -0.9451 H       1  LIG1        0.1661
     28 O          -6.5076   -3.5466    0.9824 O.3     1  LIG1       -0.5035
     29 H          -7.1950   -4.1675    1.2766 H       1  LIG1        0.2923
     30 S          -6.9437   -6.7172    0.5879 S.3     1  LIG1       -0.1370
     31 H          -6.3943   -7.4574    1.5761 H       1  LIG1        0.1073
     32 C          -3.8177   -7.3542   -0.7647 C.ar    1  LIG1        0.1072
     33 C          -3.7843   -8.5617   -0.0862 C.ar    1  LIG1        0.1566
     34 C          -3.1292   -9.5226   -0.9141 C.ar    1  LIG1        0.0643
     35 C          -2.7841   -8.8804   -2.0910 C.ar    1  LIG1        0.0191
     36 N          -3.1732   -7.5781   -1.9842 N.ar    1  LIG1       -0.3555
     37 H          -3.2061   -6.9271   -2.7535 H       1  LIG1        0.1655
     38 H          -2.3017   -9.2651   -2.9763 H       1  LIG1        0.0819
     39 O          -4.2455   -8.7688    1.1748 O.3     1  LIG1       -0.5035
     40 H          -4.1559   -9.7195    1.3545 H       1  LIG1        0.2923
     41 S          -2.8996  -11.2254   -0.4839 S.3     1  LIG1       -0.1377
     42 H          -1.7013  -11.1311    0.1392 H       1  LIG1        0.1073
@<TRIPOS>BOND
     1    38    35    1
     2    37    36    1
     3    35    36   ar
     4    35    34   ar
     5    36    32   ar
     6    10    11    1
     7    10     3    1
     8    20    14    1
     9    20    21    1
    10    27    26    1
    11    34    41    1
    12    34    33   ar
    13    19    18    1
    14    32    25    1
    15    32    33   ar
    16    18    13    1
    17    26    25   ar
    18    26    22   ar
    19    14    13   ar
    20    14    15   ar
    21    41    42    1
    22    25    24   ar
    23    13    12   ar
    24     9     8    1
    25    15    22    1
    26    15    16   ar
    27    33    39    1
    28    22    23   ar
    29     3     4   ar
    30     3     2   ar
    31    12    16   ar
    32    12     4    1
    33    24    23   ar
    34    24    30    1
    35    16    17    1
    36    23    28    1
    37     8     2    1
    38     4     5   ar
    39    30    31    1
    40     2     1   ar
    41    28    29    1
    42    39    40    1
    43     5     1   ar
    44     5     6    1
    45     1     7    1
