@<TRIPOS>MOLECULE
mol_data/opt/b3lyp/geoms/mol2/13fg13fg13fg-.out
 32 34 0 0 0
SMALL
GASTEIGER

@<TRIPOS>ATOM
      1 C           1.0897   -0.0967    1.0986 C.ar    1  LIG1        0.0453
      2 C           0.8894    0.9697    0.2519 C.ar    1  LIG1        0.1478
      3 C          -0.4187    0.8479   -0.3111 C.ar    1  LIG1        0.0732
      4 C          -0.9990   -0.2993    0.2222 C.ar    1  LIG1        0.0835
      5 N          -0.0597   -0.8735    1.0545 N.ar    1  LIG1       -0.3555
      6 H          -0.2969   -1.5528    1.7605 H       1  LIG1        0.1655
      7 H           1.9436   -0.3678    1.6980 H       1  LIG1        0.0845
      8 O           1.7948    1.9444   -0.0239 O.3     1  LIG1       -0.5042
      9 H           1.3461    2.5903   -0.5935 H       1  LIG1        0.2923
     10 S          -1.0349    1.9226   -1.5766 S.3     1  LIG1       -0.1370
     11 H          -2.0893    2.4337   -0.9033 H       1  LIG1        0.1073
     12 C          -2.3193   -0.8604    0.0410 C.ar    1  LIG1        0.1076
     13 C          -3.5724   -0.2640    0.0342 C.ar    1  LIG1        0.1573
     14 C          -4.5538   -1.2746   -0.1631 C.ar    1  LIG1        0.0739
     15 C          -3.8871   -2.4959   -0.2591 C.ar    1  LIG1        0.0840
     16 N          -2.5447   -2.2245   -0.1290 N.ar    1  LIG1       -0.3479
     17 H          -1.8147   -2.9190   -0.1360 H       1  LIG1        0.1661
     18 O          -3.8083    1.0634    0.2127 O.3     1  LIG1       -0.5035
     19 H          -4.7732    1.1767    0.2321 H       1  LIG1        0.2923
     20 S          -6.2795   -0.9295   -0.3569 S.3     1  LIG1       -0.1370
     21 H          -6.7331   -1.5758    0.7397 H       1  LIG1        0.1073
     22 C          -4.4002   -3.8377   -0.4320 C.ar    1  LIG1        0.1072
     23 C          -5.4389   -4.5048    0.1969 C.ar    1  LIG1        0.1566
     24 C          -5.5053   -5.8296   -0.3308 C.ar    1  LIG1        0.0643
     25 C          -4.5066   -5.9407   -1.2832 C.ar    1  LIG1        0.0191
     26 N          -3.8325   -4.7559   -1.3190 N.ar    1  LIG1       -0.3555
     27 H          -3.1743   -4.4938   -2.0364 H       1  LIG1        0.1655
     28 H          -4.2463   -6.7697   -1.9231 H       1  LIG1        0.0819
     29 O          -6.2172   -3.9935    1.1871 O.3     1  LIG1       -0.5035
     30 H          -6.9016   -4.6563    1.3776 H       1  LIG1        0.2923
     31 S          -6.7144   -7.0362    0.1375 S.3     1  LIG1       -0.1377
     32 H          -6.0566   -7.6124    1.1709 H       1  LIG1        0.1073
@<TRIPOS>BOND
     1    27    26    1
     2    28    25    1
     3    10    11    1
     4    10     3    1
     5    26    25   ar
     6    26    22   ar
     7    25    24   ar
     8     9     8    1
     9    22    15    1
    10    22    23   ar
    11    20    14    1
    12    20    21    1
    13    24    31    1
    14    24    23   ar
    15     3     4   ar
    16     3     2   ar
    17    15    14   ar
    18    15    16   ar
    19    14    13   ar
    20    17    16    1
    21    16    12   ar
    22     8     2    1
    23    13    12   ar
    24    13    18    1
    25    12     4    1
    26    31    32    1
    27    23    29    1
    28    18    19    1
    29     4     5   ar
    30     2     1   ar
    31     5     1   ar
    32     5     6    1
    33     1     7    1
    34    29    30    1
