@<TRIPOS>MOLECULE
mol_data/opt/b3lyp/geoms/mol2/13fg13fg13fg13fg.out
 42 45 0 0 0
SMALL
GASTEIGER

@<TRIPOS>ATOM
      1 C           1.2887    0.0821    0.1299 C.ar    1  LIG1        0.0453
      2 C           0.7744    1.2850   -0.2977 C.ar    1  LIG1        0.1478
      3 C          -0.6488    1.1640   -0.3558 C.ar    1  LIG1        0.0732
      4 C          -0.9756   -0.1256    0.0580 C.ar    1  LIG1        0.0835
      5 N           0.2128   -0.7742    0.3202 N.ar    1  LIG1       -0.3555
      6 H           0.2614   -1.6232    0.8607 H       1  LIG1        0.1655
      7 H           2.3078   -0.2307    0.2885 H       1  LIG1        0.0845
      8 O           1.5007    2.3810   -0.6399 O.3     1  LIG1       -0.5042
      9 H           0.8643    3.0862   -0.8417 H       1  LIG1        0.2923
     10 S          -1.6994    2.4245   -1.0201 S.3     1  LIG1       -0.1370
     11 H          -2.4202    2.6928    0.0912 H       1  LIG1        0.1073
     12 C          -2.2546   -0.7711    0.2382 C.ar    1  LIG1        0.1076
     13 C          -3.4483   -0.3162    0.7707 C.ar    1  LIG1        0.1573
     14 C          -4.3946   -1.3847    0.7468 C.ar    1  LIG1        0.0739
     15 C          -3.7640   -2.4883    0.1804 C.ar    1  LIG1        0.0840
     16 N          -2.4557   -2.1207   -0.0819 N.ar    1  LIG1       -0.3479
     17 H          -1.9208   -2.5637   -0.8153 H       1  LIG1        0.1661
     18 O          -3.6520    0.9137    1.3109 O.3     1  LIG1       -0.5035
     19 H          -4.5918    0.9627    1.5535 H       1  LIG1        0.2923
     20 S          -5.9794   -1.2736    1.5292 S.3     1  LIG1       -0.1370
     21 H          -6.7496   -1.4984    0.4423 H       1  LIG1        0.1073
     22 C          -4.2618   -3.8016   -0.1425 C.ar    1  LIG1        0.1077
     23 C          -5.4847   -4.2283   -0.6355 C.ar    1  LIG1        0.1573
     24 C          -5.4341   -5.6431   -0.8137 C.ar    1  LIG1        0.0739
     25 C          -4.1716   -6.0696   -0.4168 C.ar    1  LIG1        0.0840
     26 N          -3.4553   -4.9438   -0.0526 N.ar    1  LIG1       -0.3479
     27 H          -2.6937   -4.9907    0.6091 H       1  LIG1        0.1661
     28 O          -6.5205   -3.4218   -0.9819 O.3     1  LIG1       -0.5035
     29 H          -7.2453   -4.0017   -1.2711 H       1  LIG1        0.2923
     30 S          -6.7272   -6.5563   -1.6074 S.3     1  LIG1       -0.1370
     31 H          -7.0864   -7.3342   -0.5628 H       1  LIG1        0.1073
     32 C          -3.6050   -7.3947   -0.3308 C.ar    1  LIG1        0.1072
     33 C          -4.1417   -8.5969    0.1059 C.ar    1  LIG1        0.1566
     34 C          -3.1262   -9.5961    0.0221 C.ar    1  LIG1        0.0643
     35 C          -1.9882   -8.9829   -0.4736 C.ar    1  LIG1        0.0191
     36 N          -2.2730   -7.6619   -0.6549 N.ar    1  LIG1       -0.3555
     37 H          -1.6891   -7.0120   -1.1574 H       1  LIG1        0.1655
     38 H          -1.0204   -9.3996   -0.7066 H       1  LIG1        0.0819
     39 O          -5.3985   -8.7687    0.5905 O.3     1  LIG1       -0.5035
     40 H          -5.5089   -9.7194    0.7585 H       1  LIG1        0.2923
     41 S          -3.3655  -11.3029    0.4309 S.3     1  LIG1       -0.1377
     42 H          -3.0337  -11.2583    1.7427 H       1  LIG1        0.1073
@<TRIPOS>BOND
     1    30    24    1
     2    30    31    1
     3    29    28    1
     4    37    36    1
     5    10     3    1
     6    10    11    1
     7    28    23    1
     8     9     8    1
     9    17    16    1
    10    24    23   ar
    11    24    25   ar
    12    38    35    1
    13    36    35   ar
    14    36    32   ar
    15     8     2    1
    16    23    22   ar
    17    35    34   ar
    18    25    32    1
    19    25    26   ar
    20     3     2   ar
    21     3     4   ar
    22    32    33   ar
    23     2     1   ar
    24    22    26   ar
    25    22    15    1
    26    16    15   ar
    27    16    12   ar
    28    26    27    1
    29    34    33   ar
    30    34    41    1
    31     4    12    1
    32     4     5   ar
    33    33    39    1
    34     1     7    1
    35     1     5   ar
    36    15    14   ar
    37    12    13   ar
    38     5     6    1
    39    41    42    1
    40    21    20    1
    41    39    40    1
    42    14    13   ar
    43    14    20    1
    44    13    18    1
    45    18    19    1
