@<TRIPOS>MOLECULE
mol_data/opt/b3lyp/geoms/mol2/13fh13fh13fh13fh.out
 46 49 0 0 0
SMALL
GASTEIGER

@<TRIPOS>ATOM
      1 C           1.0956    0.2308   -1.4804 C.ar    1  LIG1        0.0461
      2 C           0.8869    1.2725   -0.6104 C.ar    1  LIG1        0.1554
      3 C          -0.3947    1.1093   -0.0044 C.ar    1  LIG1        0.0938
      4 C          -0.9611   -0.0426   -0.5327 C.ar    1  LIG1        0.0912
      5 N          -0.0266   -0.5987   -1.3977 N.ar    1  LIG1       -0.3549
      6 H          -0.3121   -1.1683   -2.1804 H       1  LIG1        0.1655
      7 H           1.9334   -0.0097   -2.1147 H       1  LIG1        0.0845
      8 O           1.7285    2.2959   -0.3048 O.3     1  LIG1       -0.5035
      9 H           1.2030    2.8676    0.2835 H       1  LIG1        0.2923
     10 N          -0.8635    2.0327    0.9749 N.pl3   1  LIG1       -0.3535
     11 H          -1.8509    2.2351    0.8299 H       1  LIG1        0.1425
     12 H          -0.7788    1.6491    1.9147 H       1  LIG1        0.1425
     13 C          -2.2473   -0.6461   -0.2869 C.ar    1  LIG1        0.1092
     14 C          -3.4724   -0.0889    0.0491 C.ar    1  LIG1        0.1650
     15 C          -4.4384   -1.1173    0.1649 C.ar    1  LIG1        0.0945
     16 C          -3.8011   -2.3251   -0.1186 C.ar    1  LIG1        0.0916
     17 N          -2.4765   -2.0208   -0.3760 N.ar    1  LIG1       -0.3473
     18 H          -1.7842   -2.6767   -0.6981 H       1  LIG1        0.1662
     19 O          -3.7532    1.2337    0.2361 O.3     1  LIG1       -0.5030
     20 H          -4.7193    1.2579    0.3644 H       1  LIG1        0.2923
     21 N          -5.7885   -0.8169    0.5101 N.pl3   1  LIG1       -0.3534
     22 H          -6.4325   -1.3427   -0.0780 H       1  LIG1        0.1425
     23 H          -5.9902   -1.0852    1.4717 H       1  LIG1        0.1425
     24 C          -4.3300   -3.6651   -0.1517 C.ar    1  LIG1        0.1092
     25 C          -5.5883   -4.1365   -0.4997 C.ar    1  LIG1        0.1650
     26 C          -5.6102   -5.5469   -0.3810 C.ar    1  LIG1        0.0945
     27 C          -4.3413   -5.9509    0.0307 C.ar    1  LIG1        0.0916
     28 N          -3.5854   -4.8021    0.1725 N.ar    1  LIG1       -0.3473
     29 H          -2.6088   -4.7888    0.4152 H       1  LIG1        0.1662
     30 O          -6.6569   -3.3990   -0.9183 O.3     1  LIG1       -0.5030
     31 H          -7.3220   -4.0628   -1.1774 H       1  LIG1        0.2923
     32 N          -6.7876   -6.2892   -0.6858 N.pl3   1  LIG1       -0.3534
     33 H          -6.5559   -7.1260   -1.2178 H       1  LIG1        0.1425
     34 H          -7.2563   -6.6028    0.1622 H       1  LIG1        0.1425
     35 C          -3.8249   -7.2731    0.2879 C.ar    1  LIG1        0.1087
     36 C          -4.1346   -8.4975   -0.2802 C.ar    1  LIG1        0.1643
     37 C          -3.3325   -9.5054    0.3236 C.ar    1  LIG1        0.0849
     38 C          -2.5329   -8.8805    1.2621 C.ar    1  LIG1        0.0267
     39 N          -2.8133   -7.5346    1.2164 N.ar    1  LIG1       -0.3549
     40 H          -2.5712   -6.8904    1.9526 H       1  LIG1        0.1655
     41 H          -1.7932   -9.2789    1.9405 H       1  LIG1        0.0827
     42 O          -5.0170   -8.7409   -1.2907 O.3     1  LIG1       -0.5031
     43 H          -4.9443   -9.6996   -1.4516 H       1  LIG1        0.2923
     44 N          -3.4354  -10.8589   -0.1217 N.pl3   1  LIG1       -0.3540
     45 H          -2.5552  -11.2107   -0.4879 H       1  LIG1        0.1425
     46 H          -3.7316  -11.4862    0.6209 H       1  LIG1        0.1425
@<TRIPOS>BOND
     1     6     5    1
     2     7     1    1
     3     1     5   ar
     4     1     2   ar
     5    43    42    1
     6     5     4   ar
     7    42    36    1
     8    33    32    1
     9    31    30    1
    10    30    25    1
    11    18    17    1
    12    32    26    1
    13    32    34    1
    14     2     8    1
    15     2     3   ar
    16     4    13    1
    17     4     3   ar
    18    25    26   ar
    19    25    24   ar
    20    45    44    1
    21    26    27   ar
    22    17    13   ar
    23    17    16   ar
    24     8     9    1
    25    13    14   ar
    26    36    35   ar
    27    36    37   ar
    28    24    16    1
    29    24    28   ar
    30    44    37    1
    31    44    46    1
    32    16    15   ar
    33    22    21    1
    34     3    10    1
    35    27    28   ar
    36    27    35    1
    37    14    15   ar
    38    14    19    1
    39    15    21    1
    40    28    29    1
    41    19    20    1
    42    35    39   ar
    43    37    38   ar
    44    21    23    1
    45    11    10    1
    46    10    12    1
    47    39    38   ar
    48    39    40    1
    49    38    41    1
