@<TRIPOS>MOLECULE
mol_data/opt/b3lyp/geoms/mol2/13fh13fh13fh-13fh.out
 46 49 0 0 0
SMALL
GASTEIGER

@<TRIPOS>ATOM
      1 C           1.3679   -0.2177    0.2917 C.ar    1  LIG1        0.0461
      2 C           0.9193    1.0649    0.5041 C.ar    1  LIG1        0.1554
      3 C          -0.4975    1.0816    0.3554 C.ar    1  LIG1        0.0938
      4 C          -0.8968   -0.2129    0.0358 C.ar    1  LIG1        0.0912
      5 N           0.2425   -1.0006    0.0423 N.ar    1  LIG1       -0.3549
      6 H           0.2894   -1.8812   -0.4454 H       1  LIG1        0.1655
      7 H           2.3594   -0.6392    0.3222 H       1  LIG1        0.0845
      8 O           1.6485    2.1648    0.8325 O.3     1  LIG1       -0.5035
      9 H           1.0002    2.8917    0.8227 H       1  LIG1        0.2923
     10 N          -1.2396    2.2812    0.5606 N.pl3   1  LIG1       -0.3535
     11 H          -1.9730    2.3765   -0.1386 H       1  LIG1        0.1425
     12 H          -1.7013    2.2791    1.4686 H       1  LIG1        0.1425
     13 C          -2.2027   -0.7513   -0.2425 C.ar    1  LIG1        0.1092
     14 C          -3.3564   -0.1654   -0.7195 C.ar    1  LIG1        0.1650
     15 C          -4.3885   -1.1472   -0.7973 C.ar    1  LIG1        0.0945
     16 C          -3.8532   -2.3532   -0.3717 C.ar    1  LIG1        0.0916
     17 N          -2.4998   -2.1228   -0.0790 N.ar    1  LIG1       -0.3473
     18 H          -2.0861   -2.6167    0.7023 H       1  LIG1        0.1662
     19 O          -3.5235    1.1175   -1.1446 O.3     1  LIG1       -0.5030
     20 H          -4.4073    1.1289   -1.5558 H       1  LIG1        0.2923
     21 N          -5.6527   -0.8101   -1.3654 N.pl3   1  LIG1       -0.3534
     22 H          -5.9700   -1.4996   -2.0411 H       1  LIG1        0.1425
     23 H          -6.3836   -0.6953   -0.6676 H       1  LIG1        0.1425
     24 C          -4.4009   -3.6772   -0.2758 C.ar    1  LIG1        0.1092
     25 C          -3.7538   -4.9094   -0.3562 C.ar    1  LIG1        0.1650
     26 C          -4.7208   -5.9397   -0.2461 C.ar    1  LIG1        0.0945
     27 C          -5.9618   -5.3160   -0.1071 C.ar    1  LIG1        0.0916
     28 N          -5.7572   -3.9600   -0.1449 N.ar    1  LIG1       -0.3473
     29 H          -6.4887   -3.2872    0.0237 H       1  LIG1        0.1662
     30 O          -2.4152   -5.1340   -0.5424 O.3     1  LIG1       -0.5030
     31 H          -2.0269   -4.3083   -0.8710 H       1  LIG1        0.2923
     32 N          -4.5369   -7.3610   -0.2790 N.pl3   1  LIG1       -0.3534
     33 H          -4.0594   -7.6327   -1.1371 H       1  LIG1        0.1425
     34 H          -3.9247   -7.6543    0.4807 H       1  LIG1        0.1425
     35 C          -7.2691   -5.8837    0.0535 C.ar    1  LIG1        0.1087
     36 C          -8.5118   -5.2880    0.2072 C.ar    1  LIG1        0.1643
     37 C          -9.4907   -6.3052    0.3287 C.ar    1  LIG1        0.0849
     38 C          -8.8192   -7.5199    0.2447 C.ar    1  LIG1        0.0267
     39 N          -7.4896   -7.2511    0.0807 N.ar    1  LIG1       -0.3549
     40 H          -6.7144   -7.8963   -0.0245 H       1  LIG1        0.1655
     41 H          -9.1905   -8.5329    0.2907 H       1  LIG1        0.0827
     42 O          -8.7646   -3.9443    0.2409 O.3     1  LIG1       -0.5031
     43 H          -9.7275   -3.8801    0.3718 H       1  LIG1        0.2923
     44 N         -10.8675   -5.9637    0.5047 N.pl3   1  LIG1       -0.3540
     45 H         -11.4496   -6.3197   -0.2486 H       1  LIG1        0.1425
     46 H         -11.2429   -6.3267    1.3767 H       1  LIG1        0.1425
@<TRIPOS>BOND
     1    22    21    1
     2    20    19    1
     3    21    15    1
     4    21    23    1
     5    19    14    1
     6    33    32    1
     7    31    30    1
     8    15    14   ar
     9    15    16   ar
    10    14    13   ar
    11    30    25    1
    12     6     5    1
    13    16    24    1
    14    16    17   ar
    15    25    24   ar
    16    25    26   ar
    17    32    26    1
    18    32    34    1
    19    24    28   ar
    20    45    44    1
    21    26    27   ar
    22    13    17   ar
    23    13     4    1
    24    28    27   ar
    25    28    29    1
    26    11    10    1
    27    27    35    1
    28    17    18    1
    29    40    39    1
    30     4     5   ar
    31     4     3   ar
    32     5     1   ar
    33    35    39   ar
    34    35    36   ar
    35    39    38   ar
    36    36    42    1
    37    36    37   ar
    38    42    43    1
    39    38    41    1
    40    38    37   ar
    41     1     7    1
    42     1     2   ar
    43    37    44    1
    44     3     2   ar
    45     3    10    1
    46     2     8    1
    47    44    46    1
    48    10    12    1
    49     9     8    1
