@<TRIPOS>MOLECULE
mol_data/opt/b3lyp/geoms/mol2/13fh13fh.out
 24 25 0 0 0
SMALL
GASTEIGER

@<TRIPOS>ATOM
      1 C           1.2822   -0.3314   -0.3240 C.ar    1  LIG1        0.0461
      2 C           0.8881    0.9552   -0.0451 C.ar    1  LIG1        0.1554
      3 C          -0.5293    0.9717    0.1140 C.ar    1  LIG1        0.0938
      4 C          -0.9840   -0.3248   -0.0868 C.ar    1  LIG1        0.0911
      5 N           0.1305   -1.1188   -0.3098 N.ar    1  LIG1       -0.3549
      6 H           0.0708   -1.9892   -0.8159 H       1  LIG1        0.1655
      7 H           2.2578   -0.7543   -0.5008 H       1  LIG1        0.0845
      8 O           1.6677    2.0599    0.0991 O.3     1  LIG1       -0.5035
      9 H           1.0309    2.7884    0.2106 H       1  LIG1        0.2923
     10 N          -1.2162    2.1763    0.4429 N.pl3   1  LIG1       -0.3535
     11 H          -2.0826    2.2507   -0.0867 H       1  LIG1        0.1425
     12 H          -1.4724    2.1983    1.4284 H       1  LIG1        0.1425
     13 C          -2.3249   -0.8598   -0.0675 C.ar    1  LIG1        0.1087
     14 C          -3.5469   -0.2872   -0.3774 C.ar    1  LIG1        0.1643
     15 C          -4.5728   -1.2544   -0.1882 C.ar    1  LIG1        0.0849
     16 C          -3.9604   -2.4192    0.2377 C.ar    1  LIG1        0.0267
     17 N          -2.6074   -2.1805    0.2837 N.ar    1  LIG1       -0.3549
     18 H          -1.9433   -2.7659    0.7646 H       1  LIG1        0.1655
     19 H          -4.3729   -3.3827    0.4976 H       1  LIG1        0.0827
     20 O          -3.7758    0.9774   -0.8364 O.3     1  LIG1       -0.5031
     21 H          -4.7398    1.0146   -0.9735 H       1  LIG1        0.2923
     22 N          -5.9320   -0.9200   -0.4772 N.pl3   1  LIG1       -0.3540
     23 H          -6.3260   -1.5116   -1.2034 H       1  LIG1        0.1425
     24 H          -6.5289   -1.0016    0.3413 H       1  LIG1        0.1425
@<TRIPOS>BOND
     1    23    22    1
     2    21    20    1
     3    20    14    1
     4     6     5    1
     5     7     1    1
     6    22    15    1
     7    22    24    1
     8    14    15   ar
     9    14    13   ar
    10     1     5   ar
    11     1     2   ar
    12     5     4   ar
    13    15    16   ar
    14     4    13    1
    15     4     3   ar
    16    11    10    1
    17    13    17   ar
    18     2     8    1
    19     2     3   ar
    20     8     9    1
    21     3    10    1
    22    16    17   ar
    23    16    19    1
    24    17    18    1
    25    10    12    1
