@<TRIPOS>MOLECULE
mol_data/opt/b3lyp/geoms/mol2/13fh13fh13fh-13fh-.out
 46 49 0 0 0
SMALL
GASTEIGER

@<TRIPOS>ATOM
      1 C           1.3387   -0.2725    0.4684 C.ar    1  LIG1        0.0461
      2 C           0.9114    1.0194    0.6687 C.ar    1  LIG1        0.1554
      3 C          -0.4981    1.0683    0.4681 C.ar    1  LIG1        0.0938
      4 C          -0.9138   -0.2166    0.1295 C.ar    1  LIG1        0.0912
      5 N           0.2070   -1.0294    0.1749 N.ar    1  LIG1       -0.3549
      6 H           0.2528   -1.9108   -0.3114 H       1  LIG1        0.1655
      7 H           2.3193   -0.7154    0.5317 H       1  LIG1        0.0845
      8 O           1.6537    2.1009    1.0261 O.3     1  LIG1       -0.5035
      9 H           1.0258    2.8446    0.9912 H       1  LIG1        0.2923
     10 N          -1.2196    2.2836    0.6482 N.pl3   1  LIG1       -0.3535
     11 H          -1.9296    2.3944   -0.0722 H       1  LIG1        0.1425
     12 H          -1.7048    2.2977    1.5437 H       1  LIG1        0.1425
     13 C          -2.2192   -0.7264   -0.1997 C.ar    1  LIG1        0.1092
     14 C          -3.3427   -0.1142   -0.7134 C.ar    1  LIG1        0.1650
     15 C          -4.3906   -1.0754   -0.8384 C.ar    1  LIG1        0.0945
     16 C          -3.8954   -2.2949   -0.4060 C.ar    1  LIG1        0.0916
     17 N          -2.5471   -2.0943   -0.0602 N.ar    1  LIG1       -0.3473
     18 H          -2.1834   -2.5928    0.7432 H       1  LIG1        0.1662
     19 O          -3.4662    1.1745   -1.1362 O.3     1  LIG1       -0.5030
     20 H          -4.3146    1.2022   -1.6146 H       1  LIG1        0.2923
     21 N          -5.6180   -0.7160   -1.4681 N.pl3   1  LIG1       -0.3534
     22 H          -5.9461   -1.4426   -2.0982 H       1  LIG1        0.1425
     23 H          -6.3602   -0.5270   -0.7986 H       1  LIG1        0.1425
     24 C          -4.4564   -3.6163   -0.3579 C.ar    1  LIG1        0.1092
     25 C          -3.8215   -4.8403   -0.5126 C.ar    1  LIG1        0.1650
     26 C          -4.7908   -5.8729   -0.4176 C.ar    1  LIG1        0.0945
     27 C          -6.0264   -5.2673   -0.2044 C.ar    1  LIG1        0.0916
     28 N          -5.8259   -3.8955   -0.2338 N.ar    1  LIG1       -0.3473
     29 H          -6.4444   -3.2811    0.2747 H       1  LIG1        0.1662
     30 O          -2.5002   -5.0748   -0.7696 O.3     1  LIG1       -0.5030
     31 H          -2.0855   -4.2189   -0.9629 H       1  LIG1        0.2923
     32 N          -4.5765   -7.2844   -0.5440 N.pl3   1  LIG1       -0.3534
     33 H          -4.5432   -7.5682   -1.5230 H       1  LIG1        0.1425
     34 H          -3.6757   -7.5352   -0.1422 H       1  LIG1        0.1425
     35 C          -7.3223   -5.8457    0.0136 C.ar    1  LIG1        0.1087
     36 C          -7.6736   -7.1320    0.4028 C.ar    1  LIG1        0.1643
     37 C          -9.0983   -7.1863    0.5362 C.ar    1  LIG1        0.0849
     38 C          -9.5793   -5.9369    0.2163 C.ar    1  LIG1        0.0267
     39 N          -8.5015   -5.0901   -0.0451 N.ar    1  LIG1       -0.3549
     40 H          -8.5930   -4.3731   -0.7527 H       1  LIG1        0.1655
     41 H         -10.5932   -5.5665    0.1912 H       1  LIG1        0.0827
     42 O          -6.8849   -8.1946    0.6791 O.3     1  LIG1       -0.5031
     43 H          -5.9842   -8.0168    0.2952 H       1  LIG1        0.2923
     44 N          -9.7797   -8.3137    1.0164 N.pl3   1  LIG1       -0.3540
     45 H         -10.6840   -8.4562    0.5832 H       1  LIG1        0.1425
     46 H          -9.2101   -9.1469    0.9210 H       1  LIG1        0.1425
@<TRIPOS>BOND
     1    22    21    1
     2    20    19    1
     3    33    32    1
     4    21    15    1
     5    21    23    1
     6    19    14    1
     7    31    30    1
     8    15    14   ar
     9    15    16   ar
    10    30    25    1
    11    40    39    1
    12    14    13   ar
    13    32    26    1
    14    32    34    1
    15    25    26   ar
    16    25    24   ar
    17    26    27   ar
    18    16    24    1
    19    16    17   ar
    20    24    28   ar
    21     6     5    1
    22    28    27   ar
    23    28    29    1
    24    27    35    1
    25    13    17   ar
    26    13     4    1
    27    11    10    1
    28    17    18    1
    29    39    35   ar
    30    39    38   ar
    31    35    36   ar
    32     4     5   ar
    33     4     3   ar
    34     5     1   ar
    35    41    38    1
    36    38    37   ar
    37    43    42    1
    38    36    37   ar
    39    36    42    1
    40     3    10    1
    41     3     2   ar
    42     1     7    1
    43     1     2   ar
    44    37    44    1
    45    45    44    1
    46    10    12    1
    47     2     8    1
    48    46    44    1
    49     9     8    1
