@<TRIPOS>MOLECULE
mol_data/opt/b3lyp/geoms/mol2/13fh13fh-.out
 24 25 0 0 0
SMALL
GASTEIGER

@<TRIPOS>ATOM
      1 C           1.2353   -0.2868    0.1588 C.ar    1  LIG1        0.0461
      2 C           0.8610    1.0315    0.0085 C.ar    1  LIG1        0.1554
      3 C          -0.5578    1.0895   -0.0745 C.ar    1  LIG1        0.0938
      4 C          -1.0325   -0.2216    0.0238 C.ar    1  LIG1        0.0911
      5 N           0.0692   -1.0321    0.1558 N.ar    1  LIG1       -0.3549
      6 H          -0.0102   -2.0264    0.3063 H       1  LIG1        0.1655
      7 H           2.2070   -0.7417    0.2587 H       1  LIG1        0.0845
      8 O           1.6718    2.1219   -0.0636 O.3     1  LIG1       -0.5035
      9 H           1.0643    2.8680   -0.2076 H       1  LIG1        0.2923
     10 N          -1.2279    2.3380   -0.2491 N.pl3   1  LIG1       -0.3535
     11 H          -1.8138    2.3784   -1.0776 H       1  LIG1        0.1425
     12 H          -1.7655    2.6364    0.5599 H       1  LIG1        0.1425
     13 C          -2.3613   -0.7805   -0.0012 C.ar    1  LIG1        0.1087
     14 C          -2.7725   -2.1088   -0.0416 C.ar    1  LIG1        0.1643
     15 C          -4.1945   -2.1587   -0.0205 C.ar    1  LIG1        0.0849
     16 C          -4.6306   -0.8466    0.0191 C.ar    1  LIG1        0.0267
     17 N          -3.5138   -0.0287    0.0131 N.ar    1  LIG1       -0.3549
     18 H          -3.5258    0.9727    0.0995 H       1  LIG1        0.1655
     19 H          -5.6283   -0.4385    0.0578 H       1  LIG1        0.0827
     20 O          -1.9301   -3.2175   -0.0648 O.3     1  LIG1       -0.5031
     21 H          -1.7714   -3.4561   -0.9900 H       1  LIG1        0.2923
     22 N          -4.9650   -3.3356    0.0183 N.pl3   1  LIG1       -0.3540
     23 H          -5.7178   -3.3485   -0.6598 H       1  LIG1        0.1425
     24 H          -4.3803   -4.1545   -0.1029 H       1  LIG1        0.1425
@<TRIPOS>BOND
     1    11    10    1
     2    21    20    1
     3    23    22    1
     4    10     3    1
     5    10    12    1
     6     9     8    1
     7    24    22    1
     8     3     2   ar
     9     3     4   ar
    10    20    14    1
    11     8     2    1
    12    14    15   ar
    13    14    13   ar
    14    15    22    1
    15    15    16   ar
    16    13    17   ar
    17    13     4    1
    18     2     1   ar
    19    17    16   ar
    20    17    18    1
    21    16    19    1
    22     4     5   ar
    23     5     1   ar
    24     5     6    1
    25     1     7    1
