@<TRIPOS>MOLECULE
mol_data/opt/b3lyp/geoms/mol2/13fh13fh-13fh-13fh-.out
 46 49 0 0 0
SMALL
GASTEIGER

@<TRIPOS>ATOM
      1 C           1.3241   -0.5117    0.9156 C.ar    1  LIG1        0.0461
      2 C           1.1455    0.7318    0.3657 C.ar    1  LIG1        0.1554
      3 C          -0.2205    0.8617   -0.0388 C.ar    1  LIG1        0.0938
      4 C          -0.8620   -0.3305    0.2678 C.ar    1  LIG1        0.0912
      5 N           0.1014   -1.1840    0.8060 N.ar    1  LIG1       -0.3549
      6 H          -0.1692   -1.8954    1.4705 H       1  LIG1        0.1655
      7 H           2.2006   -0.9906    1.3206 H       1  LIG1        0.0845
      8 O           2.0770    1.6980    0.1617 O.3     1  LIG1       -0.5035
      9 H           1.6260    2.3654   -0.3852 H       1  LIG1        0.2923
     10 N          -0.6578    2.0213   -0.7448 N.pl3   1  LIG1       -0.3535
     11 H          -1.2572    1.7817   -1.5296 H       1  LIG1        0.1425
     12 H          -1.1708    2.6690   -0.1517 H       1  LIG1        0.1425
     13 C          -2.2029   -0.8061    0.0397 C.ar    1  LIG1        0.1092
     14 C          -2.6355   -2.0802   -0.2848 C.ar    1  LIG1        0.1650
     15 C          -4.0470   -2.0581   -0.4435 C.ar    1  LIG1        0.0945
     16 C          -4.4758   -0.7534   -0.2148 C.ar    1  LIG1        0.0916
     17 N          -3.3414    0.0178    0.0163 N.ar    1  LIG1       -0.3473
     18 H          -3.3864    0.8258    0.6200 H       1  LIG1        0.1662
     19 O          -1.8820   -3.2018   -0.4909 O.3     1  LIG1       -0.5030
     20 H          -0.9504   -2.9317   -0.5169 H       1  LIG1        0.2923
     21 N          -4.8947   -3.1512   -0.8187 N.pl3   1  LIG1       -0.3534
     22 H          -4.9022   -3.2838   -1.8301 H       1  LIG1        0.1425
     23 H          -4.5398   -4.0172   -0.4189 H       1  LIG1        0.1425
     24 C          -5.8016   -0.2051   -0.2073 C.ar    1  LIG1        0.1092
     25 C          -7.0421   -0.8370   -0.0743 C.ar    1  LIG1        0.1650
     26 C          -8.0439    0.1651   -0.0402 C.ar    1  LIG1        0.0945
     27 C          -7.4197    1.4080   -0.1563 C.ar    1  LIG1        0.0916
     28 N          -6.0708    1.1660   -0.2769 N.ar    1  LIG1       -0.3473
     29 H          -5.3778    1.8937   -0.3186 H       1  LIG1        0.1662
     30 O          -7.3169   -2.1549    0.0341 O.3     1  LIG1       -0.5030
     31 H          -6.5037   -2.6650   -0.2321 H       1  LIG1        0.2923
     32 N          -9.4581   -0.0343    0.0949 N.pl3   1  LIG1       -0.3534
     33 H          -9.8797   -0.2859   -0.7991 H       1  LIG1        0.1425
     34 H          -9.6291   -0.8217    0.7174 H       1  LIG1        0.1425
     35 C          -7.9789    2.7318   -0.1829 C.ar    1  LIG1        0.1087
     36 C          -9.2037    3.1866    0.2823 C.ar    1  LIG1        0.1643
     37 C          -9.2607    4.6051    0.0818 C.ar    1  LIG1        0.0849
     38 C          -8.0758    4.9755   -0.5096 C.ar    1  LIG1        0.0267
     39 N          -7.2524    3.8505   -0.6221 N.ar    1  LIG1       -0.3549
     40 H          -6.6760    3.7579   -1.4495 H       1  LIG1        0.1655
     41 H          -7.7285    5.9480   -0.8252 H       1  LIG1        0.0827
     42 O         -10.2077    2.5043    0.8764 O.3     1  LIG1       -0.5031
     43 H         -10.0722    1.5343    0.6882 H       1  LIG1        0.2923
     44 N         -10.3241    5.3972    0.5376 N.pl3   1  LIG1       -0.3540
     45 H         -10.5381    6.1778   -0.0712 H       1  LIG1        0.1425
     46 H         -11.1526    4.8330    0.6895 H       1  LIG1        0.1425
@<TRIPOS>BOND
     1    22    21    1
     2    11    10    1
     3    40    39    1
     4    41    38    1
     5    21    15    1
     6    21    23    1
     7    33    32    1
     8    10    12    1
     9    10     3    1
    10    39    38   ar
    11    39    35   ar
    12    20    19    1
    13    38    37   ar
    14    19    14    1
    15    15    14   ar
    16    15    16   ar
    17     9     8    1
    18    29    28    1
    19    14    13   ar
    20    28    24   ar
    21    28    27   ar
    22    31    30    1
    23    16    24    1
    24    16    17   ar
    25    24    25   ar
    26    35    27    1
    27    35    36   ar
    28    27    26   ar
    29    25    26   ar
    30    25    30    1
    31    45    44    1
    32    26    32    1
    33     3     4   ar
    34     3     2   ar
    35    17    13   ar
    36    17    18    1
    37    13     4    1
    38    37    36   ar
    39    37    44    1
    40    32    34    1
    41     8     2    1
    42     4     5   ar
    43    36    42    1
    44     2     1   ar
    45    44    46    1
    46    43    42    1
    47     5     1   ar
    48     5     6    1
    49     1     7    1
