@<TRIPOS>MOLECULE
mol_data/opt/b3lyp/geoms/mol2/13fh13fh-13fh.out
 35 37 0 0 0
SMALL
GASTEIGER

@<TRIPOS>ATOM
      1 C           1.2726   -0.3268    0.5464 C.ar    1  LIG1        0.0461
      2 C           0.9733    0.9144    0.0444 C.ar    1  LIG1        0.1554
      3 C          -0.4297    0.9730   -0.2243 C.ar    1  LIG1        0.0938
      4 C          -0.9719   -0.2596    0.1156 C.ar    1  LIG1        0.0912
      5 N           0.0830   -1.0625    0.5407 N.ar    1  LIG1       -0.3549
      6 H          -0.0802   -1.8192    1.1892 H       1  LIG1        0.1655
      7 H           2.2087   -0.7632    0.8542 H       1  LIG1        0.0845
      8 O           1.8239    1.9390   -0.2217 O.3     1  LIG1       -0.5035
      9 H           1.2725    2.6012   -0.6756 H       1  LIG1        0.2923
     10 N          -0.9990    2.1287   -0.8385 N.pl3   1  LIG1       -0.3535
     11 H          -1.5989    1.8944   -1.6245 H       1  LIG1        0.1425
     12 H          -1.5390    2.6980   -0.1916 H       1  LIG1        0.1425
     13 C          -2.3069   -0.7932    0.0226 C.ar    1  LIG1        0.1092
     14 C          -2.7220   -2.1084   -0.1691 C.ar    1  LIG1        0.1650
     15 C          -4.1387   -2.1350   -0.2298 C.ar    1  LIG1        0.0945
     16 C          -4.5737   -0.8175   -0.0830 C.ar    1  LIG1        0.0916
     17 N          -3.4637   -0.0228    0.0530 N.ar    1  LIG1       -0.3473
     18 H          -3.5108    0.9663    0.2419 H       1  LIG1        0.1662
     19 O          -1.9304   -3.2211   -0.3064 O.3     1  LIG1       -0.5030
     20 H          -1.0484   -2.9216   -0.5761 H       1  LIG1        0.2923
     21 N          -5.0151   -3.2536   -0.4203 N.pl3   1  LIG1       -0.3534
     22 H          -4.7610   -3.7551   -1.2700 H       1  LIG1        0.1425
     23 H          -4.8995   -3.9241    0.3382 H       1  LIG1        0.1425
     24 C          -5.9039   -0.2788   -0.0656 C.ar    1  LIG1        0.1087
     25 C          -6.3625    1.0204    0.0886 C.ar    1  LIG1        0.1643
     26 C          -7.7783    1.0125    0.0256 C.ar    1  LIG1        0.0849
     27 C          -8.1638   -0.3091   -0.1690 C.ar    1  LIG1        0.0267
     28 N          -7.0299   -1.0706   -0.2206 N.ar    1  LIG1       -0.3549
     29 H          -6.9367   -2.0706   -0.3594 H       1  LIG1        0.1655
     30 H          -9.1455   -0.7477   -0.2700 H       1  LIG1        0.0827
     31 O          -5.5888    2.1333    0.2729 O.3     1  LIG1       -0.5031
     32 H          -6.2269    2.8635    0.3597 H       1  LIG1        0.2923
     33 N          -8.5136    2.2311    0.1608 N.pl3   1  LIG1       -0.3540
     34 H          -9.0630    2.4399   -0.6685 H       1  LIG1        0.1425
     35 H          -9.1531    2.2061    0.9503 H       1  LIG1        0.1425
@<TRIPOS>BOND
     1    11    10    1
     2    22    21    1
     3    10     3    1
     4    10    12    1
     5     9     8    1
     6    34    33    1
     7    20    19    1
     8    21    15    1
     9    21    23    1
    10    29    28    1
    11    19    14    1
    12    30    27    1
    13    15    14   ar
    14    15    16   ar
    15     3     2   ar
    16     3     4   ar
    17     8     2    1
    18    28    27   ar
    19    28    24   ar
    20    14    13   ar
    21    27    26   ar
    22    16    24    1
    23    16    17   ar
    24    24    25   ar
    25    13    17   ar
    26    13     4    1
    27    26    25   ar
    28    26    33    1
    29     2     1   ar
    30    17    18    1
    31    25    31    1
    32     4     5   ar
    33    33    35    1
    34    31    32    1
    35     5     1   ar
    36     5     6    1
    37     1     7    1
