@<TRIPOS>MOLECULE
mol_data/opt/b3lyp/geoms/mol2/13fh13fh13fh.out
 35 37 0 0 0
SMALL
GASTEIGER

@<TRIPOS>ATOM
      1 C           1.2906   -0.1332   -0.8101 C.ar    1  LIG1        0.0461
      2 C           0.9464    1.0572   -0.2179 C.ar    1  LIG1        0.1554
      3 C          -0.4366    1.0086    0.1303 C.ar    1  LIG1        0.0938
      4 C          -0.9236   -0.2271   -0.2731 C.ar    1  LIG1        0.0912
      5 N           0.1468   -0.9358   -0.8036 N.ar    1  LIG1       -0.3549
      6 H           0.0075   -1.6545   -1.4982 H       1  LIG1        0.1655
      7 H           2.2310   -0.4883   -1.1996 H       1  LIG1        0.0845
      8 O           1.7443    2.1246    0.0515 O.3     1  LIG1       -0.5035
      9 H           1.1319    2.7971    0.4004 H       1  LIG1        0.2923
     10 N          -1.0623    2.1024    0.7961 N.pl3   1  LIG1       -0.3535
     11 H          -1.9894    2.2716    0.4104 H       1  LIG1        0.1425
     12 H          -1.1893    1.9074    1.7878 H       1  LIG1        0.1425
     13 C          -2.2535   -0.7781   -0.1882 C.ar    1  LIG1        0.1092
     14 C          -3.5007   -0.1717   -0.2286 C.ar    1  LIG1        0.1650
     15 C          -4.5063   -1.1628   -0.1217 C.ar    1  LIG1        0.0945
     16 C          -3.8667   -2.3981   -0.0298 C.ar    1  LIG1        0.0916
     17 N          -2.5084   -2.1442   -0.0633 N.ar    1  LIG1       -0.3473
     18 H          -1.7892   -2.8485   -0.0624 H       1  LIG1        0.1662
     19 O          -3.7647    1.1602   -0.3674 O.3     1  LIG1       -0.5030
     20 H          -4.7337    1.2060   -0.4610 H       1  LIG1        0.2923
     21 N          -5.8875   -0.8113   -0.1411 N.pl3   1  LIG1       -0.3534
     22 H          -6.4125   -1.4562   -0.7289 H       1  LIG1        0.1425
     23 H          -6.2956   -0.8684    0.7903 H       1  LIG1        0.1425
     24 C          -4.4206   -3.7254    0.0848 C.ar    1  LIG1        0.1087
     25 C          -5.5959   -4.2677   -0.4078 C.ar    1  LIG1        0.1643
     26 C          -5.6743   -5.6343   -0.0206 C.ar    1  LIG1        0.0849
     27 C          -4.5348   -5.9161    0.7098 C.ar    1  LIG1        0.0267
     28 N          -3.7728   -4.7717    0.7466 N.ar    1  LIG1       -0.3549
     29 H          -3.0260   -4.6189    1.4057 H       1  LIG1        0.1655
     30 H          -4.2080   -6.8263    1.1901 H       1  LIG1        0.0827
     31 O          -6.5305   -3.6488   -1.1848 O.3     1  LIG1       -0.5031
     32 H          -7.1890   -4.3426   -1.3717 H       1  LIG1        0.2923
     33 N          -6.7809   -6.4330   -0.4439 N.pl3   1  LIG1       -0.3540
     34 H          -6.4880   -7.2278   -1.0049 H       1  LIG1        0.1425
     35 H          -7.3173   -6.7924    0.3409 H       1  LIG1        0.1425
@<TRIPOS>BOND
     1     6     5    1
     2    32    31    1
     3     7     1    1
     4    31    25    1
     5    34    33    1
     6     1     5   ar
     7     1     2   ar
     8     5     4   ar
     9    22    21    1
    10    20    19    1
    11    33    26    1
    12    33    35    1
    13    25    26   ar
    14    25    24   ar
    15    19    14    1
    16     4    13    1
    17     4     3   ar
    18    14    13   ar
    19    14    15   ar
    20     2     8    1
    21     2     3   ar
    22    13    17   ar
    23    21    15    1
    24    21    23    1
    25    15    16   ar
    26    17    18    1
    27    17    16   ar
    28    16    24    1
    29    26    27   ar
    30     8     9    1
    31    24    28   ar
    32     3    10    1
    33    11    10    1
    34    27    28   ar
    35    27    30    1
    36    28    29    1
    37    10    12    1
