@<TRIPOS>MOLECULE
mol_data/opt/b3lyp/geoms/mol2/13fh13fh-13fh13fh-.out
 46 49 0 0 0
SMALL
GASTEIGER

@<TRIPOS>ATOM
      1 C           1.3659   -0.2777    0.4242 C.ar    1  LIG1        0.0461
      2 C           1.0473    0.9285   -0.1478 C.ar    1  LIG1        0.1554
      3 C          -0.3655    0.9764   -0.3560 C.ar    1  LIG1        0.0938
      4 C          -0.8950   -0.2280    0.0923 C.ar    1  LIG1        0.0912
      5 N           0.1757   -1.0036    0.5239 N.ar    1  LIG1       -0.3549
      6 H           0.0418   -1.7270    1.2154 H       1  LIG1        0.1655
      7 H           2.3137   -0.6973    0.7194 H       1  LIG1        0.0845
      8 O           1.8885    1.9283   -0.5186 O.3     1  LIG1       -0.5035
      9 H           1.3172    2.5670   -0.9815 H       1  LIG1        0.2923
     10 N          -0.9605    2.0957   -1.0123 N.pl3   1  LIG1       -0.3535
     11 H          -1.5808    1.8218   -1.7691 H       1  LIG1        0.1425
     12 H          -1.4812    2.6990   -0.3806 H       1  LIG1        0.1425
     13 C          -2.2352   -0.7544    0.1047 C.ar    1  LIG1        0.1092
     14 C          -2.6676   -2.0783    0.0834 C.ar    1  LIG1        0.1650
     15 C          -4.0848   -2.0968    0.0805 C.ar    1  LIG1        0.0945
     16 C          -4.5053   -0.7653    0.0891 C.ar    1  LIG1        0.0916
     17 N          -3.3832    0.0271    0.0947 N.ar    1  LIG1       -0.3473
     18 H          -3.4144    1.0322    0.1617 H       1  LIG1        0.1662
     19 O          -1.8863   -3.2082    0.0473 O.3     1  LIG1       -0.5030
     20 H          -1.0396   -2.9665   -0.3581 H       1  LIG1        0.2923
     21 N          -4.9725   -3.2193    0.0574 N.pl3   1  LIG1       -0.3534
     22 H          -4.6526   -3.9000   -0.6288 H       1  LIG1        0.1425
     23 H          -4.9589   -3.7045    0.9535 H       1  LIG1        0.1425
     24 C          -5.8269   -0.2115    0.0855 C.ar    1  LIG1        0.1092
     25 C          -6.2609    1.1066    0.1139 C.ar    1  LIG1        0.1650
     26 C          -7.6735    1.1238    0.0953 C.ar    1  LIG1        0.0945
     27 C          -8.1013   -0.2129    0.0509 C.ar    1  LIG1        0.0916
     28 N          -6.9699   -0.9921    0.0410 N.ar    1  LIG1       -0.3473
     29 H          -6.9316   -2.0055    0.0539 H       1  LIG1        0.1662
     30 O          -5.4593    2.2143    0.1424 O.3     1  LIG1       -0.5030
     31 H          -6.0739    2.9679    0.1101 H       1  LIG1        0.2923
     32 N          -8.3854    2.3614    0.0984 N.pl3   1  LIG1       -0.3534
     33 H          -9.0278    2.4625   -0.6820 H       1  LIG1        0.1425
     34 H          -8.8825    2.5469    0.9655 H       1  LIG1        0.1425
     35 C          -9.4154   -0.7974   -0.0063 C.ar    1  LIG1        0.1087
     36 C          -9.8038   -2.1138   -0.2405 C.ar    1  LIG1        0.1643
     37 C         -11.2217   -2.1990   -0.1793 C.ar    1  LIG1        0.0849
     38 C         -11.6814   -0.9207    0.0831 C.ar    1  LIG1        0.0267
     39 N         -10.5829   -0.0815    0.1570 N.ar    1  LIG1       -0.3549
     40 H         -10.6114    0.8844    0.4327 H       1  LIG1        0.1655
     41 H         -12.6848   -0.5473    0.2155 H       1  LIG1        0.0827
     42 O          -8.9696   -3.1978   -0.4733 O.3     1  LIG1       -0.5031
     43 H          -8.5822   -3.1054   -1.3558 H       1  LIG1        0.2923
     44 N         -11.9580   -3.3897   -0.3058 N.pl3   1  LIG1       -0.3540
     45 H         -12.7781   -3.2947   -0.8930 H       1  LIG1        0.1425
     46 H         -11.3691   -4.1371   -0.6559 H       1  LIG1        0.1425
@<TRIPOS>BOND
     1    11    10    1
     2    43    42    1
     3    10    12    1
     4    10     3    1
     5     9     8    1
     6    45    44    1
     7    33    32    1
     8    46    44    1
     9    22    21    1
    10     8     2    1
    11    42    36    1
    12    20    19    1
    13     3     2   ar
    14     3     4   ar
    15    44    37    1
    16    36    37   ar
    17    36    35   ar
    18    37    38   ar
    19     2     1   ar
    20    35    27    1
    21    35    39   ar
    22    28    27   ar
    23    28    29    1
    24    28    24   ar
    25    19    14    1
    26    27    26   ar
    27    21    15    1
    28    21    23    1
    29    15    14   ar
    30    15    16   ar
    31    38    39   ar
    32    38    41    1
    33    14    13   ar
    34    24    16    1
    35    24    25   ar
    36    16    17   ar
    37     4    13    1
    38     4     5   ar
    39    17    13   ar
    40    17    18    1
    41    26    32    1
    42    26    25   ar
    43    32    34    1
    44    31    30    1
    45    25    30    1
    46    39    40    1
    47     1     5   ar
    48     1     7    1
    49     5     6    1
