@<TRIPOS>MOLECULE
mol_data/opt/b3lyp/geoms/mol2/13fh13fh-4fh13fh.out
 48 51 0 0 0
SMALL
GASTEIGER

@<TRIPOS>ATOM
      1 C           1.4133   -0.3845    0.4102 C.ar    1  LIG1        0.0461
      2 C           1.0550    0.9438    0.3117 C.ar    1  LIG1        0.1554
      3 C          -0.3542    1.0185    0.1416 C.ar    1  LIG1        0.0938
      4 C          -0.8408   -0.2919    0.1343 C.ar    1  LIG1        0.0912
      5 N           0.2471   -1.1192    0.2885 N.ar    1  LIG1       -0.3549
      6 H           0.1533   -2.1186    0.3858 H       1  LIG1        0.1655
      7 H           2.3747   -0.8520    0.5467 H       1  LIG1        0.0845
      8 O           1.8725    2.0307    0.3536 O.3     1  LIG1       -0.5035
      9 H           1.2750    2.7874    0.2214 H       1  LIG1        0.2923
     10 N          -1.0059    2.2810   -0.0030 N.pl3   1  LIG1       -0.3535
     11 H          -1.5389    2.3622   -0.8643 H       1  LIG1        0.1425
     12 H          -1.6157    2.5108    0.7772 H       1  LIG1        0.1425
     13 C          -2.1675   -0.8309   -0.0096 C.ar    1  LIG1        0.1091
     14 C          -2.5854   -2.1517   -0.1637 C.ar    1  LIG1        0.1650
     15 C          -3.9951   -2.1830   -0.2603 C.ar    1  LIG1        0.0931
     16 C          -4.4438   -0.8564   -0.1699 C.ar    1  LIG1        0.0751
     17 N          -3.3076   -0.0714   -0.0305 N.ar    1  LIG1       -0.3485
     18 H          -3.3501    0.9339    0.0110 H       1  LIG1        0.1661
     19 O          -1.7567   -3.2708   -0.1852 O.3     1  LIG1       -0.5030
     20 H          -1.5161   -3.4487   -1.1064 H       1  LIG1        0.2923
     21 N          -4.7642   -3.3628   -0.3872 N.pl3   1  LIG1       -0.3535
     22 H          -5.3181   -3.3727   -1.2396 H       1  LIG1        0.1425
     23 H          -4.1477   -4.1700   -0.3895 H       1  LIG1        0.1425
     24 C          -6.0671    1.0791   -0.3217 C.ar    1  LIG1        0.1267
     25 C          -7.3659    1.5638   -0.2986 C.ar    1  LIG1       -0.0085
     26 C          -5.7883   -0.2992   -0.1705 C.ar    1  LIG1        0.0434
     27 C          -8.4817    0.7242   -0.1219 C.ar    1  LIG1        0.0260
     28 H          -7.5345    2.6321   -0.4020 H       1  LIG1        0.0661
     29 C          -6.9137   -1.1348   -0.0187 C.ar    1  LIG1       -0.0277
     30 C          -8.2231   -0.6639    0.0011 C.ar    1  LIG1        0.0347
     31 H          -6.7415   -2.1984    0.1134 H       1  LIG1        0.0644
     32 O          -5.0050    1.9566   -0.4808 O.3     1  LIG1       -0.5061
     33 H          -5.3632    2.8493   -0.5680 H       1  LIG1        0.2922
     34 N          -9.3127   -1.5844    0.1772 N.pl3   1  LIG1       -0.3574
     35 H          -9.8718   -1.6473   -0.6725 H       1  LIG1        0.1423
     36 H          -8.9594   -2.5147    0.3792 H       1  LIG1        0.1423
     37 C          -9.8112    1.3124   -0.0401 C.ar    1  LIG1        0.0923
     38 C         -10.2684    2.5957   -0.3333 C.ar    1  LIG1        0.1629
     39 C         -11.6439    2.6829   -0.0023 C.ar    1  LIG1        0.0848
     40 C         -12.0177    1.4448    0.5007 C.ar    1  LIG1        0.0267
     41 N         -10.9209    0.6358    0.4623 N.ar    1  LIG1       -0.3560
     42 H         -10.8281   -0.3075    0.8202 H       1  LIG1        0.1655
     43 H         -12.9705    1.0893    0.8650 H       1  LIG1        0.0827
     44 O          -9.5601    3.6381   -0.8537 O.3     1  LIG1       -0.5031
     45 H         -10.2147    4.3581   -0.9178 H       1  LIG1        0.2923
     46 N         -12.3569    3.9021   -0.2235 N.pl3   1  LIG1       -0.3540
     47 H         -13.1217    3.7860   -0.8828 H       1  LIG1        0.1425
     48 H         -12.7487    4.2784    0.6354 H       1  LIG1        0.1425
@<TRIPOS>BOND
     1    22    21    1
     2    20    19    1
     3    45    44    1
     4    47    46    1
     5    11    10    1
     6    44    38    1
     7    35    34    1
     8    33    32    1
     9    32    24    1
    10    28    25    1
    11    23    21    1
    12    21    15    1
    13    38    37   ar
    14    38    39   ar
    15    24    25   ar
    16    24    26   ar
    17    25    27   ar
    18    15    16   ar
    19    15    14   ar
    20    46    39    1
    21    46    48    1
    22    19    14    1
    23    26    16    1
    24    26    29   ar
    25    16    17   ar
    26    14    13   ar
    27    27    37    1
    28    27    30   ar
    29    37    41   ar
    30    17    13   ar
    31    17    18    1
    32    29    30   ar
    33    29    31    1
    34    13     4    1
    35    10     3    1
    36    10    12    1
    37    39    40   ar
    38    30    34    1
    39     4     3   ar
    40     4     5   ar
    41     3     2   ar
    42    34    36    1
    43     9     8    1
    44     5     6    1
    45     5     1   ar
    46     2     8    1
    47     2     1   ar
    48     1     7    1
    49    41    40   ar
    50    41    42    1
    51    40    43    1
