@<TRIPOS>MOLECULE
mol_data/opt/b3lyp/geoms/mol2/13fh13fh13fh13fh-.out
 46 49 0 0 0
SMALL
GASTEIGER

@<TRIPOS>ATOM
      1 C           1.2001    0.1065   -1.0297 C.ar    1  LIG1        0.0461
      2 C           0.9088    1.1798   -0.2235 C.ar    1  LIG1        0.1554
      3 C          -0.4383    1.0561    0.2295 C.ar    1  LIG1        0.0938
      4 C          -0.9588   -0.1048   -0.3271 C.ar    1  LIG1        0.0912
      5 N           0.0614   -0.7020   -1.0563 N.ar    1  LIG1       -0.3549
      6 H          -0.1368   -1.3038   -1.8416 H       1  LIG1        0.1655
      7 H           2.1026   -0.1667   -1.5521 H       1  LIG1        0.0845
      8 O           1.7274    2.2004    0.1463 O.3     1  LIG1       -0.5035
      9 H           1.1476    2.8002    0.6492 H       1  LIG1        0.2923
     10 N          -1.0022    2.0176    1.1173 N.pl3   1  LIG1       -0.3535
     11 H          -1.9643    2.2247    0.8563 H       1  LIG1        0.1425
     12 H          -1.0262    1.6683    2.0738 H       1  LIG1        0.1425
     13 C          -2.2735   -0.6849   -0.2178 C.ar    1  LIG1        0.1092
     14 C          -3.5211   -0.1048   -0.0334 C.ar    1  LIG1        0.1650
     15 C          -4.5094   -1.1171   -0.0116 C.ar    1  LIG1        0.0945
     16 C          -3.8603   -2.3393   -0.2016 C.ar    1  LIG1        0.0916
     17 N          -2.5129   -2.0541   -0.3255 N.ar    1  LIG1       -0.3473
     18 H          -1.7860   -2.7407   -0.4398 H       1  LIG1        0.1662
     19 O          -3.8008    1.2257    0.0849 O.3     1  LIG1       -0.5030
     20 H          -4.7745    1.2684    0.0903 H       1  LIG1        0.2923
     21 N          -5.8849   -0.7884    0.1642 N.pl3   1  LIG1       -0.3534
     22 H          -6.4711   -1.3315   -0.4659 H       1  LIG1        0.1425
     23 H          -6.1975   -1.0021    1.1097 H       1  LIG1        0.1425
     24 C          -4.3860   -3.6771   -0.2607 C.ar    1  LIG1        0.1092
     25 C          -5.6251   -4.1552   -0.6381 C.ar    1  LIG1        0.1650
     26 C          -5.6420   -5.5749   -0.5103 C.ar    1  LIG1        0.0945
     27 C          -4.3918   -5.9701   -0.0617 C.ar    1  LIG1        0.0916
     28 N          -3.6065   -4.8129    0.0423 N.ar    1  LIG1       -0.3473
     29 H          -2.9215   -4.7639    0.7862 H       1  LIG1        0.1662
     30 O          -6.6679   -3.4429   -1.1492 O.3     1  LIG1       -0.5030
     31 H          -7.2821   -4.1119   -1.5019 H       1  LIG1        0.2923
     32 N          -6.7682   -6.3233   -0.9603 N.pl3   1  LIG1       -0.3534
     33 H          -6.4885   -7.1812   -1.4278 H       1  LIG1        0.1425
     34 H          -7.3996   -6.5733   -0.2028 H       1  LIG1        0.1425
     35 C          -3.8156   -7.2628    0.1985 C.ar    1  LIG1        0.1087
     36 C          -2.4924   -7.6662    0.0936 C.ar    1  LIG1        0.1643
     37 C          -2.3999   -9.0475    0.4278 C.ar    1  LIG1        0.0849
     38 C          -3.6813   -9.4613    0.7341 C.ar    1  LIG1        0.0267
     39 N          -4.5500   -8.3955    0.5342 N.ar    1  LIG1       -0.3549
     40 H          -5.4374   -8.3284    1.0077 H       1  LIG1        0.1655
     41 H          -4.0463  -10.4281    1.0450 H       1  LIG1        0.0827
     42 O          -1.4120   -6.9301   -0.3268 O.3     1  LIG1       -0.5031
     43 H          -1.7518   -6.1586   -0.8050 H       1  LIG1        0.2923
     44 N          -1.1998   -9.7739    0.4545 N.pl3   1  LIG1       -0.3540
     45 H          -1.3110  -10.7421    0.1792 H       1  LIG1        0.1425
     46 H          -0.4890   -9.3322   -0.1177 H       1  LIG1        0.1425
@<TRIPOS>BOND
     1     6     5    1
     2     7     1    1
     3    31    30    1
     4    33    32    1
     5    30    25    1
     6     5     1   ar
     7     5     4   ar
     8     1     2   ar
     9    32    26    1
    10    32    34    1
    11    43    42    1
    12    25    26   ar
    13    25    24   ar
    14    26    27   ar
    15    22    21    1
    16    18    17    1
    17     4    13    1
    18     4     3   ar
    19    42    36    1
    20    17    13   ar
    21    17    16   ar
    22    24    16    1
    23    24    28   ar
    24     2     8    1
    25     2     3   ar
    26    13    14   ar
    27    16    15   ar
    28    46    44    1
    29    27    28   ar
    30    27    35    1
    31    14    15   ar
    32    14    19    1
    33    15    21    1
    34    28    29    1
    35    19    20    1
    36    36    35   ar
    37    36    37   ar
    38     8     9    1
    39    21    23    1
    40    45    44    1
    41    35    39   ar
    42     3    10    1
    43    37    44    1
    44    37    38   ar
    45    39    38   ar
    46    39    40    1
    47    38    41    1
    48    11    10    1
    49    10    12    1
