@<TRIPOS>MOLECULE
mol_data/opt/b3lyp/geoms/mol2/13fh13fh-13fh-13fh.out
 46 49 0 0 0
SMALL
GASTEIGER

@<TRIPOS>ATOM
      1 C           1.3131   -0.4731    0.8791 C.ar    1  LIG1        0.0461
      2 C           1.0992    0.7666    0.3336 C.ar    1  LIG1        0.1554
      3 C          -0.2787    0.8730   -0.0369 C.ar    1  LIG1        0.0938
      4 C          -0.8916   -0.3297    0.2851 C.ar    1  LIG1        0.0912
      5 N           0.0992   -1.1668    0.7992 N.ar    1  LIG1       -0.3549
      6 H          -0.1443   -1.8796    1.4726 H       1  LIG1        0.1655
      7 H           2.2079   -0.9376    1.2601 H       1  LIG1        0.0845
      8 O           2.0067    1.7501    0.1041 O.3     1  LIG1       -0.5035
      9 H           1.5251    2.4083   -0.4280 H       1  LIG1        0.2923
     10 N          -0.7513    2.0257   -0.7317 N.pl3   1  LIG1       -0.3535
     11 H          -1.3563    1.7775   -1.5096 H       1  LIG1        0.1425
     12 H          -1.2705    2.6606   -0.1300 H       1  LIG1        0.1425
     13 C          -2.2304   -0.8254    0.0923 C.ar    1  LIG1        0.1092
     14 C          -2.6545   -2.1074   -0.2184 C.ar    1  LIG1        0.1650
     15 C          -4.0681   -2.1027   -0.3504 C.ar    1  LIG1        0.0945
     16 C          -4.5062   -0.7996   -0.1201 C.ar    1  LIG1        0.0916
     17 N          -3.3786   -0.0197    0.0884 N.ar    1  LIG1       -0.3473
     18 H          -3.4250    0.8245    0.6393 H       1  LIG1        0.1662
     19 O          -1.8882   -3.2209   -0.4285 O.3     1  LIG1       -0.5030
     20 H          -0.9626   -2.9350   -0.4830 H       1  LIG1        0.2923
     21 N          -4.9145   -3.2058   -0.7010 N.pl3   1  LIG1       -0.3534
     22 H          -4.9062   -3.3719   -1.7074 H       1  LIG1        0.1425
     23 H          -4.5681   -4.0595   -0.2685 H       1  LIG1        0.1425
     24 C          -5.8315   -0.2521   -0.0974 C.ar    1  LIG1        0.1092
     25 C          -7.0743   -0.8808    0.0311 C.ar    1  LIG1        0.1650
     26 C          -8.0727    0.1294    0.0847 C.ar    1  LIG1        0.0945
     27 C          -7.4296    1.3603   -0.0176 C.ar    1  LIG1        0.0916
     28 N          -6.0777    1.1249   -0.0917 N.ar    1  LIG1       -0.3473
     29 H          -5.4342    1.8310   -0.4178 H       1  LIG1        0.1662
     30 O          -7.3502   -2.1992    0.1301 O.3     1  LIG1       -0.5030
     31 H          -6.5366   -2.7062   -0.1384 H       1  LIG1        0.2923
     32 N          -9.4909   -0.0295    0.2271 N.pl3   1  LIG1       -0.3534
     33 H          -9.8304   -0.6890   -0.4715 H       1  LIG1        0.1425
     34 H          -9.7034   -0.4599    1.1267 H       1  LIG1        0.1425
     35 C          -7.9787    2.6836   -0.0803 C.ar    1  LIG1        0.1087
     36 C          -7.3775    3.9234   -0.2394 C.ar    1  LIG1        0.1643
     37 C          -8.3873    4.9171   -0.2653 C.ar    1  LIG1        0.0849
     38 C          -9.6032    4.2579   -0.1204 C.ar    1  LIG1        0.0267
     39 N          -9.3418    2.9216   -0.0096 N.ar    1  LIG1       -0.3549
     40 H          -9.9891    2.1460    0.0867 H       1  LIG1        0.1655
     41 H         -10.6119    4.6426   -0.0872 H       1  LIG1        0.0827
     42 O          -6.0365    4.1638   -0.3644 O.3     1  LIG1       -0.5031
     43 H          -5.9737    5.1278   -0.4868 H       1  LIG1        0.2923
     44 N          -8.0399    6.2949   -0.4245 N.pl3   1  LIG1       -0.3540
     45 H          -8.4802    6.7075   -1.2422 H       1  LIG1        0.1425
     46 H          -8.3115    6.8530    0.3805 H       1  LIG1        0.1425
@<TRIPOS>BOND
     1    22    21    1
     2    11    10    1
     3    45    44    1
     4    10    12    1
     5    10     3    1
     6    21    15    1
     7    21    23    1
     8    43    42    1
     9    20    19    1
    10    33    32    1
    11    19    14    1
    12     9     8    1
    13    44    37    1
    14    44    46    1
    15    29    28    1
    16    42    36    1
    17    15    14   ar
    18    15    16   ar
    19    37    36   ar
    20    37    38   ar
    21    36    35   ar
    22    14    13   ar
    23    31    30    1
    24    38    41    1
    25    38    39   ar
    26    16    24    1
    27    16    17   ar
    28    24    28   ar
    29    24    25   ar
    30    28    27   ar
    31    35    27    1
    32    35    39   ar
    33     3     4   ar
    34     3     2   ar
    35    27    26   ar
    36    39    40    1
    37    25    26   ar
    38    25    30    1
    39    26    32    1
    40    17    13   ar
    41    17    18    1
    42    13     4    1
    43     8     2    1
    44    32    34    1
    45     4     5   ar
    46     2     1   ar
    47     5     1   ar
    48     5     6    1
    49     1     7    1
