@<TRIPOS>MOLECULE
mol_data/opt/b3lyp/geoms/mol2/13fi13fi13fi13fi-.out
 50 53 0 0 0
SMALL
GASTEIGER

@<TRIPOS>ATOM
      1 C           0.6636    0.2156   -1.9624 C.ar    1  LIG1        0.0445
      2 C           0.7301    1.0738   -0.8899 C.ar    1  LIG1        0.1376
      3 C          -0.4331    0.8980   -0.0783 C.ar    1  LIG1        0.0178
      4 C          -1.2022   -0.0772   -0.7027 C.ar    1  LIG1        0.0730
      5 N          -0.5068   -0.5138   -1.8195 N.ar    1  LIG1       -0.3561
      6 H          -0.9562   -0.9948   -2.5826 H       1  LIG1        0.1655
      7 H           1.3532    0.0479   -2.7739 H       1  LIG1        0.0844
      8 O           1.7877    1.9090   -0.6363 O.3     1  LIG1       -0.5050
      9 H           1.5413    2.4854    0.0977 H       1  LIG1        0.2922
     10 C          -0.7120    1.5922    1.2208 C.3     1  LIG1       -0.0342
     11 H          -1.4153    1.0154    1.8257 H       1  LIG1        0.0279
     12 H          -1.1577    2.5852    1.0818 H       1  LIG1        0.0279
     13 H           0.2058    1.7181    1.8115 H       1  LIG1        0.0279
     14 C          -2.4754   -0.6659   -0.3449 C.ar    1  LIG1        0.1060
     15 C          -3.6569   -0.1199    0.1403 C.ar    1  LIG1        0.1470
     16 C          -4.6353   -1.1426    0.2758 C.ar    1  LIG1        0.0185
     17 C          -4.0338   -2.3243   -0.1577 C.ar    1  LIG1        0.0735
     18 N          -2.7374   -2.0201   -0.5208 N.ar    1  LIG1       -0.3486
     19 H          -2.0620   -2.6863   -0.8587 H       1  LIG1        0.1661
     20 O          -3.8124    1.2099    0.4388 O.3     1  LIG1       -0.5043
     21 H          -4.7517    1.3726    0.5911 H       1  LIG1        0.2922
     22 C          -6.0218   -0.9630    0.8174 C.3     1  LIG1       -0.0342
     23 H          -6.4060   -1.9014    1.2237 H       1  LIG1        0.0279
     24 H          -6.7385   -0.6358    0.0540 H       1  LIG1        0.0279
     25 H          -6.0355   -0.2230    1.6289 H       1  LIG1        0.0279
     26 C          -4.5256   -3.6831   -0.2202 C.ar    1  LIG1        0.1060
     27 C          -5.7550   -4.2149   -0.5911 C.ar    1  LIG1        0.1470
     28 C          -5.6950   -5.6350   -0.5337 C.ar    1  LIG1        0.0185
     29 C          -4.3942   -5.9543   -0.1342 C.ar    1  LIG1        0.0735
     30 N          -3.7078   -4.7728    0.0387 N.ar    1  LIG1       -0.3486
     31 H          -2.8052   -4.7398    0.4915 H       1  LIG1        0.1661
     32 O          -6.8481   -3.4568   -0.9444 O.3     1  LIG1       -0.5043
     33 H          -7.2656   -3.8627   -1.7149 H       1  LIG1        0.2922
     34 C          -6.8325   -6.5653   -0.8392 C.3     1  LIG1       -0.0342
     35 H          -6.9946   -7.2965   -0.0368 H       1  LIG1        0.0279
     36 H          -6.6996   -7.1222   -1.7777 H       1  LIG1        0.0279
     37 H          -7.7675   -6.0029   -0.9307 H       1  LIG1        0.0279
     38 C          -3.7378   -7.2102    0.1320 C.ar    1  LIG1        0.1055
     39 C          -2.4694   -7.4571    0.6447 C.ar    1  LIG1        0.1463
     40 C          -2.2597   -8.8599    0.7455 C.ar    1  LIG1        0.0090
     41 C          -3.4239   -9.4468    0.2843 C.ar    1  LIG1        0.0087
     42 N          -4.3013   -8.4578   -0.0824 N.ar    1  LIG1       -0.3563
     43 H          -5.2072   -8.6083   -0.4915 H       1  LIG1        0.1655
     44 H          -3.6832  -10.4907    0.1895 H       1  LIG1        0.0811
     45 O          -1.5778   -6.4481    0.9552 O.3     1  LIG1       -0.5043
     46 H          -0.9816   -6.7605    1.6474 H       1  LIG1        0.2922
     47 C          -1.0237   -9.5424    1.2513 C.3     1  LIG1       -0.0348
     48 H          -0.8228   -9.3147    2.3073 H       1  LIG1        0.0279
     49 H          -0.1335   -9.2487    0.6813 H       1  LIG1        0.0279
     50 H          -1.1176  -10.6289    1.1742 H       1  LIG1        0.0279
@<TRIPOS>BOND
     1     7     1    1
     2     6     5    1
     3     1     5   ar
     4     1     2   ar
     5     5     4   ar
     6    36    34    1
     7    33    32    1
     8    32    27    1
     9    37    34    1
    10     2     8    1
    11     2     3   ar
    12    19    18    1
    13    34    28    1
    14    34    35    1
    15     4    14    1
    16     4     3   ar
    17     8     9    1
    18    27    28   ar
    19    27    26   ar
    20    28    29   ar
    21    18    14   ar
    22    18    17   ar
    23    43    42    1
    24    14    15   ar
    25    26    17    1
    26    26    30   ar
    27    17    16   ar
    28    29    30   ar
    29    29    38    1
    30    42    38   ar
    31    42    41   ar
    32     3    10    1
    33    30    31    1
    34    24    22    1
    35    38    39   ar
    36    15    16   ar
    37    15    20    1
    38    44    41    1
    39    16    22    1
    40    41    40   ar
    41    20    21    1
    42    39    40   ar
    43    39    45    1
    44    49    47    1
    45    40    47    1
    46    22    23    1
    47    22    25    1
    48    45    46    1
    49    12    10    1
    50    50    47    1
    51    10    13    1
    52    10    11    1
    53    47    48    1
