@<TRIPOS>MOLECULE
mol_data/opt/b3lyp/geoms/mol2/13fi13fi13fi.out
 38 40 0 0 0
SMALL
GASTEIGER

@<TRIPOS>ATOM
      1 C           1.1017   -0.1752   -1.1306 C.ar    1  LIG1        0.0445
      2 C           0.8920    0.9646   -0.3905 C.ar    1  LIG1        0.1376
      3 C          -0.4515    0.9637    0.0975 C.ar    1  LIG1        0.0178
      4 C          -1.0414   -0.1992   -0.3830 C.ar    1  LIG1        0.0730
      5 N          -0.0776   -0.9032   -1.0887 N.ar    1  LIG1       -0.3561
      6 H          -0.3143   -1.6104   -1.7668 H       1  LIG1        0.1655
      7 H           1.9820   -0.5308   -1.6413 H       1  LIG1        0.0844
      8 O           1.8582    1.9017   -0.1298 O.3     1  LIG1       -0.5050
      9 H           1.4316    2.6614    0.2856 H       1  LIG1        0.2922
     10 C          -1.0586    1.9927    1.0030 C.3     1  LIG1       -0.0342
     11 H          -1.9122    1.5782    1.5443 H       1  LIG1        0.0279
     12 H          -1.4282    2.8697    0.4571 H       1  LIG1        0.0279
     13 H          -0.3333    2.3449    1.7491 H       1  LIG1        0.0279
     14 C          -2.3767   -0.7336   -0.2156 C.ar    1  LIG1        0.1060
     15 C          -3.6333   -0.1439   -0.2623 C.ar    1  LIG1        0.1470
     16 C          -4.6333   -1.1387   -0.0815 C.ar    1  LIG1        0.0185
     17 C          -3.9624   -2.3527    0.0554 C.ar    1  LIG1        0.0735
     18 N          -2.6098   -2.0903   -0.0189 N.ar    1  LIG1       -0.3486
     19 H          -1.8838   -2.7859    0.0359 H       1  LIG1        0.1661
     20 O          -3.8338    1.2008   -0.4441 O.3     1  LIG1       -0.5043
     21 H          -4.7690    1.3393   -0.6397 H       1  LIG1        0.2922
     22 C          -6.1134   -0.9066   -0.0271 C.3     1  LIG1       -0.0342
     23 H          -6.6057   -1.6826    0.5647 H       1  LIG1        0.0279
     24 H          -6.5816   -0.9230   -1.0189 H       1  LIG1        0.0279
     25 H          -6.3463    0.0597    0.4394 H       1  LIG1        0.0279
     26 C          -4.4593   -3.6931    0.2877 C.ar    1  LIG1        0.1055
     27 C          -5.5150   -4.4010   -0.2664 C.ar    1  LIG1        0.1463
     28 C          -5.5428   -5.7160    0.2893 C.ar    1  LIG1        0.0090
     29 C          -4.4875   -5.7789    1.1776 C.ar    1  LIG1        0.0087
     30 N          -3.8223   -4.5792    1.1562 N.ar    1  LIG1       -0.3563
     31 H          -3.1681   -4.2783    1.8611 H       1  LIG1        0.1655
     32 H          -4.1648   -6.5905    1.8131 H       1  LIG1        0.0811
     33 O          -6.3483   -3.8959   -1.2308 O.3     1  LIG1       -0.5043
     34 H          -6.9616   -4.5925   -1.4959 H       1  LIG1        0.2922
     35 C          -6.5116   -6.8055   -0.0637 C.3     1  LIG1       -0.0348
     36 H          -6.3007   -7.7150    0.5053 H       1  LIG1        0.0279
     37 H          -6.4647   -7.0761   -1.1275 H       1  LIG1        0.0279
     38 H          -7.5499   -6.5225    0.1548 H       1  LIG1        0.0279
@<TRIPOS>BOND
     1     6     5    1
     2     7     1    1
     3    34    33    1
     4    33    27    1
     5     1     5   ar
     6     1     2   ar
     7    37    35    1
     8     5     4   ar
     9    24    22    1
    10    21    20    1
    11    20    15    1
    12     2     8    1
    13     2     3   ar
    14     4    14    1
    15     4     3   ar
    16    27    26   ar
    17    27    28   ar
    18    15    14   ar
    19    15    16   ar
    20    14    18   ar
    21     8     9    1
    22    16    22    1
    23    16    17   ar
    24    35    38    1
    25    35    28    1
    26    35    36    1
    27    22    25    1
    28    22    23    1
    29    18    19    1
    30    18    17   ar
    31    17    26    1
    32     3    10    1
    33    26    30   ar
    34    28    29   ar
    35    12    10    1
    36    10    11    1
    37    10    13    1
    38    30    29   ar
    39    30    31    1
    40    29    32    1
