@<TRIPOS>MOLECULE
mol_data/opt/b3lyp/geoms/mol2/13fi13he13ie-12el-.out
 52 55 0 0 0
SMALL
GASTEIGER

@<TRIPOS>ATOM
      1 C           1.2226   -0.1970   -0.2476 C.ar    1  LIG1        0.0444
      2 C           0.8338    0.9896    0.3318 C.ar    1  LIG1        0.1376
      3 C          -0.5911    1.0149    0.4312 C.ar    1  LIG1        0.0177
      4 C          -1.0423   -0.1875   -0.1122 C.ar    1  LIG1        0.0713
      5 N           0.0692   -0.9210   -0.4882 N.ar    1  LIG1       -0.3562
      6 H           0.0191   -1.7181   -1.1019 H       1  LIG1        0.1655
      7 H           2.2040   -0.5785   -0.4785 H       1  LIG1        0.0844
      8 O           1.7047    1.9569    0.7563 O.3     1  LIG1       -0.5050
      9 H           1.1945    2.6559    1.1839 H       1  LIG1        0.2922
     10 C          -1.3948    2.0879    1.1081 C.3     1  LIG1       -0.0342
     11 H          -2.4468    2.0496    0.8165 H       1  LIG1        0.0279
     12 H          -1.0282    3.0897    0.8444 H       1  LIG1        0.0279
     13 H          -1.3512    2.0065    2.2025 H       1  LIG1        0.0279
     14 C          -2.3779   -0.7252   -0.2818 C.ar    1  LIG1        0.0859
     15 C          -3.5509   -0.1460   -0.7381 C.ar    1  LIG1        0.0679
     16 C          -4.5750   -1.1560   -0.7324 C.ar    1  LIG1        0.0726
     17 C          -3.9939   -2.3396   -0.2621 C.ar    1  LIG1        0.0811
     18 N          -2.6588   -2.0758   -0.0411 N.ar    1  LIG1       -0.3494
     19 H          -2.1008   -2.6259    0.5961 H       1  LIG1        0.1661
     20 N          -3.7439    1.1764   -1.1397 N.pl3   1  LIG1       -0.3553
     21 H          -2.9218    1.5883   -1.5663 H       1  LIG1        0.1424
     22 H          -4.5592    1.2841   -1.7328 H       1  LIG1        0.1424
     23 C          -5.8742   -0.9637   -1.2598 C.1     1  LIG1       -0.0656
     24 C          -6.9625   -0.7293   -1.7407 C.1     1  LIG1       -0.1138
     25 H          -7.9264   -0.5516   -2.1574 H       1  LIG1        0.1232
     26 C          -4.5366   -3.6617   -0.0457 C.ar    1  LIG1        0.0688
     27 C          -5.7492   -4.0960    0.4801 C.ar    1  LIG1       -0.0076
     28 C          -5.7047   -5.5290    0.5096 C.ar    1  LIG1        0.0565
     29 C          -4.4619   -5.9304   -0.0063 C.ar    1  LIG1        0.0997
     30 N          -3.7672   -4.7825   -0.3059 N.ar    1  LIG1       -0.3494
     31 H          -2.9010   -4.7773   -0.8212 H       1  LIG1        0.1661
     32 C          -6.8696   -3.2554    1.0069 C.3     1  LIG1       -0.0365
     33 H          -7.3828   -3.7757    1.8206 H       1  LIG1        0.0279
     34 H          -7.6123   -3.0359    0.2319 H       1  LIG1        0.0279
     35 H          -6.5023   -2.2949    1.3775 H       1  LIG1        0.0279
     36 C          -6.6998   -6.3506    1.0932 C.1     1  LIG1       -0.0672
     37 C          -7.5665   -7.0039    1.6304 C.1     1  LIG1       -0.1138
     38 H          -8.3144   -7.6034    2.0941 H       1  LIG1        0.1232
     39 C          -3.8456   -7.2109   -0.2232 C.ar    1  LIG1        0.1711
     40 C          -4.3000   -8.4895   -0.5061 C.ar    1  LIG1        0.1134
     41 C          -3.1038   -9.3027   -0.6337 C.ar    1  LIG1        0.1736
     42 C          -2.0386   -8.4794   -0.4448 C.ar    1  LIG1        0.1354
     43 O          -2.4731   -7.2021   -0.2042 O.2     1  LIG1       -0.4564
     44 H          -0.9733   -8.6380   -0.4669 H       1  LIG1        0.1068
     45 C          -5.6215   -8.9099   -0.7804 C.1     1  LIG1       -0.0621
     46 C          -6.7365   -9.2996   -1.0466 C.1     1  LIG1       -0.1137
     47 H          -7.7249   -9.6103   -1.2930 H       1  LIG1        0.1232
     48 O          -3.0237  -10.6164   -0.9677 O.3     1  LIG1       -0.4907
     49 C          -3.6881  -11.5187   -0.0736 C.3     1  LIG1        0.0790
     50 H          -3.5308  -12.5178   -0.4830 H       1  LIG1        0.0660
     51 H          -3.2515  -11.4616    0.9310 H       1  LIG1        0.0660
     52 H          -4.7604  -11.3099   -0.0192 H       1  LIG1        0.0660
@<TRIPOS>BOND
     1    25    24    1
     2    24    23    3
     3    22    20    1
     4    21    20    1
     5    47    46    1
     6    23    16    1
     7    20    15    1
     8     6     5    1
     9    46    45    3
    10    48    41    1
    11    48    49    1
    12    31    30    1
    13    45    40    1
    14    15    16   ar
    15    15    14   ar
    16    16    17   ar
    17    41    40   ar
    18    41    42   ar
    19    40    39   ar
    20     5     1   ar
    21     5     4   ar
    22    50    49    1
    23     7     1    1
    24    44    42    1
    25    42    43   ar
    26    30    26   ar
    27    30    29   ar
    28    14     4    1
    29    14    18   ar
    30    17    26    1
    31    17    18   ar
    32     1     2   ar
    33    39    43   ar
    34    39    29    1
    35     4     3   ar
    36    49    52    1
    37    49    51    1
    38    26    27   ar
    39    18    19    1
    40    29    28   ar
    41    34    32    1
    42     2     3   ar
    43     2     8    1
    44     3    10    1
    45    27    28   ar
    46    27    32    1
    47    28    36    1
    48     8     9    1
    49    11    10    1
    50    12    10    1
    51    32    35    1
    52    32    33    1
    53    36    37    3
    54    10    13    1
    55    37    38    1
