@<TRIPOS>MOLECULE
mol_data/opt/b3lyp/geoms/mol2/13fi13ee4hl-12ii-.out
 55 58 0 0 0
SMALL
GASTEIGER

@<TRIPOS>ATOM
      1 C           1.1358   -0.4844    0.3076 C.ar    1  LIG1        0.0444
      2 C           0.7435    0.6717    0.9443 C.ar    1  LIG1        0.1376
      3 C          -0.6747    0.8006    0.8426 C.ar    1  LIG1        0.0177
      4 C          -1.1130   -0.3024    0.1160 C.ar    1  LIG1        0.0706
      5 N          -0.0112   -1.0961   -0.1608 N.ar    1  LIG1       -0.3562
      6 H          -0.0112   -1.7989   -0.8835 H       1  LIG1        0.1655
      7 H           2.1153   -0.9144    0.1732 H       1  LIG1        0.0844
      8 O           1.5998    1.5067    1.6095 O.3     1  LIG1       -0.5050
      9 H           1.1218    2.3145    1.8349 H       1  LIG1        0.2922
     10 C          -1.5017    1.8748    1.4819 C.3     1  LIG1       -0.0342
     11 H          -2.5282    1.5369    1.6427 H       1  LIG1        0.0279
     12 H          -1.5626    2.7810    0.8672 H       1  LIG1        0.0279
     13 H          -1.0917    2.1570    2.4604 H       1  LIG1        0.0279
     14 C          -2.4402   -0.7279   -0.2753 C.ar    1  LIG1        0.0805
     15 C          -3.5329   -0.0334   -0.7931 C.ar    1  LIG1        0.0673
     16 C          -4.5957   -0.9954   -0.9926 C.ar    1  LIG1        0.0660
     17 C          -4.1180   -2.2474   -0.5984 C.ar    1  LIG1        0.0656
     18 N          -2.8138   -2.0542   -0.1939 N.ar    1  LIG1       -0.3510
     19 H          -2.2836   -2.7516    0.3066 H       1  LIG1        0.1660
     20 C          -3.5819    1.3356   -1.1493 C.1     1  LIG1       -0.0662
     21 C          -3.6402    2.5027   -1.4672 C.1     1  LIG1       -0.1138
     22 H          -3.6925    3.5246   -1.7624 H       1  LIG1        0.1232
     23 C          -5.8556   -0.7069   -1.5694 C.1     1  LIG1       -0.0663
     24 C          -6.9420   -0.4543   -2.0439 C.1     1  LIG1       -0.1138
     25 H          -7.8781   -0.2291   -2.4997 H       1  LIG1        0.1232
     26 C          -5.9835   -3.9040   -0.0944 C.ar    1  LIG1        0.0347
     27 C          -6.3976   -5.2460   -0.0991 C.ar    1  LIG1       -0.0262
     28 C          -4.6887   -3.6000   -0.5903 C.ar    1  LIG1        0.0236
     29 C          -5.5885   -6.3034   -0.5338 C.ar    1  LIG1        0.0609
     30 H          -7.4076   -5.4710    0.2308 H       1  LIG1        0.0644
     31 C          -3.8804   -4.6636   -1.0316 C.ar    1  LIG1       -0.0083
     32 C          -4.2939   -5.9887   -1.0063 C.ar    1  LIG1        0.1315
     33 H          -2.8956   -4.4567   -1.4389 H       1  LIG1        0.0661
     34 N          -6.8143   -2.9340    0.4599 N.pl3   1  LIG1       -0.3574
     35 H          -6.7924   -2.0250    0.0145 H       1  LIG1        0.1423
     36 H          -7.7655   -3.2473    0.6005 H       1  LIG1        0.1423
     37 O          -3.4265   -6.9429   -1.4980 O.3     1  LIG1       -0.4944
     38 C          -2.8358   -7.7886   -0.5140 C.3     1  LIG1        0.0788
     39 H          -2.1801   -8.4765   -1.0518 H       1  LIG1        0.0660
     40 H          -2.2406   -7.2058    0.2027 H       1  LIG1        0.0660
     41 H          -3.5873   -8.3667    0.0356 H       1  LIG1        0.0660
     42 C          -6.1103   -7.6721   -0.4979 C.ar    1  LIG1        0.1415
     43 C          -6.8606   -8.3634    0.4254 C.ar    1  LIG1       -0.0017
     44 C          -7.0685   -9.6801   -0.1266 C.ar    1  LIG1       -0.0092
     45 C          -6.4289   -9.6819   -1.3291 C.ar    1  LIG1        0.0957
     46 O          -5.8395   -8.4814   -1.5741 O.2     1  LIG1       -0.4623
     47 H          -6.3096  -10.4316   -2.0968 H       1  LIG1        0.1032
     48 C          -7.3425   -7.8978    1.7672 C.3     1  LIG1       -0.0359
     49 H          -7.1566   -8.6579    2.5345 H       1  LIG1        0.0279
     50 H          -8.4228   -7.7035    1.7702 H       1  LIG1        0.0279
     51 H          -6.8398   -6.9786    2.0770 H       1  LIG1        0.0279
     52 C          -7.8249  -10.8098    0.5039 C.3     1  LIG1       -0.0365
     53 H          -7.8091  -11.6989   -0.1326 H       1  LIG1        0.0279
     54 H          -8.8744  -10.5455    0.6797 H       1  LIG1        0.0279
     55 H          -7.3989  -11.0897    1.4749 H       1  LIG1        0.0279
@<TRIPOS>BOND
     1    25    24    1
     2    47    45    1
     3    24    23    3
     4    22    21    1
     5    46    45   ar
     6    46    42   ar
     7    23    16    1
     8    37    32    1
     9    37    38    1
    10    21    20    3
    11    33    31    1
    12    45    44   ar
    13    20    15    1
    14    39    38    1
    15    31    32   ar
    16    31    28   ar
    17    32    29   ar
    18    16    15   ar
    19    16    17   ar
    20     6     5    1
    21    15    14   ar
    22    17    28    1
    23    17    18   ar
    24    28    26   ar
    25    29    42    1
    26    29    27   ar
    27    38    41    1
    28    38    40    1
    29    42    43   ar
    30    14    18   ar
    31    14     4    1
    32    18    19    1
    33     5     4   ar
    34     5     1   ar
    35    53    52    1
    36    44    43   ar
    37    44    52    1
    38    27    26   ar
    39    27    30    1
    40    26    34    1
    41    35    34    1
    42     4     3   ar
    43     7     1    1
    44     1     2   ar
    45    43    48    1
    46    34    36    1
    47    52    54    1
    48    52    55    1
    49     3     2   ar
    50     3    10    1
    51    12    10    1
    52     2     8    1
    53    10    11    1
    54    10    13    1
    55     8     9    1
    56    48    50    1
    57    48    51    1
    58    48    49    1
