@<TRIPOS>MOLECULE
mol_data/opt/b3lyp/geoms/mol2/13fi13fi-4fi13fi.out
 52 55 0 0 0
SMALL
GASTEIGER

@<TRIPOS>ATOM
      1 C           1.4250   -0.3244   -0.1109 C.ar    1  LIG1        0.0445
      2 C           1.0576    0.9871    0.1101 C.ar    1  LIG1        0.1376
      3 C          -0.3635    1.0643    0.1795 C.ar    1  LIG1        0.0178
      4 C          -0.8318   -0.2395   -0.0174 C.ar    1  LIG1        0.0730
      5 N           0.2630   -1.0566   -0.1807 N.ar    1  LIG1       -0.3561
      6 H           0.1770   -2.0519   -0.3222 H       1  LIG1        0.1655
      7 H           2.4004   -0.7709   -0.2162 H       1  LIG1        0.0844
      8 O           1.9540    2.0153    0.2817 O.3     1  LIG1       -0.5050
      9 H           1.5281    2.8356    0.0039 H       1  LIG1        0.2922
     10 C          -1.1623    2.3062    0.4495 C.3     1  LIG1       -0.0342
     11 H          -1.9307    2.1405    1.2136 H       1  LIG1        0.0279
     12 H          -1.6654    2.7050   -0.4429 H       1  LIG1        0.0279
     13 H          -0.5164    3.1038    0.8348 H       1  LIG1        0.0279
     14 C          -2.1609   -0.7983   -0.0578 C.ar    1  LIG1        0.1059
     15 C          -2.5648   -2.1293   -0.1309 C.ar    1  LIG1        0.1469
     16 C          -3.9767   -2.2015   -0.1630 C.ar    1  LIG1        0.0170
     17 C          -4.4375   -0.8760   -0.0954 C.ar    1  LIG1        0.0570
     18 N          -3.3212   -0.0622   -0.0387 N.ar    1  LIG1       -0.3498
     19 H          -3.3852    0.9410   -0.1057 H       1  LIG1        0.1661
     20 O          -1.6751   -3.1878   -0.2341 O.3     1  LIG1       -0.5043
     21 H          -1.9334   -3.8715    0.3976 H       1  LIG1        0.2922
     22 C          -4.7424   -3.4835   -0.3122 C.3     1  LIG1       -0.0342
     23 H          -4.0902   -4.2548   -0.7364 H       1  LIG1        0.0279
     24 H          -5.5965   -3.3710   -0.9868 H       1  LIG1        0.0279
     25 H          -5.1298   -3.8733    0.6393 H       1  LIG1        0.0279
     26 C          -6.0974    1.0133   -0.3980 C.ar    1  LIG1        0.1266
     27 C          -7.4043    1.4758   -0.4019 C.ar    1  LIG1       -0.0100
     28 C          -5.7914   -0.3310   -0.0803 C.ar    1  LIG1        0.0404
     29 C          -8.4980    0.6538   -0.0705 C.ar    1  LIG1        0.0083
     30 H          -7.5919    2.5115   -0.6687 H       1  LIG1        0.0661
     31 C          -6.8957   -1.1269    0.2794 C.ar    1  LIG1       -0.0456
     32 C          -8.2204   -0.6880    0.2953 C.ar    1  LIG1       -0.0404
     33 H          -6.7040   -2.1430    0.6016 H       1  LIG1        0.0628
     34 O          -5.0611    1.8665   -0.7237 O.3     1  LIG1       -0.5061
     35 H          -5.4272    2.7441   -0.8929 H       1  LIG1        0.2922
     36 C          -9.2851   -1.6621    0.7541 C.3     1  LIG1       -0.0391
     37 H          -8.8304   -2.4872    1.3089 H       1  LIG1        0.0278
     38 H          -9.8305   -2.1222   -0.0834 H       1  LIG1        0.0278
     39 H         -10.0220   -1.1864    1.4078 H       1  LIG1        0.0278
     40 C          -9.8347    1.2458   -0.1070 C.ar    1  LIG1        0.0891
     41 C         -10.2434    2.5694    0.0498 C.ar    1  LIG1        0.1449
     42 C         -11.6547    2.6572   -0.1068 C.ar    1  LIG1        0.0089
     43 C         -12.0864    1.3706   -0.3702 C.ar    1  LIG1        0.0087
     44 N         -11.0049    0.5356   -0.3570 N.ar    1  LIG1       -0.3575
     45 H         -11.0276   -0.4342   -0.6195 H       1  LIG1        0.1655
     46 H         -13.0826    0.9986   -0.5594 H       1  LIG1        0.0811
     47 O          -9.3908    3.6129    0.3181 O.3     1  LIG1       -0.5044
     48 H          -9.9227    4.3811    0.5613 H       1  LIG1        0.2922
     49 C         -12.4859    3.9005    0.0077 C.3     1  LIG1       -0.0348
     50 H         -13.5394    3.6848   -0.1896 H       1  LIG1        0.0279
     51 H         -12.1750    4.6723   -0.7087 H       1  LIG1        0.0279
     52 H         -12.4356    4.3471    1.0104 H       1  LIG1        0.0279
@<TRIPOS>BOND
     1    24    22    1
     2    35    34    1
     3    23    22    1
     4    34    26    1
     5    51    49    1
     6    30    27    1
     7    45    44    1
     8    46    43    1
     9    12    10    1
    10    27    26   ar
    11    27    29   ar
    12    26    28   ar
    13    43    44   ar
    14    43    42   ar
    15    44    40   ar
    16     6     5    1
    17    22    16    1
    18    22    25    1
    19    20    15    1
    20    20    21    1
    21     7     1    1
    22    50    49    1
    23     5     1   ar
    24     5     4   ar
    25    16    15   ar
    26    16    17   ar
    27    15    14   ar
    28     1     2   ar
    29    40    29    1
    30    40    41   ar
    31    42    49    1
    32    42    41   ar
    33    19    18    1
    34    17    28    1
    35    17    18   ar
    36    38    36    1
    37    28    31   ar
    38    29    32   ar
    39    14    18   ar
    40    14     4    1
    41     4     3   ar
    42     9     8    1
    43    49    52    1
    44    41    47    1
    45     2     3   ar
    46     2     8    1
    47     3    10    1
    48    31    32   ar
    49    31    33    1
    50    32    36    1
    51    47    48    1
    52    10    13    1
    53    10    11    1
    54    36    37    1
    55    36    39    1
