@<TRIPOS>MOLECULE
mol_data/opt/b3lyp/geoms/mol2/13fi13fi.out
 26 27 0 0 0
SMALL
GASTEIGER

@<TRIPOS>ATOM
      1 C           1.1966   -0.3434   -0.5291 C.ar    1  LIG1        0.0445
      2 C           0.8521    0.9440   -0.1874 C.ar    1  LIG1        0.1376
      3 C          -0.5456    0.9904    0.1060 C.ar    1  LIG1        0.0178
      4 C          -1.0274   -0.2995   -0.0845 C.ar    1  LIG1        0.0730
      5 N           0.0443   -1.1056   -0.4284 N.ar    1  LIG1       -0.3561
      6 H          -0.0702   -2.0079   -0.8616 H       1  LIG1        0.1655
      7 H           2.1499   -0.7694   -0.7976 H       1  LIG1        0.0844
      8 O           1.7457    1.9797   -0.0940 O.3     1  LIG1       -0.5050
      9 H           1.2441    2.7981    0.0080 H       1  LIG1        0.2922
     10 C          -1.3071    2.1910    0.5820 C.3     1  LIG1       -0.0342
     11 H          -2.2017    1.8904    1.1327 H       1  LIG1        0.0279
     12 H          -1.6451    2.8312   -0.2424 H       1  LIG1        0.0279
     13 H          -0.6973    2.8075    1.2561 H       1  LIG1        0.0279
     14 C          -2.3576   -0.8545    0.0636 C.ar    1  LIG1        0.1055
     15 C          -3.6109   -0.3824   -0.2950 C.ar    1  LIG1        0.1463
     16 C          -4.5965   -1.3561    0.0503 C.ar    1  LIG1        0.0090
     17 C          -3.9097   -2.4134    0.6144 C.ar    1  LIG1        0.0087
     18 N          -2.5691   -2.1233    0.5991 N.ar    1  LIG1       -0.3563
     19 H          -1.8677   -2.6157    1.1286 H       1  LIG1        0.1655
     20 H          -4.2805   -3.3448    1.0165 H       1  LIG1        0.0811
     21 O          -3.8232    0.8209   -0.9185 O.3     1  LIG1       -0.5043
     22 H          -4.7574    0.8783   -1.1541 H       1  LIG1        0.2922
     23 C          -6.0731   -1.2459   -0.1901 C.3     1  LIG1       -0.0348
     24 H          -6.5960   -2.1311    0.1821 H       1  LIG1        0.0279
     25 H          -6.3173   -1.1564   -1.2577 H       1  LIG1        0.0279
     26 H          -6.5101   -0.3760    0.3177 H       1  LIG1        0.0279
@<TRIPOS>BOND
     1    25    23    1
     2    22    21    1
     3    21    15    1
     4     6     5    1
     5     7     1    1
     6     1     5   ar
     7     1     2   ar
     8     5     4   ar
     9    15    16   ar
    10    15    14   ar
    11    12    10    1
    12    23    16    1
    13    23    24    1
    14    23    26    1
    15     2     8    1
    16     2     3   ar
    17     8     9    1
    18     4    14    1
    19     4     3   ar
    20    16    17   ar
    21    14    18   ar
    22     3    10    1
    23    10    11    1
    24    10    13    1
    25    18    17   ar
    26    18    19    1
    27    17    20    1
