@<TRIPOS>MOLECULE
mol_data/opt/b3lyp/geoms/mol2/13fi13fi13fi13fi.out
 50 53 0 0 0
SMALL
GASTEIGER

@<TRIPOS>ATOM
      1 C           0.7017    0.1661   -2.0214 C.ar    1  LIG1        0.0445
      2 C           0.7800    1.0477   -0.9690 C.ar    1  LIG1        0.1376
      3 C          -0.3809    0.8992   -0.1485 C.ar    1  LIG1        0.0178
      4 C          -1.1599   -0.0838   -0.7466 C.ar    1  LIG1        0.0730
      5 N          -0.4732   -0.5517   -1.8566 N.ar    1  LIG1       -0.3561
      6 H          -0.9329   -1.0381   -2.6102 H       1  LIG1        0.1655
      7 H           1.3856   -0.0242   -2.8327 H       1  LIG1        0.0844
      8 O           1.8453    1.8797   -0.7395 O.3     1  LIG1       -0.5050
      9 H           1.6084    2.4741   -0.0168 H       1  LIG1        0.2922
     10 C          -0.6503    1.6256    1.1348 C.3     1  LIG1       -0.0342
     11 H          -1.3649    1.0736    1.7497 H       1  LIG1        0.0279
     12 H          -1.0789    2.6227    0.9731 H       1  LIG1        0.0279
     13 H           0.2680    1.7491    1.7253 H       1  LIG1        0.0279
     14 C          -2.4358   -0.6548   -0.3681 C.ar    1  LIG1        0.1060
     15 C          -3.6168   -0.0862    0.0906 C.ar    1  LIG1        0.1470
     16 C          -4.5977   -1.1008    0.2661 C.ar    1  LIG1        0.0185
     17 C          -3.9990   -2.3008   -0.1143 C.ar    1  LIG1        0.0735
     18 N          -2.6982   -2.0165   -0.4798 N.ar    1  LIG1       -0.3486
     19 H          -2.0412   -2.6868   -0.8447 H       1  LIG1        0.1661
     20 O          -3.7674    1.2542    0.3401 O.3     1  LIG1       -0.5043
     21 H          -4.7083    1.4297    0.4658 H       1  LIG1        0.2922
     22 C          -5.9884   -0.9020    0.7892 C.3     1  LIG1       -0.0342
     23 H          -6.3830   -1.8331    1.2028 H       1  LIG1        0.0279
     24 H          -6.6919   -0.5815    0.0105 H       1  LIG1        0.0279
     25 H          -6.0087   -0.1498    1.5891 H       1  LIG1        0.0279
     26 C          -4.5034   -3.6578   -0.1185 C.ar    1  LIG1        0.1060
     27 C          -5.7062   -4.2037   -0.5485 C.ar    1  LIG1        0.1470
     28 C          -5.6791   -5.6145   -0.3736 C.ar    1  LIG1        0.0185
     29 C          -4.4263   -5.9233    0.1533 C.ar    1  LIG1        0.0735
     30 N          -3.7354   -4.7386    0.3041 N.ar    1  LIG1       -0.3486
     31 H          -2.8025   -4.6634    0.6755 H       1  LIG1        0.1661
     32 O          -6.7394   -3.4567   -1.0525 O.3     1  LIG1       -0.5043
     33 H          -7.3877   -4.0621   -1.4337 H       1  LIG1        0.2922
     34 C          -6.7965   -6.5659   -0.6800 C.3     1  LIG1       -0.0342
     35 H          -6.7171   -7.4667   -0.0664 H       1  LIG1        0.0279
     36 H          -6.7971   -6.8960   -1.7261 H       1  LIG1        0.0279
     37 H          -7.7739   -6.1114   -0.4704 H       1  LIG1        0.0279
     38 C          -3.8503   -7.1889    0.5587 C.ar    1  LIG1        0.1055
     39 C          -3.8394   -8.4386   -0.0415 C.ar    1  LIG1        0.1463
     40 C          -3.0834   -9.3418    0.7658 C.ar    1  LIG1        0.0090
     41 C          -2.6437   -8.6094    1.8506 C.ar    1  LIG1        0.0087
     42 N          -3.0779   -7.3152    1.7134 N.ar    1  LIG1       -0.3563
     43 H          -3.0969   -6.6400    2.4611 H       1  LIG1        0.1655
     44 H          -2.0523   -8.9176    2.7003 H       1  LIG1        0.0811
     45 O          -4.4335   -8.7104   -1.2465 O.3     1  LIG1       -0.5043
     46 H          -4.2360   -9.6254   -1.4821 H       1  LIG1        0.2922
     47 C          -2.8051  -10.7832    0.4577 C.3     1  LIG1       -0.0348
     48 H          -2.2039  -11.2420    1.2472 H       1  LIG1        0.0279
     49 H          -2.2490  -10.9088   -0.4814 H       1  LIG1        0.0279
     50 H          -3.7275  -11.3728    0.3716 H       1  LIG1        0.0279
@<TRIPOS>BOND
     1     7     1    1
     2     6     5    1
     3     1     5   ar
     4     1     2   ar
     5     5     4   ar
     6    36    34    1
     7    46    45    1
     8    33    32    1
     9    45    39    1
    10    32    27    1
    11     2     8    1
    12     2     3   ar
    13    19    18    1
    14     4    14    1
    15     4     3   ar
    16     8     9    1
    17    34    37    1
    18    34    28    1
    19    34    35    1
    20    27    28   ar
    21    27    26   ar
    22    49    47    1
    23    18    14   ar
    24    18    17   ar
    25    28    29   ar
    26    14    15   ar
    27     3    10    1
    28    26    17    1
    29    26    30   ar
    30    17    16   ar
    31    39    38   ar
    32    39    40   ar
    33    24    22    1
    34    15    16   ar
    35    15    20    1
    36    29    30   ar
    37    29    38    1
    38    16    22    1
    39    30    31    1
    40    20    21    1
    41    50    47    1
    42    47    40    1
    43    47    48    1
    44    38    42   ar
    45    40    41   ar
    46    22    23    1
    47    22    25    1
    48    12    10    1
    49    10    13    1
    50    10    11    1
    51    42    41   ar
    52    42    43    1
    53    41    44    1
