@<TRIPOS>MOLECULE
mol_data/opt/b3lyp/geoms/mol2/13fi13ad4dd12ii-.out
 48 51 0 0 0
SMALL
GASTEIGER

@<TRIPOS>ATOM
      1 C           1.2230   -0.1541    0.6116 C.ar    1  LIG1        0.0444
      2 C           0.7160    1.0953    0.8936 C.ar    1  LIG1        0.1376
      3 C          -0.6719    1.1170    0.5618 C.ar    1  LIG1        0.0177
      4 C          -0.9733   -0.1496    0.0694 C.ar    1  LIG1        0.0694
      5 N           0.1737   -0.9218    0.1440 N.ar    1  LIG1       -0.3562
      6 H           0.3037   -1.7704   -0.3845 H       1  LIG1        0.1655
      7 H           2.2209   -0.5470    0.7205 H       1  LIG1        0.0844
      8 O           1.4474    2.1070    1.4489 O.3     1  LIG1       -0.5050
      9 H           0.9166    2.9133    1.4380 H       1  LIG1        0.2922
     10 C          -1.6082    2.2669    0.7833 C.3     1  LIG1       -0.0342
     11 H          -2.6481    1.9304    0.7991 H       1  LIG1        0.0279
     12 H          -1.5264    3.0333    0.0013 H       1  LIG1        0.0279
     13 H          -1.4135    2.7599    1.7444 H       1  LIG1        0.0279
     14 C          -2.2236   -0.7082   -0.3964 C.ar    1  LIG1        0.0649
     15 C          -3.2772   -0.1504   -1.0992 C.ar    1  LIG1       -0.0169
     16 C          -4.2719   -1.1587   -1.2642 C.ar    1  LIG1        0.0776
     17 C          -3.8038   -2.3291   -0.6587 C.ar    1  LIG1        0.0658
     18 N          -2.5514   -2.0353   -0.1652 N.ar    1  LIG1       -0.3519
     19 H          -2.0638   -2.6194    0.4984 H       1  LIG1        0.1660
     20 H          -3.3175    0.8493   -1.5029 H       1  LIG1        0.0652
     21 N          -6.4074   -0.9145   -2.6995 N.1     1  LIG1       -0.1908
     22 C          -5.4559   -1.0312   -2.0393 C.1     1  LIG1        0.1013
     23 C          -5.6933   -3.9478   -0.1792 C.ar    1  LIG1        0.0616
     24 C          -6.1785   -5.2600   -0.1579 C.ar    1  LIG1       -0.0318
     25 C          -4.3574   -3.6795   -0.5726 C.ar    1  LIG1        0.0182
     26 C          -5.3707   -6.3655   -0.4624 C.ar    1  LIG1        0.0361
     27 H          -7.2186   -5.4158    0.0970 H       1  LIG1        0.0638
     28 C          -3.5478   -4.7812   -0.8739 C.ar    1  LIG1       -0.0333
     29 C          -4.0179   -6.0987   -0.8115 C.ar    1  LIG1        0.0631
     30 H          -2.5228   -4.6147   -1.1865 H       1  LIG1        0.0637
     31 N          -7.3016   -2.1072    0.6943 N.1     1  LIG1       -0.1908
     32 C          -6.5708   -2.9067    0.2709 C.1     1  LIG1        0.0998
     33 N          -2.2120   -7.9015   -1.2857 N.1     1  LIG1       -0.1908
     34 C          -3.0609   -7.1325   -1.0833 C.1     1  LIG1        0.0999
     35 C          -5.9270   -7.7086   -0.4132 C.ar    1  LIG1        0.1392
     36 C          -6.9233   -8.2989    0.3371 C.ar    1  LIG1       -0.0018
     37 C          -6.9861   -9.6711   -0.0943 C.ar    1  LIG1       -0.0092
     38 C          -6.0312   -9.8032   -1.0594 C.ar    1  LIG1        0.0957
     39 O          -5.3789   -8.6322   -1.2658 O.2     1  LIG1       -0.4624
     40 H          -5.7116  -10.6344   -1.6691 H       1  LIG1        0.1032
     41 C          -7.7640   -7.6969    1.4237 C.3     1  LIG1       -0.0359
     42 H          -7.9957   -8.4447    2.1880 H       1  LIG1        0.0279
     43 H          -8.7230   -7.3241    1.0420 H       1  LIG1        0.0279
     44 H          -7.2585   -6.8638    1.9189 H       1  LIG1        0.0279
     45 C          -7.9054  -10.7357    0.4226 C.3     1  LIG1       -0.0365
     46 H          -7.7140  -11.6922   -0.0710 H       1  LIG1        0.0279
     47 H          -8.9571  -10.4779    0.2544 H       1  LIG1        0.0279
     48 H          -7.7781  -10.8883    1.5006 H       1  LIG1        0.0279
@<TRIPOS>BOND
     1    21    22    3
     2    22    16    1
     3    40    38    1
     4    20    15    1
     5    33    34    3
     6    39    38   ar
     7    39    35   ar
     8    16    15   ar
     9    16    17   ar
    10    30    28    1
    11    15    14   ar
    12    34    29    1
    13    38    37   ar
    14    28    29   ar
    15    28    25   ar
    16    29    26   ar
    17    17    25    1
    18    17    18   ar
    19    25    23   ar
    20    26    35    1
    21    26    24   ar
    22    35    36   ar
    23    14    18   ar
    24    14     4    1
    25     6     5    1
    26    23    24   ar
    27    23    32    1
    28    18    19    1
    29    24    27    1
    30    37    36   ar
    31    37    45    1
    32    46    45    1
    33    12    10    1
    34     4     5   ar
    35     4     3   ar
    36     5     1   ar
    37    47    45    1
    38    32    31    3
    39    36    41    1
    40    45    48    1
    41     3    10    1
    42     3     2   ar
    43     1     7    1
    44     1     2   ar
    45    10    11    1
    46    10    13    1
    47     2     8    1
    48    43    41    1
    49    41    44    1
    50    41    42    1
    51     9     8    1
