@<TRIPOS>MOLECULE
mol_data/opt/b3lyp/geoms/mol2/13fi6el13ef4al-.out
 54 57 0 0 0
SMALL
GASTEIGER

@<TRIPOS>ATOM
      1 C           1.3700   -0.3718   -0.5752 C.ar    1  LIG1        0.0444
      2 C           1.0374    0.8823   -0.1004 C.ar    1  LIG1        0.1375
      3 C          -0.3610    0.9226    0.1439 C.ar    1  LIG1        0.0163
      4 C          -0.8612   -0.3441   -0.2049 C.ar    1  LIG1        0.0558
      5 N           0.2113   -1.0990   -0.6275 N.ar    1  LIG1       -0.3573
      6 H           0.1428   -2.0728   -0.8798 H       1  LIG1        0.1655
      7 H           2.3244   -0.7804   -0.8659 H       1  LIG1        0.0844
      8 O           1.9533    1.8761    0.1253 O.3     1  LIG1       -0.5050
      9 H           1.4827    2.7153    0.1993 H       1  LIG1        0.2922
     10 C          -1.0780    2.0973    0.7449 C.3     1  LIG1       -0.0342
     11 H          -1.9063    1.7825    1.3857 H       1  LIG1        0.0279
     12 H          -1.4871    2.7904   -0.0036 H       1  LIG1        0.0279
     13 H          -0.3954    2.6777    1.3780 H       1  LIG1        0.0279
     14 C          -2.5742   -2.2322   -0.0518 C.ar    1  LIG1        0.1232
     15 C          -2.2256   -0.8595   -0.1804 C.ar    1  LIG1        0.0360
     16 C          -3.3100    0.0311   -0.3178 C.ar    1  LIG1       -0.0060
     17 C          -4.6249   -0.4136   -0.2745 C.ar    1  LIG1        0.1481
     18 C          -4.8752   -1.7965   -0.0654 C.ar    1  LIG1        0.1313
     19 N          -3.8488   -2.6526    0.0031 N.ar    1  LIG1       -0.2326
     20 H          -3.1067    1.0747   -0.5107 H       1  LIG1        0.0662
     21 C          -1.6033   -3.2860    0.0469 C.1     1  LIG1       -0.0491
     22 C          -0.8130   -4.2019    0.1130 C.1     1  LIG1       -0.1124
     23 H          -0.1312   -5.0152    0.2094 H       1  LIG1        0.1232
     24 O          -5.7050    0.3700   -0.4677 O.3     1  LIG1       -0.4929
     25 C          -5.5397    1.7711   -0.6205 C.3     1  LIG1        0.0789
     26 H          -6.5495    2.1759   -0.6873 H       1  LIG1        0.0660
     27 H          -5.0265    2.2110    0.2434 H       1  LIG1        0.0660
     28 H          -4.9845    2.0125   -1.5355 H       1  LIG1        0.0660
     29 C          -6.1986   -2.4133    0.0219 C.ar    1  LIG1        0.0883
     30 C          -7.5273   -1.9827    0.2508 C.ar    1  LIG1        0.0935
     31 C          -8.3349   -3.1572    0.2034 C.ar    1  LIG1        0.1581
     32 C          -7.5229   -4.2628   -0.0386 C.ar    1  LIG1        0.0903
     33 N          -6.2391   -3.7727   -0.1205 N.ar    1  LIG1       -0.3489
     34 H          -5.3928   -4.2957   -0.2961 H       1  LIG1        0.1661
     35 C          -8.0626   -0.7155    0.5918 C.1     1  LIG1       -0.0638
     36 C          -8.6184    0.3107    0.9163 C.1     1  LIG1       -0.1137
     37 H          -9.1033    1.2096    1.2165 H       1  LIG1        0.1232
     38 O          -9.6809   -3.1357    0.4106 O.3     1  LIG1       -0.5035
     39 H          -9.9673   -4.0310    0.6395 H       1  LIG1        0.2923
     40 C          -9.1214   -6.0809   -0.6337 C.ar    1  LIG1       -0.0523
     41 C          -9.4345   -7.4323   -0.7198 C.ar    1  LIG1       -0.0577
     42 C          -7.8566   -5.6783   -0.1485 C.ar    1  LIG1        0.0054
     43 C          -8.5162   -8.4180   -0.3486 C.ar    1  LIG1       -0.0199
     44 H         -10.4063   -7.7331   -1.1009 H       1  LIG1        0.0619
     45 C          -6.9359   -6.6667    0.2262 C.ar    1  LIG1       -0.0107
     46 C          -7.2555   -8.0248    0.1191 C.ar    1  LIG1        0.1207
     47 H          -5.9654   -6.4053    0.6353 H       1  LIG1        0.0661
     48 H          -8.7844   -9.4640   -0.4308 H       1  LIG1        0.0654
     49 H          -9.8246   -5.3380   -0.9957 H       1  LIG1        0.0624
     50 O          -6.2731   -8.8877    0.5106 O.3     1  LIG1       -0.4951
     51 C          -6.5346  -10.2810    0.4439 C.3     1  LIG1        0.0788
     52 H          -5.6291  -10.7739    0.8003 H       1  LIG1        0.0660
     53 H          -7.3771  -10.5668    1.0864 H       1  LIG1        0.0660
     54 H          -6.7411  -10.6061   -0.5837 H       1  LIG1        0.0660
@<TRIPOS>BOND
     1    28    25    1
     2    44    41    1
     3    49    40    1
     4     6     5    1
     5     7     1    1
     6    41    40   ar
     7    41    43   ar
     8    26    25    1
     9    40    42   ar
    10     5     1   ar
    11     5     4   ar
    12    25    24    1
    13    25    27    1
    14    54    51    1
    15     1     2   ar
    16    20    16    1
    17    24    17    1
    18    48    43    1
    19    43    46   ar
    20    16    17   ar
    21    16    15   ar
    22    34    33    1
    23    17    18   ar
    24     4    15    1
    25     4     3   ar
    26    15    14   ar
    27    42    32    1
    28    42    45   ar
    29    33    32   ar
    30    33    29   ar
    31     2     8    1
    32     2     3   ar
    33    18    19   ar
    34    18    29    1
    35    14    19   ar
    36    14    21    1
    37    32    31   ar
    38    12    10    1
    39    29    30   ar
    40    21    22    3
    41    22    23    1
    42    46    45   ar
    43    46    50    1
    44     8     9    1
    45     3    10    1
    46    31    30   ar
    47    31    38    1
    48    45    47    1
    49    30    35    1
    50    38    39    1
    51    51    50    1
    52    51    52    1
    53    51    53    1
    54    35    36    3
    55    10    13    1
    56    10    11    1
    57    36    37    1
