@<TRIPOS>MOLECULE
mol_data/opt/b3lyp/geoms/mol2/13fi13fi-13fi13fi-.out
 50 53 0 0 0
SMALL
GASTEIGER

@<TRIPOS>ATOM
      1 C           1.3747   -0.2510   -0.0888 C.ar    1  LIG1        0.0445
      2 C           0.9982    1.0431    0.2055 C.ar    1  LIG1        0.1376
      3 C          -0.4241    1.1079    0.2740 C.ar    1  LIG1        0.0178
      4 C          -0.8838   -0.1854    0.0012 C.ar    1  LIG1        0.0730
      5 N           0.2165   -0.9847   -0.2059 N.ar    1  LIG1       -0.3561
      6 H           0.1350   -1.9706   -0.4041 H       1  LIG1        0.1655
      7 H           2.3530   -0.6853   -0.2160 H       1  LIG1        0.0844
      8 O           1.8877    2.0653    0.4353 O.3     1  LIG1       -0.5050
      9 H           1.4352    2.9009    0.2672 H       1  LIG1        0.2922
     10 C          -1.2309    2.3287    0.6093 C.3     1  LIG1       -0.0342
     11 H          -2.0237    2.1114    1.3343 H       1  LIG1        0.0279
     12 H          -1.7051    2.7948   -0.2661 H       1  LIG1        0.0279
     13 H          -0.5991    3.0956    1.0732 H       1  LIG1        0.0279
     14 C          -2.2085   -0.7513   -0.0752 C.ar    1  LIG1        0.1060
     15 C          -2.6014   -2.0817   -0.2005 C.ar    1  LIG1        0.1470
     16 C          -4.0157   -2.1652   -0.2444 C.ar    1  LIG1        0.0185
     17 C          -4.4791   -0.8500   -0.1340 C.ar    1  LIG1        0.0735
     18 N          -3.3783   -0.0226   -0.0387 N.ar    1  LIG1       -0.3486
     19 H          -3.4645    0.9820   -0.0035 H       1  LIG1        0.1661
     20 O          -1.7064   -3.1351   -0.3308 O.3     1  LIG1       -0.5043
     21 H          -1.8855   -3.7796    0.3669 H       1  LIG1        0.2922
     22 C          -4.8078   -3.4286   -0.4077 C.3     1  LIG1       -0.0342
     23 H          -4.1496   -4.2429   -0.7273 H       1  LIG1        0.0279
     24 H          -5.5870   -3.3300   -1.1722 H       1  LIG1        0.0279
     25 H          -5.2986   -3.7535    0.5205 H       1  LIG1        0.0279
     26 C          -5.8040   -0.2862   -0.1287 C.ar    1  LIG1        0.1060
     27 C          -6.2055    1.0464   -0.1820 C.ar    1  LIG1        0.1470
     28 C          -7.6208    1.1239   -0.1477 C.ar    1  LIG1        0.0185
     29 C          -8.0752   -0.1969   -0.0810 C.ar    1  LIG1        0.0735
     30 N          -6.9693   -1.0218   -0.0686 N.ar    1  LIG1       -0.3486
     31 H          -7.0413   -2.0225    0.0370 H       1  LIG1        0.1661
     32 O          -5.3205    2.1169   -0.2065 O.3     1  LIG1       -0.5043
     33 H          -5.4565    2.6093   -1.0275 H       1  LIG1        0.2922
     34 C          -8.4210    2.3928   -0.1577 C.3     1  LIG1       -0.0342
     35 H          -9.1257    2.4448    0.6822 H       1  LIG1        0.0279
     36 H          -8.9940    2.5345   -1.0850 H       1  LIG1        0.0279
     37 H          -7.7544    3.2546   -0.0570 H       1  LIG1        0.0279
     38 C          -9.3974   -0.7666   -0.0149 C.ar    1  LIG1        0.1055
     39 C          -9.7895   -2.0936    0.1180 C.ar    1  LIG1        0.1463
     40 C         -11.2090   -2.1722    0.1435 C.ar    1  LIG1        0.0090
     41 C         -11.6589   -0.8698    0.0242 C.ar    1  LIG1        0.0087
     42 N         -10.5736   -0.0361   -0.0733 N.ar    1  LIG1       -0.3563
     43 H         -10.6164    0.9603   -0.2001 H       1  LIG1        0.1655
     44 H         -12.6671   -0.4843   -0.0011 H       1  LIG1        0.0811
     45 O          -8.8866   -3.1384    0.1730 O.3     1  LIG1       -0.5043
     46 H          -9.3012   -3.8842    0.6241 H       1  LIG1        0.2922
     47 C         -12.0313   -3.4197    0.2726 C.3     1  LIG1       -0.0348
     48 H         -11.8531   -3.9417    1.2230 H       1  LIG1        0.0279
     49 H         -11.8215   -4.1335   -0.5339 H       1  LIG1        0.0279
     50 H         -13.0993   -3.1889    0.2339 H       1  LIG1        0.0279
@<TRIPOS>BOND
     1    24    22    1
     2    36    34    1
     3    33    32    1
     4    23    22    1
     5    49    47    1
     6    22    16    1
     7    22    25    1
     8     6     5    1
     9    20    15    1
    10    20    21    1
    11    12    10    1
    12    16    15   ar
    13    16    17   ar
    14     7     1    1
    15    32    27    1
    16     5     1   ar
    17     5     4   ar
    18    15    14   ar
    19    43    42    1
    20    27    28   ar
    21    27    26   ar
    22    34    28    1
    23    34    37    1
    24    34    35    1
    25    28    29   ar
    26    17    26    1
    27    17    18   ar
    28    26    30   ar
    29     1     2   ar
    30    29    30   ar
    31    29    38    1
    32    14    18   ar
    33    14     4    1
    34    42    38   ar
    35    42    41   ar
    36    30    31    1
    37    18    19    1
    38    38    39   ar
    39    44    41    1
    40     4     3   ar
    41    41    40   ar
    42    39    40   ar
    43    39    45    1
    44    40    47    1
    45    45    46    1
    46     2     3   ar
    47     2     8    1
    48    50    47    1
    49     9     8    1
    50    47    48    1
    51     3    10    1
    52    10    13    1
    53    10    11    1
