@<TRIPOS>MOLECULE
mol_data/opt/b3lyp/geoms/mol2/13fi13fi-13fi-13fi-.out
 50 53 0 0 0
SMALL
GASTEIGER

@<TRIPOS>ATOM
      1 C           1.2451   -0.5871   -1.1827 C.ar    1  LIG1        0.0445
      2 C           1.0472    0.7364   -0.8674 C.ar    1  LIG1        0.1376
      3 C          -0.2905    0.9083   -0.3918 C.ar    1  LIG1        0.0178
      4 C          -0.8887   -0.3478   -0.4424 C.ar    1  LIG1        0.0730
      5 N           0.0659   -1.2524   -0.8834 N.ar    1  LIG1       -0.3561
      6 H          -0.1827   -2.1499   -1.2708 H       1  LIG1        0.1655
      7 H           2.1180   -1.0985   -1.5547 H       1  LIG1        0.0844
      8 O           2.0156    1.6991   -0.9579 O.3     1  LIG1       -0.5050
      9 H           1.6159    2.5543   -0.7571 H       1  LIG1        0.2922
     10 C          -0.8731    2.1881    0.1323 C.3     1  LIG1       -0.0342
     11 H          -1.7842    1.9964    0.7053 H       1  LIG1        0.0279
     12 H          -1.1306    2.8997   -0.6648 H       1  LIG1        0.0279
     13 H          -0.1743    2.7012    0.8066 H       1  LIG1        0.0279
     14 C          -2.2110   -0.8149   -0.0897 C.ar    1  LIG1        0.1060
     15 C          -2.5973   -2.0298    0.4577 C.ar    1  LIG1        0.1470
     16 C          -4.0089   -2.0458    0.6324 C.ar    1  LIG1        0.0185
     17 C          -4.4725   -0.8164    0.1666 C.ar    1  LIG1        0.0735
     18 N          -3.3747   -0.0634   -0.2260 N.ar    1  LIG1       -0.3486
     19 H          -3.4484    0.7030   -0.8774 H       1  LIG1        0.1661
     20 O          -1.7821   -3.0621    0.8445 O.3     1  LIG1       -0.5043
     21 H          -0.8850   -2.7111    0.9484 H       1  LIG1        0.2922
     22 C          -4.7911   -3.1344    1.3053 C.3     1  LIG1       -0.0342
     23 H          -4.2783   -3.4696    2.2129 H       1  LIG1        0.0279
     24 H          -4.9073   -4.0232    0.6718 H       1  LIG1        0.0279
     25 H          -5.7897   -2.7867    1.5819 H       1  LIG1        0.0279
     26 C          -5.8192   -0.2947    0.0674 C.ar    1  LIG1        0.1060
     27 C          -6.9786   -0.8885   -0.4167 C.ar    1  LIG1        0.1470
     28 C          -8.0524    0.0377   -0.3420 C.ar    1  LIG1        0.0185
     29 C          -7.5173    1.2187    0.1781 C.ar    1  LIG1        0.0735
     30 N          -6.1733    1.0048    0.4124 N.ar    1  LIG1       -0.3486
     31 H          -5.5424    1.6917    0.7921 H       1  LIG1        0.1661
     32 O          -7.1226   -2.1560   -0.9077 O.3     1  LIG1       -0.5043
     33 H          -6.2438   -2.5577   -0.9605 H       1  LIG1        0.2922
     34 C          -9.4808   -0.2466   -0.7021 C.3     1  LIG1       -0.0342
     35 H          -9.8227   -1.1744   -0.2310 H       1  LIG1        0.0279
     36 H          -9.6199   -0.3799   -1.7825 H       1  LIG1        0.0279
     37 H         -10.1375    0.5634   -0.3745 H       1  LIG1        0.0279
     38 C          -8.1460    2.4945    0.4612 C.ar    1  LIG1        0.1055
     39 C          -8.9623    3.2855   -0.3322 C.ar    1  LIG1        0.1463
     40 C          -9.2898    4.4811    0.3722 C.ar    1  LIG1        0.0090
     41 C          -8.6507    4.3869    1.5919 C.ar    1  LIG1        0.0087
     42 N          -7.9310    3.2163    1.6363 N.ar    1  LIG1       -0.3563
     43 H          -7.5953    2.7907    2.4859 H       1  LIG1        0.1655
     44 H          -8.6502    5.0750    2.4249 H       1  LIG1        0.0811
     45 O          -9.3760    3.0390   -1.6114 O.3     1  LIG1       -0.5043
     46 H          -8.9440    2.2265   -1.9119 H       1  LIG1        0.2922
     47 C         -10.1288    5.6091   -0.1459 C.3     1  LIG1       -0.0348
     48 H         -11.1371    5.2706   -0.4098 H       1  LIG1        0.0279
     49 H          -9.6967    6.0508   -1.0515 H       1  LIG1        0.0279
     50 H         -10.2254    6.4026    0.6008 H       1  LIG1        0.0279
@<TRIPOS>BOND
     1    46    45    1
     2    36    34    1
     3    45    39    1
     4     7     1    1
     5     6     5    1
     6     1     5   ar
     7     1     2   ar
     8    49    47    1
     9    33    32    1
    10     8     2    1
    11     8     9    1
    12    32    27    1
    13     5     4   ar
    14    19    18    1
    15     2     3   ar
    16    34    37    1
    17    34    28    1
    18    34    35    1
    19    12    10    1
    20     4     3   ar
    21     4    14    1
    22    27    28   ar
    23    27    26   ar
    24    48    47    1
    25     3    10    1
    26    28    29   ar
    27    39    40   ar
    28    39    38   ar
    29    18    14   ar
    30    18    17   ar
    31    47    40    1
    32    47    50    1
    33    14    15   ar
    34    26    17    1
    35    26    30   ar
    36    10    11    1
    37    10    13    1
    38    17    16   ar
    39    29    30   ar
    40    29    38    1
    41    40    41   ar
    42    30    31    1
    43    15    16   ar
    44    15    20    1
    45    38    42   ar
    46    16    22    1
    47    24    22    1
    48    20    21    1
    49    22    25    1
    50    22    23    1
    51    41    42   ar
    52    41    44    1
    53    42    43    1
