@<TRIPOS>MOLECULE
mol_data/opt/b3lyp/geoms/mol2/13fi13fi-13fi-13fi.out
 50 53 0 0 0
SMALL
GASTEIGER

@<TRIPOS>ATOM
      1 C           1.2600   -0.6513   -1.0761 C.ar    1  LIG1        0.0445
      2 C           1.0459    0.6889   -0.8586 C.ar    1  LIG1        0.1376
      3 C          -0.3088    0.8852   -0.4439 C.ar    1  LIG1        0.0178
      4 C          -0.9010   -0.3749   -0.4308 C.ar    1  LIG1        0.0730
      5 N           0.0724   -1.3019   -0.7741 N.ar    1  LIG1       -0.3561
      6 H          -0.1607   -2.2238   -1.1103 H       1  LIG1        0.1655
      7 H           2.1479   -1.1820   -1.3792 H       1  LIG1        0.0844
      8 O           2.0135    1.6503   -0.9774 O.3     1  LIG1       -0.5050
      9 H           1.5982    2.5141   -0.8640 H       1  LIG1        0.2922
     10 C          -0.9142    2.1950   -0.0312 C.3     1  LIG1       -0.0342
     11 H          -1.8312    2.0389    0.5432 H       1  LIG1        0.0279
     12 H          -1.1686    2.8387   -0.8852 H       1  LIG1        0.0279
     13 H          -0.2306    2.7683    0.6096 H       1  LIG1        0.0279
     14 C          -2.2338   -0.8240   -0.0988 C.ar    1  LIG1        0.1060
     15 C          -2.6403   -2.0124    0.4919 C.ar    1  LIG1        0.1470
     16 C          -4.0549   -2.0166    0.6322 C.ar    1  LIG1        0.0185
     17 C          -4.5015   -0.8065    0.0988 C.ar    1  LIG1        0.0735
     18 N          -3.3915   -0.0780   -0.2991 N.ar    1  LIG1       -0.3486
     19 H          -3.4479    0.6769   -0.9650 H       1  LIG1        0.1661
     20 O          -1.8364   -3.0286    0.9445 O.3     1  LIG1       -0.5043
     21 H          -0.9489   -2.6652    1.0833 H       1  LIG1        0.2922
     22 C          -4.8554   -3.0685    1.3418 C.3     1  LIG1       -0.0342
     23 H          -4.3296   -3.4028    2.2421 H       1  LIG1        0.0279
     24 H          -5.0178   -3.9664    0.7304 H       1  LIG1        0.0279
     25 H          -5.8353   -2.6843    1.6367 H       1  LIG1        0.0279
     26 C          -5.8373   -0.2782   -0.0566 C.ar    1  LIG1        0.1060
     27 C          -7.0080   -0.8961   -0.4851 C.ar    1  LIG1        0.1470
     28 C          -8.0529    0.0599   -0.5453 C.ar    1  LIG1        0.0185
     29 C          -7.4874    1.2775   -0.1514 C.ar    1  LIG1        0.0735
     30 N          -6.1532    1.0635    0.1104 N.ar    1  LIG1       -0.3486
     31 H          -5.5698    1.7565    0.5566 H       1  LIG1        0.1661
     32 O          -7.1703   -2.2037   -0.8534 O.3     1  LIG1       -0.5043
     33 H          -6.2934   -2.6096   -0.8992 H       1  LIG1        0.2922
     34 C          -9.4608   -0.2266   -0.9782 C.3     1  LIG1       -0.0342
     35 H          -9.5578   -1.2810   -1.2475 H       1  LIG1        0.0279
     36 H          -9.7561    0.3570   -1.8610 H       1  LIG1        0.0279
     37 H         -10.1940   -0.0298   -0.1838 H       1  LIG1        0.0279
     38 C          -8.0529    2.5913    0.0275 C.ar    1  LIG1        0.1055
     39 C          -7.4607    3.7611    0.4895 C.ar    1  LIG1        0.1463
     40 C          -8.4233    4.8072    0.5105 C.ar    1  LIG1        0.0090
     41 C          -9.6009    4.2416    0.0553 C.ar    1  LIG1        0.0087
     42 N          -9.3721    2.9215   -0.2364 N.ar    1  LIG1       -0.3563
     43 H         -10.0559    2.2764   -0.5933 H       1  LIG1        0.1655
     44 H         -10.5748    4.6867   -0.0838 H       1  LIG1        0.0811
     45 O          -6.1232    3.8408    0.8306 O.3     1  LIG1       -0.5043
     46 H          -6.0108    4.5558    1.4696 H       1  LIG1        0.2922
     47 C          -8.1913    6.2252    0.9400 C.3     1  LIG1       -0.0348
     48 H          -9.1016    6.8205    0.8297 H       1  LIG1        0.0279
     49 H          -7.4081    6.7107    0.3443 H       1  LIG1        0.0279
     50 H          -7.8898    6.2989    1.9942 H       1  LIG1        0.0279
@<TRIPOS>BOND
     1    36    34    1
     2     7     1    1
     3    35    34    1
     4     6     5    1
     5     1     2   ar
     6     1     5   ar
     7    34    28    1
     8    34    37    1
     9     8     9    1
    10     8     2    1
    11    19    18    1
    12    33    32    1
    13    12    10    1
    14     2     3   ar
    15    32    27    1
    16     5     4   ar
    17    43    42    1
    18    28    27   ar
    19    28    29   ar
    20    27    26   ar
    21     3     4   ar
    22     3    10    1
    23     4    14    1
    24    18    14   ar
    25    18    17   ar
    26    42    38   ar
    27    42    41   ar
    28    29    38    1
    29    29    30   ar
    30    14    15   ar
    31    44    41    1
    32    26    17    1
    33    26    30   ar
    34    10    11    1
    35    10    13    1
    36    38    39   ar
    37    41    40   ar
    38    17    16   ar
    39    30    31    1
    40    49    47    1
    41    39    40   ar
    42    39    45    1
    43    15    16   ar
    44    15    20    1
    45    40    47    1
    46    16    22    1
    47    24    22    1
    48    48    47    1
    49    45    46    1
    50    47    50    1
    51    20    21    1
    52    22    25    1
    53    22    23    1
