@<TRIPOS>MOLECULE
mol_data/opt/b3lyp/geoms/mol2/13fi13fi-13fi.out
 38 40 0 0 0
SMALL
GASTEIGER

@<TRIPOS>ATOM
      1 C           1.2783   -0.2820   -0.2432 C.ar    1  LIG1        0.0445
      2 C           0.8992    1.0270   -0.0292 C.ar    1  LIG1        0.1376
      3 C          -0.5192    1.0836    0.1005 C.ar    1  LIG1        0.0178
      4 C          -0.9742   -0.2304   -0.0538 C.ar    1  LIG1        0.0730
      5 N           0.1254   -1.0333   -0.2506 N.ar    1  LIG1       -0.3561
      6 H           0.0472   -2.0314   -0.3758 H       1  LIG1        0.1655
      7 H           2.2552   -0.7156   -0.3823 H       1  LIG1        0.0844
      8 O           1.7848    2.0715    0.0842 O.3     1  LIG1       -0.5050
      9 H           1.3162    2.8883   -0.1267 H       1  LIG1        0.2922
     10 C          -1.3241    2.3195    0.3807 C.3     1  LIG1       -0.0342
     11 H          -2.1113    2.1368    1.1208 H       1  LIG1        0.0279
     12 H          -1.8053    2.7409   -0.5134 H       1  LIG1        0.0279
     13 H          -0.6887    3.1080    0.8016 H       1  LIG1        0.0279
     14 C          -2.2940   -0.8134   -0.0270 C.ar    1  LIG1        0.1060
     15 C          -2.6747   -2.1524   -0.0064 C.ar    1  LIG1        0.1470
     16 C          -4.0897   -2.2499    0.0059 C.ar    1  LIG1        0.0185
     17 C          -4.5639   -0.9352   -0.0005 C.ar    1  LIG1        0.0735
     18 N          -3.4699   -0.0940   -0.0217 N.ar    1  LIG1       -0.3486
     19 H          -3.5600    0.9080   -0.0977 H       1  LIG1        0.1661
     20 O          -1.7783   -3.2133   -0.0537 O.3     1  LIG1       -0.5043
     21 H          -1.8259   -3.6935    0.7845 H       1  LIG1        0.2922
     22 C          -4.8706   -3.5308    0.0015 C.3     1  LIG1       -0.0342
     23 H          -4.1948   -4.3770   -0.1536 H       1  LIG1        0.0279
     24 H          -5.6069   -3.5643   -0.8118 H       1  LIG1        0.0279
     25 H          -5.4052   -3.7128    0.9447 H       1  LIG1        0.0279
     26 C          -5.8959   -0.3834   -0.0031 C.ar    1  LIG1        0.1055
     27 C          -6.3124    0.9400   -0.0857 C.ar    1  LIG1        0.1463
     28 C          -7.7331    0.9967   -0.0542 C.ar    1  LIG1        0.0090
     29 C          -8.1586   -0.3150    0.0470 C.ar    1  LIG1        0.0087
     30 N          -7.0575   -1.1337    0.0816 N.ar    1  LIG1       -0.3563
     31 H          -7.0801   -2.1337    0.1820 H       1  LIG1        0.1655
     32 H          -9.1591   -0.7176    0.1000 H       1  LIG1        0.0811
     33 O          -5.4293    2.0027   -0.1403 O.3     1  LIG1       -0.5043
     34 H          -5.8432    2.7252   -0.6290 H       1  LIG1        0.2922
     35 C          -8.5775    2.2345   -0.1166 C.3     1  LIG1       -0.0348
     36 H          -9.6388    1.9889   -0.0229 H       1  LIG1        0.0279
     37 H          -8.4585    2.7751   -1.0659 H       1  LIG1        0.0279
     38 H          -8.3304    2.9370    0.6890 H       1  LIG1        0.0279
@<TRIPOS>BOND
     1    37    35    1
     2    24    22    1
     3    34    33    1
     4    12    10    1
     5     7     1    1
     6     6     5    1
     7     5     1   ar
     8     5     4   ar
     9     1     2   ar
    10    23    22    1
    11    33    27    1
    12     9     8    1
    13    35    28    1
    14    35    36    1
    15    35    38    1
    16    19    18    1
    17    27    28   ar
    18    27    26   ar
    19    28    29   ar
    20     4    14    1
    21     4     3   ar
    22    20    15    1
    23    20    21    1
    24     2     8    1
    25     2     3   ar
    26    14    18   ar
    27    14    15   ar
    28    18    17   ar
    29    15    16   ar
    30    26    17    1
    31    26    30   ar
    32    17    16   ar
    33    22    16    1
    34    22    25    1
    35    29    30   ar
    36    29    32    1
    37    30    31    1
    38     3    10    1
    39    10    13    1
    40    10    11    1
