@<TRIPOS>MOLECULE
mol_data/opt/b3lyp/geoms/mol2/13fi13fi13fi-13fi.out
 50 53 0 0 0
SMALL
GASTEIGER

@<TRIPOS>ATOM
      1 C           1.0761   -0.0847   -1.1819 C.ar    1  LIG1        0.0445
      2 C           0.9029    1.0260   -0.3883 C.ar    1  LIG1        0.1376
      3 C          -0.4259    1.0238    0.1352 C.ar    1  LIG1        0.0178
      4 C          -1.0466   -0.1109   -0.3792 C.ar    1  LIG1        0.0730
      5 N          -0.1137   -0.7914   -1.1425 N.ar    1  LIG1       -0.3561
      6 H          -0.3658   -1.5078   -1.8043 H       1  LIG1        0.1655
      7 H           1.9364   -0.4307   -1.7317 H       1  LIG1        0.0844
      8 O           1.8892    1.9401   -0.1182 O.3     1  LIG1       -0.5050
      9 H           1.4873    2.6780    0.3569 H       1  LIG1        0.2922
     10 C          -0.9854    2.0222    1.1039 C.3     1  LIG1       -0.0342
     11 H          -1.8341    1.6039    1.6492 H       1  LIG1        0.0279
     12 H          -1.3471    2.9340    0.6120 H       1  LIG1        0.0279
     13 H          -0.2315    2.3209    1.8455 H       1  LIG1        0.0279
     14 C          -2.3807   -0.6430   -0.2043 C.ar    1  LIG1        0.1060
     15 C          -3.6294   -0.0371   -0.1191 C.ar    1  LIG1        0.1470
     16 C          -4.6355   -1.0356   -0.0092 C.ar    1  LIG1        0.0185
     17 C          -3.9702   -2.2655   -0.0488 C.ar    1  LIG1        0.0735
     18 N          -2.6235   -2.0073   -0.1734 N.ar    1  LIG1       -0.3486
     19 H          -1.9271   -2.7317   -0.0694 H       1  LIG1        0.1661
     20 O          -3.8219    1.3240   -0.1320 O.3     1  LIG1       -0.5043
     21 H          -4.6840    1.5039   -0.5275 H       1  LIG1        0.2922
     22 C          -6.1075   -0.7772    0.1312 C.3     1  LIG1       -0.0342
     23 H          -6.5691   -1.4352    0.8761 H       1  LIG1        0.0279
     24 H          -6.6645   -0.9035   -0.8079 H       1  LIG1        0.0279
     25 H          -6.2856    0.2484    0.4744 H       1  LIG1        0.0279
     26 C          -4.4327   -3.6264    0.0480 C.ar    1  LIG1        0.1060
     27 C          -3.7036   -4.8014    0.2144 C.ar    1  LIG1        0.1470
     28 C          -4.5838   -5.9122    0.2541 C.ar    1  LIG1        0.0185
     29 C          -5.8717   -5.3851    0.1152 C.ar    1  LIG1        0.0735
     30 N          -5.7551   -4.0159   -0.0073 N.ar    1  LIG1       -0.3486
     31 H          -6.5477   -3.4204   -0.1947 H       1  LIG1        0.1661
     32 O          -2.3169   -4.8436    0.2734 O.3     1  LIG1       -0.5043
     33 H          -2.0553   -5.2271    1.1216 H       1  LIG1        0.2922
     34 C          -4.1658   -7.3461    0.3937 C.3     1  LIG1       -0.0342
     35 H          -3.0773   -7.4265    0.3161 H       1  LIG1        0.0279
     36 H          -4.5817   -7.9781   -0.4015 H       1  LIG1        0.0279
     37 H          -4.4540   -7.7880    1.3580 H       1  LIG1        0.0279
     38 C          -7.1734   -6.0022    0.0668 C.ar    1  LIG1        0.1055
     39 C          -8.4215   -5.4308   -0.1526 C.ar    1  LIG1        0.1463
     40 C          -9.4219   -6.4406   -0.1188 C.ar    1  LIG1        0.0090
     41 C          -8.7509   -7.6252    0.1245 C.ar    1  LIG1        0.0087
     42 N          -7.4101   -7.3571    0.2367 N.ar    1  LIG1       -0.3563
     43 H          -6.6987   -8.0348    0.4499 H       1  LIG1        0.1655
     44 H          -9.1330   -8.6298    0.2270 H       1  LIG1        0.0811
     45 O          -8.6008   -4.0726   -0.3327 O.3     1  LIG1       -0.5043
     46 H          -9.4231   -3.9290   -0.8174 H       1  LIG1        0.2922
     47 C         -10.8962   -6.2423   -0.3090 C.3     1  LIG1       -0.0348
     48 H         -11.4337   -7.1890   -0.2073 H       1  LIG1        0.0279
     49 H         -11.1398   -5.8440   -1.3037 H       1  LIG1        0.0279
     50 H         -11.3148   -5.5476    0.4301 H       1  LIG1        0.0279
@<TRIPOS>BOND
     1     6     5    1
     2     7     1    1
     3    49    47    1
     4     1     5   ar
     5     1     2   ar
     6     5     4   ar
     7    46    45    1
     8    24    22    1
     9    21    20    1
    10    36    34    1
    11     2     8    1
    12     2     3   ar
    13     4    14    1
    14     4     3   ar
    15    45    39    1
    16    47    48    1
    17    47    40    1
    18    47    50    1
    19    14    18   ar
    20    14    15   ar
    21    31    30    1
    22    18    19    1
    23    18    17   ar
    24    39    40   ar
    25    39    38   ar
    26    20    15    1
    27    15    16   ar
    28    40    41   ar
    29     8     9    1
    30    17    16   ar
    31    17    26    1
    32    16    22    1
    33    30    26   ar
    34    30    29   ar
    35    26    27   ar
    36    38    29    1
    37    38    42   ar
    38    29    28   ar
    39    41    44    1
    40    41    42   ar
    41    22    25    1
    42    22    23    1
    43     3    10    1
    44    27    28   ar
    45    27    32    1
    46    42    43    1
    47    28    34    1
    48    32    33    1
    49    35    34    1
    50    34    37    1
    51    12    10    1
    52    10    11    1
    53    10    13    1
