@<TRIPOS>MOLECULE
mol_data/opt/b3lyp/geoms/mol2/13fi13fi13fi-13fi-.out
 50 53 0 0 0
SMALL
GASTEIGER

@<TRIPOS>ATOM
      1 C           1.1594   -0.1507   -1.0381 C.ar    1  LIG1        0.0445
      2 C           0.9367    1.0165   -0.3435 C.ar    1  LIG1        0.1376
      3 C          -0.4253    1.0528    0.0842 C.ar    1  LIG1        0.0178
      4 C          -1.0132   -0.1177   -0.3867 C.ar    1  LIG1        0.0730
      5 N          -0.0329   -0.8530   -1.0299 N.ar    1  LIG1       -0.3561
      6 H          -0.2399   -1.6199   -1.6494 H       1  LIG1        0.1655
      7 H           2.0540   -0.5354   -1.5004 H       1  LIG1        0.0844
      8 O           1.9063    1.9482   -0.0764 O.3     1  LIG1       -0.5050
      9 H           1.4785    2.7181    0.3186 H       1  LIG1        0.2922
     10 C          -1.0484    2.1199    0.9333 C.3     1  LIG1       -0.0342
     11 H          -1.9156    1.7331    1.4732 H       1  LIG1        0.0279
     12 H          -1.4014    2.9769    0.3464 H       1  LIG1        0.0279
     13 H          -0.3371    2.4974    1.6808 H       1  LIG1        0.0279
     14 C          -2.3590   -0.6352   -0.2640 C.ar    1  LIG1        0.1060
     15 C          -3.6062   -0.0227   -0.3089 C.ar    1  LIG1        0.1470
     16 C          -4.6236   -1.0091   -0.1876 C.ar    1  LIG1        0.0185
     17 C          -3.9653   -2.2379   -0.0833 C.ar    1  LIG1        0.0735
     18 N          -2.6098   -1.9915   -0.1402 N.ar    1  LIG1       -0.3486
     19 H          -1.9213   -2.6962    0.0826 H       1  LIG1        0.1661
     20 O          -3.8007    1.3356   -0.4319 O.3     1  LIG1       -0.5043
     21 H          -4.4396    1.4908   -1.1397 H       1  LIG1        0.2922
     22 C          -6.0982   -0.7323   -0.1680 C.3     1  LIG1       -0.0342
     23 H          -6.6008   -1.2387    0.6650 H       1  LIG1        0.0279
     24 H          -6.6098   -1.0295   -1.0950 H       1  LIG1        0.0279
     25 H          -6.2755    0.3396   -0.0342 H       1  LIG1        0.0279
     26 C          -4.4464   -3.5847    0.0845 C.ar    1  LIG1        0.1060
     27 C          -3.7387   -4.7617    0.2956 C.ar    1  LIG1        0.1470
     28 C          -4.6416   -5.8506    0.4230 C.ar    1  LIG1        0.0185
     29 C          -5.9213   -5.3144    0.2680 C.ar    1  LIG1        0.0735
     30 N          -5.7851   -3.9493    0.0840 N.ar    1  LIG1       -0.3486
     31 H          -6.5279   -3.3643   -0.2622 H       1  LIG1        0.1661
     32 O          -2.3618   -4.8032    0.3678 O.3     1  LIG1       -0.5043
     33 H          -2.0979   -5.5903    0.8611 H       1  LIG1        0.2922
     34 C          -4.2711   -7.2652    0.7629 C.3     1  LIG1       -0.0342
     35 H          -3.6962   -7.3216    1.6979 H       1  LIG1        0.0279
     36 H          -3.6586   -7.7367   -0.0167 H       1  LIG1        0.0279
     37 H          -5.1627   -7.8811    0.8988 H       1  LIG1        0.0279
     38 C          -7.2214   -5.9531    0.2800 C.ar    1  LIG1        0.1055
     39 C          -7.6670   -7.0938   -0.3718 C.ar    1  LIG1        0.1463
     40 C          -9.0449   -7.2996   -0.0743 C.ar    1  LIG1        0.0090
     41 C          -9.4104   -6.2591    0.7569 C.ar    1  LIG1        0.0087
     42 N          -8.3306   -5.4302    0.9432 N.ar    1  LIG1       -0.3563
     43 H          -8.2618   -4.7320    1.6660 H       1  LIG1        0.1655
     44 H         -10.3647   -6.0459    1.2163 H       1  LIG1        0.0811
     45 O          -6.9538   -7.9029   -1.2146 O.3     1  LIG1       -0.5043
     46 H          -6.1174   -7.4572   -1.4128 H       1  LIG1        0.2922
     47 C          -9.9070   -8.4062   -0.6010 C.3     1  LIG1       -0.0348
     48 H          -9.5310   -9.3896   -0.2964 H       1  LIG1        0.0279
     49 H          -9.9379   -8.4051   -1.6966 H       1  LIG1        0.0279
     50 H         -10.9338   -8.3122   -0.2360 H       1  LIG1        0.0279
@<TRIPOS>BOND
     1    49    47    1
     2     6     5    1
     3     7     1    1
     4    46    45    1
     5    45    39    1
     6    21    20    1
     7    24    22    1
     8     1     5   ar
     9     1     2   ar
    10     5     4   ar
    11    47    48    1
    12    47    50    1
    13    47    40    1
    14    20    15    1
    15     4    14    1
    16     4     3   ar
    17    39    40   ar
    18    39    38   ar
    19     2     8    1
    20     2     3   ar
    21    15    14   ar
    22    15    16   ar
    23    14    18   ar
    24    31    30    1
    25    16    22    1
    26    16    17   ar
    27    22    25    1
    28    22    23    1
    29    18    17   ar
    30    18    19    1
    31    17    26    1
    32     8     9    1
    33    40    41   ar
    34    36    34    1
    35    30    26   ar
    36    30    29   ar
    37     3    10    1
    38    26    27   ar
    39    29    38    1
    40    29    28   ar
    41    38    42   ar
    42    27    32    1
    43    27    28   ar
    44    12    10    1
    45    32    33    1
    46    28    34    1
    47    41    42   ar
    48    41    44    1
    49    34    37    1
    50    34    35    1
    51    10    11    1
    52    10    13    1
    53    42    43    1
