@<TRIPOS>MOLECULE
mol_data/opt/b3lyp/geoms/mol2/13fi13fi-.out
 26 27 0 0 0
SMALL
GASTEIGER

@<TRIPOS>ATOM
      1 C           1.1940   -0.3017   -0.4671 C.ar    1  LIG1        0.0445
      2 C           0.8380    0.9709   -0.0860 C.ar    1  LIG1        0.1376
      3 C          -0.5808    1.0277    0.0814 C.ar    1  LIG1        0.0178
      4 C          -1.0632   -0.2424   -0.2227 C.ar    1  LIG1        0.0730
      5 N           0.0265   -1.0464   -0.5153 N.ar    1  LIG1       -0.3561
      6 H          -0.0655   -1.9233   -1.0044 H       1  LIG1        0.1655
      7 H           2.1620   -0.7306   -0.6686 H       1  LIG1        0.0844
      8 O           1.7326    1.9835    0.1369 O.3     1  LIG1       -0.5050
      9 H           1.2375    2.7894    0.3285 H       1  LIG1        0.2922
     10 C          -1.3584    2.2146    0.5706 C.3     1  LIG1       -0.0342
     11 H          -2.3513    1.9151    0.9176 H       1  LIG1        0.0279
     12 H          -1.4980    2.9856   -0.2004 H       1  LIG1        0.0279
     13 H          -0.8596    2.6999    1.4204 H       1  LIG1        0.0279
     14 C          -2.3972   -0.8055   -0.2282 C.ar    1  LIG1        0.1055
     15 C          -2.8193   -2.0766    0.1419 C.ar    1  LIG1        0.1463
     16 C          -4.2258   -2.1791   -0.0450 C.ar    1  LIG1        0.0090
     17 C          -4.6321   -0.9495   -0.5290 C.ar    1  LIG1        0.0087
     18 N          -3.5410   -0.1212   -0.6176 N.ar    1  LIG1       -0.3563
     19 H          -3.5296    0.7819   -1.0612 H       1  LIG1        0.1655
     20 H          -5.6187   -0.6065   -0.8038 H       1  LIG1        0.0811
     21 O          -2.0426   -3.0983    0.6315 O.3     1  LIG1       -0.5043
     22 H          -1.2243   -2.7105    0.9752 H       1  LIG1        0.2922
     23 C          -5.0750   -3.3769    0.2545 C.3     1  LIG1       -0.0348
     24 H          -4.9788   -3.6850    1.3019 H       1  LIG1        0.0279
     25 H          -4.7873   -4.2402   -0.3566 H       1  LIG1        0.0279
     26 H          -6.1312   -3.1679    0.0615 H       1  LIG1        0.0279
@<TRIPOS>BOND
     1    19    18    1
     2     6     5    1
     3    20    17    1
     4     7     1    1
     5    18    17   ar
     6    18    14   ar
     7    17    16   ar
     8     5     1   ar
     9     5     4   ar
    10     1     2   ar
    11    25    23    1
    12    14     4    1
    13    14    15   ar
    14     4     3   ar
    15    12    10    1
    16     2     3   ar
    17     2     8    1
    18    16    15   ar
    19    16    23    1
    20    26    23    1
    21     3    10    1
    22     8     9    1
    23    15    21    1
    24    23    24    1
    25    10    11    1
    26    10    13    1
    27    21    22    1
