@<TRIPOS>MOLECULE
mol_data/opt/b3lyp/geoms/mol2/13fl13fl13fl-13fl.out
 54 57 0 0 0
SMALL
GASTEIGER

@<TRIPOS>ATOM
      1 C           1.4658   -0.3393    0.3492 C.ar    1  LIG1        0.0480
      2 C           1.2166    0.9066   -0.1786 C.ar    1  LIG1        0.1769
      3 C          -0.1837    0.9988   -0.4337 C.ar    1  LIG1        0.1882
      4 C          -0.7698   -0.2100   -0.0712 C.ar    1  LIG1        0.1126
      5 N           0.2589   -1.0293    0.3639 N.ar    1  LIG1       -0.3534
      6 H           0.0898   -1.8173    0.9690 H       1  LIG1        0.1656
      7 H           2.3874   -0.8009    0.6690 H       1  LIG1        0.0845
      8 O           2.0923    1.9209   -0.4670 O.3     1  LIG1       -0.5023
      9 H           2.9818    1.6429   -0.2150 H       1  LIG1        0.2923
     10 O          -0.8526    2.0551   -1.0273 O.3     1  LIG1       -0.4895
     11 C          -0.6783    3.3177   -0.3576 C.3     1  LIG1        0.0791
     12 H          -1.2515    4.0479   -0.9323 H       1  LIG1        0.0660
     13 H          -1.0638    3.2668    0.6675 H       1  LIG1        0.0660
     14 H           0.3761    3.6018   -0.3430 H       1  LIG1        0.0660
     15 C          -2.1332   -0.6694   -0.1354 C.ar    1  LIG1        0.1129
     16 C          -3.3232    0.0345   -0.3239 C.ar    1  LIG1        0.1866
     17 C          -4.3930   -0.8935   -0.2165 C.ar    1  LIG1        0.1889
     18 C          -3.8493   -2.1528    0.0202 C.ar    1  LIG1        0.1131
     19 N          -2.4783   -2.0006    0.0912 N.ar    1  LIG1       -0.3458
     20 H          -1.8571   -2.7851   -0.0405 H       1  LIG1        0.1662
     21 O          -3.4843    1.3680   -0.5356 O.3     1  LIG1       -0.5019
     22 H          -2.6231    1.7207   -0.8408 H       1  LIG1        0.2924
     23 O          -5.7405   -0.6677   -0.3622 O.3     1  LIG1       -0.4895
     24 C          -6.2724    0.3653    0.4753 C.3     1  LIG1        0.0791
     25 H          -7.3422    0.4118    0.2608 H       1  LIG1        0.0660
     26 H          -6.1224    0.1260    1.5360 H       1  LIG1        0.0660
     27 H          -5.8069    1.3293    0.2524 H       1  LIG1        0.0660
     28 C          -4.4880   -3.4309    0.1288 C.ar    1  LIG1        0.1129
     29 C          -3.9462   -4.6975    0.3216 C.ar    1  LIG1        0.1866
     30 C          -5.0090   -5.6269    0.3526 C.ar    1  LIG1        0.1889
     31 C          -6.2020   -4.9226    0.1830 C.ar    1  LIG1        0.1131
     32 N          -5.8599   -3.5991    0.0455 N.ar    1  LIG1       -0.3458
     33 H          -6.5057   -2.8401   -0.1267 H       1  LIG1        0.1662
     34 O          -2.6004   -4.9685    0.4319 O.3     1  LIG1       -0.5019
     35 H          -2.5173   -5.8221    0.8795 H       1  LIG1        0.2924
     36 O          -4.8773   -6.9916    0.5480 O.3     1  LIG1       -0.4895
     37 C          -4.5771   -7.7061   -0.6618 C.3     1  LIG1        0.0791
     38 H          -4.4519   -8.7557   -0.3840 H       1  LIG1        0.0660
     39 H          -5.3937   -7.6102   -1.3866 H       1  LIG1        0.0660
     40 H          -3.6523   -7.3358   -1.1189 H       1  LIG1        0.0660
     41 C          -7.5581   -5.3942    0.1775 C.ar    1  LIG1        0.1124
     42 C          -8.7504   -4.7241   -0.0467 C.ar    1  LIG1        0.1859
     43 C          -9.8086   -5.6597    0.0857 C.ar    1  LIG1        0.1793
     44 C          -9.2541   -6.8901    0.3924 C.ar    1  LIG1        0.0482
     45 N          -7.8851   -6.7174    0.4232 N.ar    1  LIG1       -0.3534
     46 H          -7.2078   -7.3795    0.7679 H       1  LIG1        0.1656
     47 H          -9.7091   -7.8503    0.5712 H       1  LIG1        0.0845
     48 O          -8.8587   -3.3910   -0.3489 O.3     1  LIG1       -0.5019
     49 H          -9.7958   -3.2021   -0.4949 H       1  LIG1        0.2924
     50 O         -11.1067   -5.2730   -0.1067 O.3     1  LIG1       -0.4900
     51 C         -12.0732   -6.2970    0.0566 C.3     1  LIG1        0.0790
     52 H         -13.0489   -5.8428   -0.1229 H       1  LIG1        0.0660
     53 H         -11.9120   -7.1118   -0.6624 H       1  LIG1        0.0660
     54 H         -12.0442   -6.7100    1.0741 H       1  LIG1        0.0660
@<TRIPOS>BOND
     1    39    37    1
     2    40    37    1
     3    10     3    1
     4    10    11    1
     5    12    11    1
     6    22    21    1
     7    53    51    1
     8    37    38    1
     9    37    36    1
    10    21    16    1
    11    49    48    1
    12     8     9    1
    13     8     2    1
    14     3     2   ar
    15     3     4   ar
    16    23    17    1
    17    23    24    1
    18    11    14    1
    19    11    13    1
    20    48    42    1
    21    16    17   ar
    22    16    15   ar
    23    17    18   ar
    24     2     1   ar
    25    15     4    1
    26    15    19   ar
    27    33    32    1
    28    52    51    1
    29    50    51    1
    30    50    43    1
    31     4     5   ar
    32    42    43   ar
    33    42    41   ar
    34    20    19    1
    35    18    19   ar
    36    18    28    1
    37    32    28   ar
    38    32    31   ar
    39    51    54    1
    40    43    44   ar
    41    28    29   ar
    42    41    31    1
    43    41    45   ar
    44    31    30   ar
    45    27    24    1
    46    25    24    1
    47    29    30   ar
    48    29    34    1
    49     1     5   ar
    50     1     7    1
    51    30    36    1
    52     5     6    1
    53    44    45   ar
    54    44    47    1
    55    45    46    1
    56    34    35    1
    57    24    26    1
