@<TRIPOS>MOLECULE
mol_data/opt/b3lyp/geoms/mol2/13fl13fl-13fl13fl-.out
 54 57 0 0 0
SMALL
GASTEIGER

@<TRIPOS>ATOM
      1 C           1.4570   -0.3433   -0.6185 C.ar    1  LIG1        0.0480
      2 C           1.0953    0.9878   -0.6260 C.ar    1  LIG1        0.1769
      3 C          -0.3151    1.0509   -0.4725 C.ar    1  LIG1        0.1882
      4 C          -0.7991   -0.2507   -0.3804 C.ar    1  LIG1        0.1126
      5 N           0.2958   -1.0789   -0.4631 N.ar    1  LIG1       -0.3534
      6 H           0.2236   -2.0838   -0.4309 H       1  LIG1        0.1656
      7 H           2.4251   -0.8086   -0.7060 H       1  LIG1        0.0845
      8 O           1.9376    2.0622   -0.7418 O.3     1  LIG1       -0.5023
      9 H           1.3893    2.8132   -1.0096 H       1  LIG1        0.2923
     10 O          -1.0646    2.2141   -0.4524 O.3     1  LIG1       -0.4895
     11 C          -1.1166    2.8313    0.8434 C.3     1  LIG1        0.0791
     12 H          -1.7042    3.7456    0.7317 H       1  LIG1        0.0660
     13 H          -1.6005    2.1721    1.5733 H       1  LIG1        0.0660
     14 H          -0.1108    3.0809    1.2013 H       1  LIG1        0.0660
     15 C          -2.1423   -0.7430   -0.2557 C.ar    1  LIG1        0.1129
     16 C          -2.6215   -2.0370   -0.0978 C.ar    1  LIG1        0.1866
     17 C          -4.0325   -1.9772   -0.0283 C.ar    1  LIG1        0.1889
     18 C          -4.4119   -0.6405   -0.1558 C.ar    1  LIG1        0.1131
     19 N          -3.2500    0.0876   -0.2753 N.ar    1  LIG1       -0.3458
     20 H          -3.2109    1.0807   -0.4569 H       1  LIG1        0.1662
     21 O          -1.8302   -3.1601   -0.0061 O.3     1  LIG1       -0.5019
     22 H          -2.3783   -3.9160   -0.2595 H       1  LIG1        0.2924
     23 O          -4.8763   -3.0630    0.1056 O.3     1  LIG1       -0.4895
     24 C          -5.0483   -3.4865    1.4674 C.3     1  LIG1        0.0791
     25 H          -5.7079   -4.3569    1.4425 H       1  LIG1        0.0660
     26 H          -4.0881   -3.7638    1.9181 H       1  LIG1        0.0660
     27 H          -5.5090   -2.6950    2.0693 H       1  LIG1        0.0660
     28 C          -5.7156   -0.0455   -0.2044 C.ar    1  LIG1        0.1129
     29 C          -6.0984    1.2877   -0.2961 C.ar    1  LIG1        0.1866
     30 C          -7.5128    1.3355   -0.3150 C.ar    1  LIG1        0.1889
     31 C          -7.9870    0.0266   -0.2464 C.ar    1  LIG1        0.1131
     32 N          -6.8825   -0.7902   -0.1655 N.ar    1  LIG1       -0.3458
     33 H          -6.9103   -1.8001   -0.1892 H       1  LIG1        0.1662
     34 O          -5.2231    2.3531   -0.3196 O.3     1  LIG1       -0.5019
     35 H          -5.6025    3.0289   -0.8983 H       1  LIG1        0.2924
     36 O          -8.2934    2.4719   -0.4212 O.3     1  LIG1       -0.4895
     37 C          -8.3329    3.2448    0.7886 C.3     1  LIG1        0.0791
     38 H          -8.9430    4.1264    0.5780 H       1  LIG1        0.0660
     39 H          -8.7828    2.6701    1.6067 H       1  LIG1        0.0660
     40 H          -7.3264    3.5589    1.0866 H       1  LIG1        0.0660
     41 C          -9.3320   -0.4741   -0.2806 C.ar    1  LIG1        0.1124
     42 C          -9.8186   -1.7673   -0.1668 C.ar    1  LIG1        0.1859
     43 C         -11.2302   -1.7149   -0.2903 C.ar    1  LIG1        0.1793
     44 C         -11.5917   -0.3919   -0.4811 C.ar    1  LIG1        0.0482
     45 N         -10.4292    0.3494   -0.4560 N.ar    1  LIG1       -0.3534
     46 H         -10.3345    1.3307   -0.6654 H       1  LIG1        0.1656
     47 H         -12.5559    0.0685   -0.6194 H       1  LIG1        0.0845
     48 O          -9.0465   -2.8838    0.0404 O.3     1  LIG1       -0.5019
     49 H          -9.6363   -3.6497    0.0113 H       1  LIG1        0.2924
     50 O         -11.9793   -2.8569   -0.2071 O.3     1  LIG1       -0.4900
     51 C         -13.3753   -2.6784   -0.3790 C.3     1  LIG1        0.0790
     52 H         -13.8331   -3.6651   -0.2936 H       1  LIG1        0.0660
     53 H         -13.7878   -2.0169    0.3949 H       1  LIG1        0.0660
     54 H         -13.6019   -2.2544   -1.3667 H       1  LIG1        0.0660
@<TRIPOS>BOND
     1    54    51    1
     2     9     8    1
     3    35    34    1
     4     8     2    1
     5     7     1    1
     6    46    45    1
     7     2     1   ar
     8     2     3   ar
     9    47    44    1
    10     1     5   ar
    11    44    45   ar
    12    44    43   ar
    13     3    10    1
    14     3     4   ar
    15     5     6    1
    16     5     4   ar
    17    20    19    1
    18    45    41   ar
    19    10    11    1
    20    36    30    1
    21    36    37    1
    22     4    15    1
    23    51    52    1
    24    51    50    1
    25    51    53    1
    26    34    29    1
    27    30    29   ar
    28    30    31   ar
    29    29    28   ar
    30    43    50    1
    31    43    42   ar
    32    41    31    1
    33    41    42   ar
    34    19    15   ar
    35    19    18   ar
    36    22    21    1
    37    15    16   ar
    38    31    32   ar
    39    28    32   ar
    40    28    18    1
    41    33    32    1
    42    42    48    1
    43    18    17   ar
    44    16    17   ar
    45    16    21    1
    46    17    23    1
    47    49    48    1
    48    23    24    1
    49    38    37    1
    50    12    11    1
    51    37    40    1
    52    37    39    1
    53    11    14    1
    54    11    13    1
    55    25    24    1
    56    24    26    1
    57    24    27    1
