@<TRIPOS>MOLECULE
mol_data/opt/b3lyp/geoms/mol2/13fl13fl-.out
 28 29 0 0 0
SMALL
GASTEIGER

@<TRIPOS>ATOM
      1 C           1.4195   -0.3246   -0.1425 C.ar    1  LIG1        0.0480
      2 C           1.0758    0.9896   -0.3816 C.ar    1  LIG1        0.1769
      3 C          -0.3429    1.0669   -0.3877 C.ar    1  LIG1        0.1882
      4 C          -0.8463   -0.2088   -0.1589 C.ar    1  LIG1        0.1126
      5 N           0.2414   -1.0352   -0.0059 N.ar    1  LIG1       -0.3534
      6 H           0.1571   -2.0252    0.1654 H       1  LIG1        0.1656
      7 H           2.3866   -0.7925   -0.0583 H       1  LIG1        0.0845
      8 O           1.9411    2.0386   -0.5570 O.3     1  LIG1       -0.5023
      9 H           1.4593    2.7179   -1.0491 H       1  LIG1        0.2923
     10 O          -1.0874    2.2128   -0.6144 O.3     1  LIG1       -0.4895
     11 C          -1.1825    3.0579    0.5433 C.3     1  LIG1        0.0791
     12 H          -1.7464    3.9438    0.2406 H       1  LIG1        0.0660
     13 H          -1.7062    2.5473    1.3600 H       1  LIG1        0.0660
     14 H          -0.1885    3.3589    0.8931 H       1  LIG1        0.0660
     15 C          -2.2028   -0.6844   -0.1097 C.ar    1  LIG1        0.1124
     16 C          -2.7067   -1.9452    0.1620 C.ar    1  LIG1        0.1859
     17 C          -4.1198   -1.8836    0.0571 C.ar    1  LIG1        0.1793
     18 C          -4.4645   -0.5862   -0.2806 C.ar    1  LIG1        0.0482
     19 N          -3.2893    0.1330   -0.3602 N.ar    1  LIG1       -0.3534
     20 H          -3.1830    1.0733   -0.7075 H       1  LIG1        0.1656
     21 H          -5.4238   -0.1272   -0.4532 H       1  LIG1        0.0845
     22 O          -1.9459   -3.0445    0.4813 O.3     1  LIG1       -0.5019
     23 H          -2.5527   -3.7854    0.6153 H       1  LIG1        0.2924
     24 O          -4.8836   -2.9943    0.2920 O.3     1  LIG1       -0.4900
     25 C          -6.2816   -2.8095    0.1454 C.3     1  LIG1        0.0790
     26 H          -6.7517   -3.7710    0.3577 H       1  LIG1        0.0660
     27 H          -6.6574   -2.0561    0.8509 H       1  LIG1        0.0660
     28 H          -6.5349   -2.4970   -0.8767 H       1  LIG1        0.0660
@<TRIPOS>BOND
     1     9     8    1
     2    28    25    1
     3    20    19    1
     4    10     3    1
     5    10    11    1
     6     8     2    1
     7    21    18    1
     8     3     2   ar
     9     3     4   ar
    10     2     1   ar
    11    19    18   ar
    12    19    15   ar
    13    18    17   ar
    14     4    15    1
    15     4     5   ar
    16     1     7    1
    17     1     5   ar
    18    15    16   ar
    19     5     6    1
    20    17    16   ar
    21    17    24    1
    22    25    24    1
    23    25    26    1
    24    25    27    1
    25    16    22    1
    26    12    11    1
    27    22    23    1
    28    11    14    1
    29    11    13    1
