@<TRIPOS>MOLECULE
mol_data/opt/b3lyp/geoms/mol2/13fl13fl-13fl.out
 41 43 0 0 0
SMALL
GASTEIGER

@<TRIPOS>ATOM
      1 C           1.4302   -0.6958   -0.5954 C.ar    1  LIG1        0.0480
      2 C           1.2009    0.6645   -0.5836 C.ar    1  LIG1        0.1769
      3 C          -0.1970    0.8632   -0.4309 C.ar    1  LIG1        0.1882
      4 C          -0.8063   -0.3858   -0.3601 C.ar    1  LIG1        0.1126
      5 N           0.2022   -1.3163   -0.4540 N.ar    1  LIG1       -0.3534
      6 H           0.0321   -2.3094   -0.4283 H       1  LIG1        0.1656
      7 H           2.3484   -1.2523   -0.6876 H       1  LIG1        0.0845
      8 O           2.1447    1.6522   -0.6833 O.3     1  LIG1       -0.5023
      9 H           1.6740    2.4571   -0.9421 H       1  LIG1        0.2923
     10 O          -0.8292    2.0930   -0.3961 O.3     1  LIG1       -0.4895
     11 C          -0.8275    2.6948    0.9081 C.3     1  LIG1        0.0791
     12 H          -1.3234    3.6629    0.8064 H       1  LIG1        0.0660
     13 H          -1.3765    2.0757    1.6269 H       1  LIG1        0.0660
     14 H           0.1960    2.8409    1.2732 H       1  LIG1        0.0660
     15 C          -2.1924   -0.7462   -0.2470 C.ar    1  LIG1        0.1129
     16 C          -2.7959   -1.9904   -0.1207 C.ar    1  LIG1        0.1866
     17 C          -4.1953   -1.7927   -0.0462 C.ar    1  LIG1        0.1889
     18 C          -4.4400   -0.4240   -0.1396 C.ar    1  LIG1        0.1131
     19 N          -3.2129    0.1893   -0.2459 N.ar    1  LIG1       -0.3458
     20 H          -3.0747    1.1771   -0.4097 H       1  LIG1        0.1662
     21 O          -2.1149   -3.1878   -0.0476 O.3     1  LIG1       -0.5019
     22 H          -2.6878   -3.8687   -0.4268 H       1  LIG1        0.2924
     23 O          -5.1529   -2.7849    0.0647 O.3     1  LIG1       -0.4895
     24 C          -5.2619   -3.3159    1.3950 C.3     1  LIG1        0.0791
     25 H          -6.0119   -4.1096    1.3558 H       1  LIG1        0.0660
     26 H          -4.3056   -3.7324    1.7314 H       1  LIG1        0.0660
     27 H          -5.5798   -2.5405    2.1017 H       1  LIG1        0.0660
     28 C          -5.6817    0.2968   -0.1678 C.ar    1  LIG1        0.1124
     29 C          -5.9340    1.6587   -0.2185 C.ar    1  LIG1        0.1859
     30 C          -7.3399    1.8414   -0.2556 C.ar    1  LIG1        0.1793
     31 C          -7.9322    0.5903   -0.2299 C.ar    1  LIG1        0.0482
     32 N          -6.9121   -0.3356   -0.1572 N.ar    1  LIG1       -0.3534
     33 H          -7.0015   -1.3360   -0.2401 H       1  LIG1        0.1656
     34 H          -8.9679    0.2936   -0.2450 H       1  LIG1        0.0845
     35 O          -4.9713    2.6376   -0.2202 O.3     1  LIG1       -0.5019
     36 H          -5.4230    3.4852   -0.3335 H       1  LIG1        0.2924
     37 O          -7.8777    3.0986   -0.3006 O.3     1  LIG1       -0.4900
     38 C          -9.2923    3.1486   -0.3795 C.3     1  LIG1        0.0790
     39 H          -9.5697    4.2030   -0.4214 H       1  LIG1        0.0660
     40 H          -9.6569    2.6382   -1.2812 H       1  LIG1        0.0660
     41 H          -9.7547    2.6853    0.5028 H       1  LIG1        0.0660
@<TRIPOS>BOND
     1    40    38    1
     2     9     8    1
     3     7     1    1
     4     8     2    1
     5     1     2   ar
     6     1     5   ar
     7     2     3   ar
     8     5     6    1
     9     5     4   ar
    10     3    10    1
    11     3     4   ar
    12    22    21    1
    13    39    38    1
    14    20    19    1
    15    10    11    1
    16    38    37    1
    17    38    41    1
    18     4    15    1
    19    36    35    1
    20    37    30    1
    21    30    31   ar
    22    30    29   ar
    23    15    19   ar
    24    15    16   ar
    25    19    18   ar
    26    34    31    1
    27    33    32    1
    28    31    32   ar
    29    35    29    1
    30    29    28   ar
    31    28    32   ar
    32    28    18    1
    33    18    17   ar
    34    16    21    1
    35    16    17   ar
    36    17    23    1
    37    23    24    1
    38    12    11    1
    39    11    14    1
    40    11    13    1
    41    25    24    1
    42    24    26    1
    43    24    27    1
