@<TRIPOS>MOLECULE
mol_data/opt/b3lyp/geoms/mol2/13fl13fl.out
 28 29 0 0 0
SMALL
GASTEIGER

@<TRIPOS>ATOM
      1 C           1.3582   -0.6534   -0.2523 C.ar    1  LIG1        0.0480
      2 C           1.3046    0.6749    0.0997 C.ar    1  LIG1        0.1769
      3 C          -0.0641    1.0316    0.2721 C.ar    1  LIG1        0.1882
      4 C          -0.8382   -0.0953    0.0246 C.ar    1  LIG1        0.1126
      5 N           0.0521   -1.1178   -0.2660 N.ar    1  LIG1       -0.3534
      6 H          -0.2394   -1.9672   -0.7225 H       1  LIG1        0.1656
      7 H           2.1981   -1.2952   -0.4637 H       1  LIG1        0.0845
      8 O           2.3597    1.5190    0.2995 O.3     1  LIG1       -0.5023
      9 H           2.0014    2.2856    0.7717 H       1  LIG1        0.2923
     10 O          -0.4527    2.2651    0.7365 O.3     1  LIG1       -0.4895
     11 C          -0.6592    3.2434   -0.2960 C.3     1  LIG1        0.0791
     12 H          -0.9030    4.1785    0.2142 H       1  LIG1        0.0660
     13 H           0.2504    3.3829   -0.8943 H       1  LIG1        0.0660
     14 H          -1.4875    2.9504   -0.9454 H       1  LIG1        0.0660
     15 C          -2.2601   -0.3589    0.1033 C.ar    1  LIG1        0.1124
     16 C          -3.3757    0.3579   -0.2849 C.ar    1  LIG1        0.1859
     17 C          -4.5289   -0.4171    0.0308 C.ar    1  LIG1        0.1793
     18 C          -4.1124   -1.5988    0.6023 C.ar    1  LIG1        0.0482
     19 N          -2.7267   -1.5788    0.6007 N.ar    1  LIG1       -0.3534
     20 H          -2.1772   -2.1089    1.2601 H       1  LIG1        0.1656
     21 H          -4.6656   -2.4438    0.9787 H       1  LIG1        0.0845
     22 O          -3.4001    1.5624   -0.9298 O.3     1  LIG1       -0.5019
     23 H          -4.3308    1.7788   -1.0836 H       1  LIG1        0.2924
     24 O          -5.7708    0.0499   -0.2960 O.3     1  LIG1       -0.4900
     25 C          -6.8511   -0.8013    0.0518 C.3     1  LIG1        0.0790
     26 H          -7.7650   -0.2995   -0.2694 H       1  LIG1        0.0660
     27 H          -6.7681   -1.7714   -0.4566 H       1  LIG1        0.0660
     28 H          -6.8882   -0.9693    1.1364 H       1  LIG1        0.0660
@<TRIPOS>BOND
     1    23    22    1
     2    14    11    1
     3    22    16    1
     4    13    11    1
     5     6     5    1
     6     7     1    1
     7    27    25    1
     8    11    12    1
     9    11    10    1
    10    24    17    1
    11    24    25    1
    12    16    17   ar
    13    16    15   ar
    14    26    25    1
    15     5     1   ar
    16     5     4   ar
    17     1     2   ar
    18     4    15    1
    19     4     3   ar
    20    17    18   ar
    21    25    28    1
    22     2     3   ar
    23     2     8    1
    24    15    19   ar
    25     3    10    1
    26     8     9    1
    27    19    18   ar
    28    19    20    1
    29    18    21    1
