@<TRIPOS>MOLECULE
mol_data/opt/b3lyp/geoms/mol2/13fl13fl13fl13fl-.out
 54 57 0 0 0
SMALL
GASTEIGER

@<TRIPOS>ATOM
      1 C           1.3714   -0.3951    0.6297 C.ar    1  LIG1        0.0480
      2 C           1.0461    0.9076    0.9245 C.ar    1  LIG1        0.1769
      3 C          -0.3455    1.0847    0.6738 C.ar    1  LIG1        0.1882
      4 C          -0.8615   -0.1276    0.2294 C.ar    1  LIG1        0.1126
      5 N           0.1973   -1.0238    0.2395 N.ar    1  LIG1       -0.3534
      6 H           0.1706   -1.8843   -0.2840 H       1  LIG1        0.1656
      7 H           2.3103   -0.9209    0.6917 H       1  LIG1        0.0845
      8 O           1.8768    1.8755    1.4142 O.3     1  LIG1       -0.5023
      9 H           1.2990    2.5738    1.7568 H       1  LIG1        0.2923
     10 O          -1.0097    2.2499    0.9736 O.3     1  LIG1       -0.4895
     11 C          -0.9895    3.2229   -0.0835 C.3     1  LIG1        0.0791
     12 H          -1.4944    4.1097    0.3073 H       1  LIG1        0.0660
     13 H           0.0403    3.4831   -0.3602 H       1  LIG1        0.0660
     14 H          -1.5259    2.8512   -0.9597 H       1  LIG1        0.0660
     15 C          -2.1909   -0.5680   -0.1205 C.ar    1  LIG1        0.1129
     16 C          -3.2709    0.0494   -0.7198 C.ar    1  LIG1        0.1866
     17 C          -4.3308   -0.8959   -0.8332 C.ar    1  LIG1        0.1889
     18 C          -3.8966   -2.1032   -0.3081 C.ar    1  LIG1        0.1131
     19 N          -2.5732   -1.9033    0.0866 N.ar    1  LIG1       -0.3458
     20 H          -2.1983   -2.4169    0.8725 H       1  LIG1        0.1662
     21 O          -3.3314    1.3162   -1.2242 O.3     1  LIG1       -0.5019
     22 H          -4.0913    1.3264   -1.8266 H       1  LIG1        0.2924
     23 O          -5.4897   -0.6071   -1.5107 O.3     1  LIG1       -0.4895
     24 C          -6.5009    0.0179   -0.7014 C.3     1  LIG1        0.0791
     25 H          -7.3244    0.2612   -1.3770 H       1  LIG1        0.0660
     26 H          -6.8506   -0.6681    0.0735 H       1  LIG1        0.0660
     27 H          -6.1237    0.9396   -0.2411 H       1  LIG1        0.0660
     28 C          -4.4951   -3.4104   -0.1986 C.ar    1  LIG1        0.1129
     29 C          -5.8011   -3.8475   -0.0085 C.ar    1  LIG1        0.1866
     30 C          -5.7840   -5.2618    0.0699 C.ar    1  LIG1        0.1889
     31 C          -4.4698   -5.6917   -0.0766 C.ar    1  LIG1        0.1131
     32 N          -3.7029   -4.5572   -0.2086 N.ar    1  LIG1       -0.3458
     33 H          -2.7386   -4.5807   -0.5053 H       1  LIG1        0.1662
     34 O          -6.9085   -3.0582    0.1559 O.3     1  LIG1       -0.5019
     35 H          -7.6741   -3.5888   -0.1055 H       1  LIG1        0.2924
     36 O          -6.8944   -6.0663    0.2510 O.3     1  LIG1       -0.4895
     37 C          -7.3169   -6.1438    1.6230 C.3     1  LIG1        0.0791
     38 H          -8.2170   -6.7629    1.6394 H       1  LIG1        0.0660
     39 H          -6.5405   -6.6027    2.2461 H       1  LIG1        0.0660
     40 H          -7.5490   -5.1490    2.0192 H       1  LIG1        0.0660
     41 C          -3.9217   -7.0161   -0.1488 C.ar    1  LIG1        0.1124
     42 C          -2.6106   -7.4417   -0.2924 C.ar    1  LIG1        0.1859
     43 C          -2.6139   -8.8586   -0.3456 C.ar    1  LIG1        0.1793
     44 C          -3.9269   -9.2842   -0.2378 C.ar    1  LIG1        0.0482
     45 N          -4.7064   -8.1544   -0.0986 N.ar    1  LIG1       -0.3534
     46 H          -5.7130   -8.1135   -0.1318 H       1  LIG1        0.1656
     47 H          -4.3553  -10.2728   -0.2355 H       1  LIG1        0.0845
     48 O          -1.5170   -6.6132   -0.3643 O.3     1  LIG1       -0.5019
     49 H          -0.7413   -7.1747   -0.5016 H       1  LIG1        0.2924
     50 O          -1.4419   -9.5513   -0.4726 O.3     1  LIG1       -0.4900
     51 C          -1.5756  -10.9616   -0.5470 C.3     1  LIG1        0.0790
     52 H          -0.5692  -11.3689   -0.6534 H       1  LIG1        0.0660
     53 H          -2.0372  -11.3635    0.3650 H       1  LIG1        0.0660
     54 H          -2.1831  -11.2561   -1.4133 H       1  LIG1        0.0660
@<TRIPOS>BOND
     1    22    21    1
     2    23    17    1
     3    23    24    1
     4    54    51    1
     5    25    24    1
     6    21    16    1
     7    14    11    1
     8    17    16   ar
     9    17    18   ar
    10    16    15   ar
    11    24    27    1
    12    24    26    1
    13    52    51    1
    14    51    50    1
    15    51    53    1
    16    33    32    1
    17    49    48    1
    18    50    43    1
    19    48    42    1
    20    13    11    1
    21    43    42   ar
    22    43    44   ar
    23    18    28    1
    24    18    19   ar
    25    42    41   ar
    26     6     5    1
    27    44    47    1
    28    44    45   ar
    29    32    28   ar
    30    32    31   ar
    31    28    29   ar
    32    41    45   ar
    33    41    31    1
    34    46    45    1
    35    15    19   ar
    36    15     4    1
    37    35    34    1
    38    11    12    1
    39    11    10    1
    40    31    30   ar
    41    29    30   ar
    42    29    34    1
    43    30    36    1
    44    19    20    1
    45     4     5   ar
    46     4     3   ar
    47     5     1   ar
    48    36    37    1
    49     1     7    1
    50     1     2   ar
    51     3     2   ar
    52     3    10    1
    53     2     8    1
    54     8     9    1
    55    37    38    1
    56    37    40    1
    57    37    39    1
