@<TRIPOS>MOLECULE
mol_data/opt/b3lyp/geoms/mol2/13fl13fl13fl.out
 41 43 0 0 0
SMALL
GASTEIGER

@<TRIPOS>ATOM
      1 C           1.2875   -0.4794   -0.2915 C.ar    1  LIG1        0.0480
      2 C           1.0609    0.8467   -0.0091 C.ar    1  LIG1        0.1769
      3 C          -0.3510    1.0325    0.1055 C.ar    1  LIG1        0.1882
      4 C          -0.9644   -0.1982   -0.0919 C.ar    1  LIG1        0.1126
      5 N           0.0528   -1.1226   -0.2864 N.ar    1  LIG1       -0.3534
      6 H          -0.1069   -1.9660   -0.8159 H       1  LIG1        0.1656
      7 H           2.2078   -1.0214   -0.4471 H       1  LIG1        0.0845
      8 O           1.9618    1.8605    0.1835 O.3     1  LIG1       -0.5023
      9 H           2.8523    1.5158    0.0406 H       1  LIG1        0.2923
     10 O          -1.0145    2.1936    0.4561 O.3     1  LIG1       -0.4895
     11 C          -0.6939    3.3343   -0.3631 C.3     1  LIG1        0.0791
     12 H          -1.2908    4.1620    0.0247 H       1  LIG1        0.0660
     13 H           0.3684    3.5751   -0.2886 H       1  LIG1        0.0660
     14 H          -0.9600    3.1432   -1.4093 H       1  LIG1        0.0660
     15 C          -2.3523   -0.5859   -0.0671 C.ar    1  LIG1        0.1129
     16 C          -3.5118    0.1782   -0.1975 C.ar    1  LIG1        0.1866
     17 C          -4.6245   -0.7088   -0.1888 C.ar    1  LIG1        0.1889
     18 C          -4.1372   -2.0061   -0.0539 C.ar    1  LIG1        0.1131
     19 N          -2.7566   -1.9127   -0.0024 N.ar    1  LIG1       -0.3458
     20 H          -2.1586   -2.6924    0.2156 H       1  LIG1        0.1662
     21 O          -3.6036    1.5310   -0.3216 O.3     1  LIG1       -0.5019
     22 H          -2.7792    1.9093    0.0445 H       1  LIG1        0.2924
     23 O          -5.9457   -0.3974   -0.3273 O.3     1  LIG1       -0.4895
     24 C          -6.4365    0.5755    0.5967 C.3     1  LIG1        0.0791
     25 H          -7.4973    0.7017    0.3697 H       1  LIG1        0.0660
     26 H          -6.3278    0.2255    1.6322 H       1  LIG1        0.0660
     27 H          -5.9176    1.5322    0.4845 H       1  LIG1        0.0660
     28 C          -4.8114   -3.2774    0.0770 C.ar    1  LIG1        0.1124
     29 C          -5.8987   -3.8236   -0.5755 C.ar    1  LIG1        0.1859
     30 C          -6.1060   -5.1365   -0.0525 C.ar    1  LIG1        0.1793
     31 C          -5.1475   -5.3814    0.9027 C.ar    1  LIG1        0.0482
     32 N          -4.3186   -4.2653    0.9438 N.ar    1  LIG1       -0.3534
     33 H          -3.8677   -3.9924    1.8058 H       1  LIG1        0.1656
     34 H          -4.9642   -6.2420    1.5254 H       1  LIG1        0.0845
     35 O          -6.6070   -3.2676   -1.5952 O.3     1  LIG1       -0.5019
     36 H          -7.2796   -3.9131   -1.8550 H       1  LIG1        0.2924
     37 O          -7.0979   -5.9216   -0.5679 O.3     1  LIG1       -0.4900
     38 C          -7.2151   -7.2114    0.0099 C.3     1  LIG1        0.0790
     39 H          -8.0408   -7.7116   -0.4982 H       1  LIG1        0.0660
     40 H          -6.2933   -7.7921   -0.1306 H       1  LIG1        0.0660
     41 H          -7.4337   -7.1449    1.0841 H       1  LIG1        0.0660
@<TRIPOS>BOND
     1    36    35    1
     2    35    29    1
     3    14    11    1
     4     6     5    1
     5    29    30   ar
     6    29    28   ar
     7    37    30    1
     8    37    38    1
     9    39    38    1
    10     7     1    1
    11    11    13    1
    12    11    12    1
    13    11    10    1
    14    23    17    1
    15    23    24    1
    16    21    16    1
    17    21    22    1
    18     1     5   ar
    19     1     2   ar
    20     5     4   ar
    21    16    17   ar
    22    16    15   ar
    23    17    18   ar
    24    40    38    1
    25     4    15    1
    26     4     3   ar
    27    15    19   ar
    28    18    19   ar
    29    18    28    1
    30    30    31   ar
    31     2     3   ar
    32     2     8    1
    33    19    20    1
    34    38    41    1
    35     9     8    1
    36    28    32   ar
    37     3    10    1
    38    25    24    1
    39    27    24    1
    40    24    26    1
    41    31    32   ar
    42    31    34    1
    43    32    33    1
