@<TRIPOS>MOLECULE
mol_data/opt/b3lyp/geoms/mol2/13fl13fl13fl13fl.out
 54 57 0 0 0
SMALL
GASTEIGER

@<TRIPOS>ATOM
      1 C           1.1261   -0.0850   -2.0734 C.ar    1  LIG1        0.0480
      2 C           1.3565    0.5421   -0.8708 C.ar    1  LIG1        0.1769
      3 C           0.1350    0.5492   -0.1387 C.ar    1  LIG1        0.1882
      4 C          -0.8371   -0.0784   -0.9069 C.ar    1  LIG1        0.1126
      5 N          -0.2007   -0.4822   -2.0725 N.ar    1  LIG1       -0.3534
      6 H          -0.7112   -0.7293   -2.9056 H       1  LIG1        0.1656
      7 H           1.7876   -0.2935   -2.8988 H       1  LIG1        0.0845
      8 O           2.5423    1.0373   -0.4099 O.3     1  LIG1       -0.5023
      9 H           2.3934    1.2470    0.5247 H       1  LIG1        0.2923
     10 O           0.0663    1.0079    1.1551 O.3     1  LIG1       -0.4895
     11 C          -0.4400    2.3463    1.2869 C.3     1  LIG1        0.0791
     12 H          -0.3900    2.5874    2.3517 H       1  LIG1        0.0660
     13 H           0.1782    3.0578    0.7244 H       1  LIG1        0.0660
     14 H          -1.4739    2.4105    0.9370 H       1  LIG1        0.0660
     15 C          -2.2292   -0.4112   -0.6550 C.ar    1  LIG1        0.1129
     16 C          -3.3437    0.3558   -0.3687 C.ar    1  LIG1        0.1866
     17 C          -4.4695   -0.5007   -0.2466 C.ar    1  LIG1        0.1889
     18 C          -4.0495   -1.8088   -0.4740 C.ar    1  LIG1        0.1131
     19 N          -2.6788   -1.7317   -0.6825 N.ar    1  LIG1       -0.3458
     20 H          -2.1346   -2.4840   -1.0740 H       1  LIG1        0.1662
     21 O          -3.3954    1.7107   -0.2072 O.3     1  LIG1       -0.5019
     22 H          -4.3173    1.9133    0.0160 H       1  LIG1        0.2924
     23 O          -5.6877    0.0513    0.0474 O.3     1  LIG1       -0.4895
     24 C          -6.5307   -0.6629    0.9526 C.3     1  LIG1        0.0791
     25 H          -7.3151    0.0360    1.2522 H       1  LIG1        0.0660
     26 H          -6.9853   -1.5283    0.4640 H       1  LIG1        0.0660
     27 H          -5.9711   -0.9863    1.8390 H       1  LIG1        0.0660
     28 C          -4.7170   -3.0934   -0.4794 C.ar    1  LIG1        0.1129
     29 C          -5.9167   -3.5316   -1.0200 C.ar    1  LIG1        0.1866
     30 C          -6.0288   -4.9284   -0.8059 C.ar    1  LIG1        0.1889
     31 C          -4.8795   -5.3628   -0.1461 C.ar    1  LIG1        0.1131
     32 N          -4.1122   -4.2280    0.0566 N.ar    1  LIG1       -0.3458
     33 H          -3.1953   -4.2365    0.4724 H       1  LIG1        0.1662
     34 O          -6.8569   -2.7651   -1.6446 O.3     1  LIG1       -0.5019
     35 H          -7.5526   -3.3798   -1.9257 H       1  LIG1        0.2924
     36 O          -7.1296   -5.6006   -1.2704 O.3     1  LIG1       -0.4895
     37 C          -7.7911   -6.4609   -0.3401 C.3     1  LIG1        0.0791
     38 H          -8.7366   -6.7455   -0.8070 H       1  LIG1        0.0660
     39 H          -7.2015   -7.3609   -0.1472 H       1  LIG1        0.0660
     40 H          -7.9910   -5.9400    0.6047 H       1  LIG1        0.0660
     41 C          -4.4305   -6.6507    0.3333 C.ar    1  LIG1        0.1124
     42 C          -4.5407   -7.9253   -0.1904 C.ar    1  LIG1        0.1859
     43 C          -3.8467   -8.8196    0.6763 C.ar    1  LIG1        0.1793
     44 C          -3.3111   -8.0871    1.7119 C.ar    1  LIG1        0.0482
     45 N          -3.6295   -6.7570    1.4753 N.ar    1  LIG1       -0.3534
     46 H          -3.7122   -6.0899    2.2281 H       1  LIG1        0.1656
     47 H          -2.7244   -8.3826    2.5663 H       1  LIG1        0.0845
     48 O          -5.1619   -8.2742   -1.3544 O.3     1  LIG1       -0.5019
     49 H          -5.0053   -9.2205   -1.4856 H       1  LIG1        0.2924
     50 O          -3.7655  -10.1452    0.3606 O.3     1  LIG1       -0.4900
     51 C          -3.0075  -10.9406    1.2594 C.3     1  LIG1        0.0790
     52 H          -3.0256  -11.9596    0.8707 H       1  LIG1        0.0660
     53 H          -1.9692  -10.5882    1.3173 H       1  LIG1        0.0660
     54 H          -3.4466  -10.9259    2.2658 H       1  LIG1        0.0660
@<TRIPOS>BOND
     1     6     5    1
     2     7     1    1
     3     1     5   ar
     4     1     2   ar
     5     5     4   ar
     6    35    34    1
     7    34    29    1
     8    49    48    1
     9    48    42    1
    10    36    30    1
    11    36    37    1
    12    20    19    1
    13    29    30   ar
    14    29    28   ar
    15     4    15    1
    16     4     3   ar
    17     2     8    1
    18     2     3   ar
    19    38    37    1
    20    30    31   ar
    21    19    15   ar
    22    19    18   ar
    23    15    16   ar
    24    28    18    1
    25    28    32   ar
    26    18    17   ar
    27     8     9    1
    28    16    17   ar
    29    16    21    1
    30    37    39    1
    31    37    40    1
    32    17    23    1
    33    21    22    1
    34    42    41   ar
    35    42    43   ar
    36    31    32   ar
    37    31    41    1
    38     3    10    1
    39    23    24    1
    40    32    33    1
    41    41    45   ar
    42    50    43    1
    43    50    51    1
    44    26    24    1
    45    43    44   ar
    46    13    11    1
    47    52    51    1
    48    14    11    1
    49    24    25    1
    50    24    27    1
    51    10    11    1
    52    51    53    1
    53    51    54    1
    54    11    12    1
    55    45    44   ar
    56    45    46    1
    57    44    47    1
