@<TRIPOS>MOLECULE
mol_data/opt/b3lyp/geoms/mol2/13ga13ga13ga-13ga-.out
 38 41 0 0 0
SMALL
GASTEIGER

@<TRIPOS>ATOM
      1 C           0.8990    0.1534    0.9018 C.ar    1  LIG1        0.0154
      2 C           0.8089    0.9791   -0.2016 C.ar    1  LIG1        0.0227
      3 C          -0.4685    0.7651   -0.7975 C.ar    1  LIG1       -0.0218
      4 C          -1.1336   -0.1784   -0.0363 C.ar    1  LIG1        0.0650
      5 N          -0.2689   -0.5619    0.9836 N.ar    1  LIG1       -0.3585
      6 H          -0.5533   -1.0950    1.7909 H       1  LIG1        0.1654
      7 H           1.6984    0.0267    1.6157 H       1  LIG1        0.0818
      8 S           2.1293    2.0070   -0.8056 S.3     1  LIG1       -0.1412
      9 H           1.6168    3.2067   -0.4521 H       1  LIG1        0.1072
     10 H          -0.8427    1.2277   -1.6977 H       1  LIG1        0.0650
     11 C          -2.4431   -0.7876   -0.1717 C.ar    1  LIG1        0.0767
     12 C          -3.6924   -0.2749   -0.5224 C.ar    1  LIG1        0.0321
     13 C          -4.6350   -1.3366   -0.4585 C.ar    1  LIG1       -0.0211
     14 C          -3.9654   -2.4808   -0.0573 C.ar    1  LIG1        0.0655
     15 N          -2.6345   -2.1282    0.1031 N.ar    1  LIG1       -0.3510
     16 H          -1.9007   -2.7672    0.3656 H       1  LIG1        0.1660
     17 S          -4.0238    1.3976   -1.0233 S.3     1  LIG1       -0.1405
     18 H          -4.7444    1.7758    0.0558 H       1  LIG1        0.1072
     19 H          -5.6834   -1.2719   -0.7080 H       1  LIG1        0.0650
     20 C          -4.4187   -3.8367    0.1556 C.ar    1  LIG1        0.0767
     21 C          -5.6019   -4.3499    0.6714 C.ar    1  LIG1        0.0321
     22 C          -5.5182   -5.7716    0.6359 C.ar    1  LIG1       -0.0211
     23 C          -4.2873   -6.1119    0.1099 C.ar    1  LIG1        0.0655
     24 N          -3.6041   -4.9260   -0.1534 N.ar    1  LIG1       -0.3510
     25 H          -2.9167   -4.8701   -0.8924 H       1  LIG1        0.1660
     26 S          -6.9625   -3.3778    1.2675 S.3     1  LIG1       -0.1405
     27 H          -7.2598   -4.1581    2.3272 H       1  LIG1        0.1072
     28 H          -6.2630   -6.4687    0.9875 H       1  LIG1        0.0650
     29 C          -3.6640   -7.3935   -0.1456 C.ar    1  LIG1        0.0762
     30 C          -4.1775   -8.6545   -0.4536 C.ar    1  LIG1        0.0315
     31 C          -3.0752   -9.5434   -0.6205 C.ar    1  LIG1       -0.0305
     32 C          -1.9239   -8.8201   -0.4225 C.ar    1  LIG1        0.0033
     33 N          -2.2872   -7.5198   -0.1504 N.ar    1  LIG1       -0.3586
     34 H          -1.6617   -6.8090    0.1948 H       1  LIG1        0.1654
     35 H          -0.8860   -9.1153   -0.4501 H       1  LIG1        0.0807
     36 S          -5.8946   -9.1005   -0.5671 S.3     1  LIG1       -0.1405
     37 H          -6.0472   -8.9810   -1.9056 H       1  LIG1        0.1072
     38 H          -3.1426  -10.5932   -0.8653 H       1  LIG1        0.0644
@<TRIPOS>BOND
     1    37    36    1
     2    10     3    1
     3    17    12    1
     4    17    18    1
     5    25    24    1
     6    38    31    1
     7     8     9    1
     8     8     2    1
     9     3     2   ar
    10     3     4   ar
    11    19    13    1
    12    31    30   ar
    13    31    32   ar
    14    36    30    1
    15    12    13   ar
    16    12    11   ar
    17    13    14   ar
    18    30    29   ar
    19    35    32    1
    20    32    33   ar
    21     2     1   ar
    22    11     4    1
    23    11    15   ar
    24    24    23   ar
    25    24    20   ar
    26    33    29   ar
    27    33    34    1
    28    29    23    1
    29    14    15   ar
    30    14    20    1
    31     4     5   ar
    32    15    16    1
    33    23    22   ar
    34    20    21   ar
    35    22    21   ar
    36    22    28    1
    37    21    26    1
    38     1     5   ar
    39     1     7    1
    40     5     6    1
    41    26    27    1
