@<TRIPOS>MOLECULE
mol_data/opt/b3lyp/geoms/mol2/13ga13ga-13ga-13ga.out
 38 41 0 0 0
SMALL
GASTEIGER

@<TRIPOS>ATOM
      1 C           1.0957   -0.2414    0.4922 C.ar    1  LIG1        0.0154
      2 C           0.6288    0.9994    0.8806 C.ar    1  LIG1        0.0227
      3 C          -0.7878    0.9948    0.7256 C.ar    1  LIG1       -0.0218
      4 C          -1.1517   -0.2460    0.2301 C.ar    1  LIG1        0.0650
      5 N           0.0126   -0.9958    0.1195 N.ar    1  LIG1       -0.3585
      6 H           0.0656   -1.8837   -0.3540 H       1  LIG1        0.1654
      7 H           2.1017   -0.6307    0.4624 H       1  LIG1        0.0818
      8 S           1.6399    2.2896    1.5712 S.3     1  LIG1       -0.1412
      9 H           1.6245    3.1328    0.5150 H       1  LIG1        0.1072
     10 H          -1.4624    1.7960    0.9867 H       1  LIG1        0.0650
     11 C          -2.4391   -0.8072   -0.1146 C.ar    1  LIG1        0.0767
     12 C          -3.5926   -0.2400   -0.6420 C.ar    1  LIG1        0.0321
     13 C          -4.5751   -1.2657   -0.7560 C.ar    1  LIG1       -0.0211
     14 C          -4.0125   -2.4455   -0.3110 C.ar    1  LIG1        0.0655
     15 N          -2.6941   -2.1675    0.0512 N.ar    1  LIG1       -0.3510
     16 H          -2.2239   -2.6974    0.7724 H       1  LIG1        0.1660
     17 S          -3.7843    1.4682   -1.0855 S.3     1  LIG1       -0.1405
     18 H          -4.4291    1.2591   -2.2524 H       1  LIG1        0.1072
     19 H          -5.5722   -1.1571   -1.1540 H       1  LIG1        0.0650
     20 C          -4.5345   -3.7916   -0.2173 C.ar    1  LIG1        0.0767
     21 C          -5.8142   -4.3004    0.0210 C.ar    1  LIG1        0.0321
     22 C          -5.7236   -5.7175    0.0484 C.ar    1  LIG1       -0.0211
     23 C          -4.4017   -6.0678   -0.1618 C.ar    1  LIG1        0.0655
     24 N          -3.6972   -4.8844   -0.3264 N.ar    1  LIG1       -0.3510
     25 H          -2.7072   -4.8245   -0.5052 H       1  LIG1        0.1660
     26 S          -7.3073   -3.3501    0.1881 S.3     1  LIG1       -0.1405
     27 H          -7.4228   -3.4032    1.5341 H       1  LIG1        0.1072
     28 H          -6.5427   -6.4051    0.1910 H       1  LIG1        0.0650
     29 C          -3.7426   -7.3555   -0.2681 C.ar    1  LIG1        0.0762
     30 C          -3.8969   -8.5522    0.4288 C.ar    1  LIG1        0.0315
     31 C          -2.9625   -9.4900   -0.1041 C.ar    1  LIG1       -0.0305
     32 C          -2.2573   -8.8542   -1.0962 C.ar    1  LIG1        0.0033
     33 N          -2.7219   -7.5596   -1.1813 N.ar    1  LIG1       -0.3586
     34 H          -2.5327   -6.9381   -1.9526 H       1  LIG1        0.1654
     35 H          -1.4722   -9.2087   -1.7470 H       1  LIG1        0.0807
     36 S          -5.0764   -8.8630    1.7215 S.3     1  LIG1       -0.1405
     37 H          -4.2254   -8.8397    2.7720 H       1  LIG1        0.1072
     38 H          -2.8324  -10.5106    0.2250 H       1  LIG1        0.0644
@<TRIPOS>BOND
     1    18    17    1
     2    34    33    1
     3    35    32    1
     4    33    32   ar
     5    33    29   ar
     6    19    13    1
     7    32    31   ar
     8    17    12    1
     9    13    12   ar
    10    13    14   ar
    11    12    11   ar
    12    25    24    1
    13     6     5    1
    14    24    20   ar
    15    24    23   ar
    16    14    20    1
    17    14    15   ar
    18    29    23    1
    19    29    30   ar
    20    20    21   ar
    21    23    22   ar
    22    11    15   ar
    23    11     4    1
    24    31    38    1
    25    31    30   ar
    26    21    22   ar
    27    21    26    1
    28    22    28    1
    29    15    16    1
    30     5     4   ar
    31     5     1   ar
    32    26    27    1
    33     4     3   ar
    34    30    36    1
    35     7     1    1
    36     1     2   ar
    37     9     8    1
    38     3     2   ar
    39     3    10    1
    40     2     8    1
    41    36    37    1
