@<TRIPOS>MOLECULE
mol_data/opt/b3lyp/geoms/mol2/13ga13ga.out
 20 21 0 0 0
SMALL
GASTEIGER

@<TRIPOS>ATOM
      1 C           1.0388   -0.2023    0.3783 C.ar    1  LIG1        0.0154
      2 C           0.6956    0.9723   -0.2627 C.ar    1  LIG1        0.0227
      3 C          -0.6960    0.9087   -0.5650 C.ar    1  LIG1       -0.0218
      4 C          -1.1732   -0.2991   -0.0898 C.ar    1  LIG1        0.0650
      5 N          -0.0912   -0.9749    0.4622 N.ar    1  LIG1       -0.3585
      6 H          -0.1737   -1.8101    1.0206 H       1  LIG1        0.1654
      7 H           1.9890   -0.5341    0.7676 H       1  LIG1        0.0818
      8 S           1.8480    2.2471   -0.7223 S.3     1  LIG1       -0.1412
      9 H           1.4807    3.1777    0.1865 H       1  LIG1        0.1072
     10 H          -1.2742    1.6510   -1.0930 H       1  LIG1        0.0650
     11 C          -2.4905   -0.9082   -0.1278 C.ar    1  LIG1        0.0762
     12 C          -3.7759   -0.3921    0.0261 C.ar    1  LIG1        0.0315
     13 C          -4.6975   -1.4743   -0.1006 C.ar    1  LIG1       -0.0305
     14 C          -3.9674   -2.6176   -0.3160 C.ar    1  LIG1        0.0033
     15 N          -2.6341   -2.2705   -0.3175 N.ar    1  LIG1       -0.3586
     16 H          -1.8860   -2.8709   -0.6281 H       1  LIG1        0.1654
     17 H          -4.2779   -3.6402   -0.4688 H       1  LIG1        0.0807
     18 S          -4.1988    1.3146    0.2883 S.3     1  LIG1       -0.1405
     19 H          -4.4071    1.2654    1.6237 H       1  LIG1        0.1072
     20 H          -5.7728   -1.4007   -0.0295 H       1  LIG1        0.0644
@<TRIPOS>BOND
     1    10     3    1
     2     8     2    1
     3     8     9    1
     4    16    15    1
     5     3     2   ar
     6     3     4   ar
     7    17    14    1
     8    15    14   ar
     9    15    11   ar
    10    14    13   ar
    11     2     1   ar
    12    11     4    1
    13    11    12   ar
    14    13    20    1
    15    13    12   ar
    16     4     5   ar
    17    12    18    1
    18    18    19    1
    19     1     5   ar
    20     1     7    1
    21     5     6    1
