@<TRIPOS>MOLECULE
mol_data/opt/b3lyp/geoms/mol2/13ga13ga13ga.out
 29 31 0 0 0
SMALL
GASTEIGER

@<TRIPOS>ATOM
      1 C           1.1103   -0.2090   -0.0367 C.ar    1  LIG1        0.0154
      2 C           0.6812    1.0007   -0.5477 C.ar    1  LIG1        0.0227
      3 C          -0.7430    0.9715   -0.5873 C.ar    1  LIG1       -0.0218
      4 C          -1.1517   -0.2519   -0.0843 C.ar    1  LIG1        0.0650
      5 N          -0.0015   -0.9689    0.2223 N.ar    1  LIG1       -0.3585
      6 H           0.0000   -1.8296    0.7465 H       1  LIG1        0.1654
      7 H           2.1088   -0.5731    0.1507 H       1  LIG1        0.0818
      8 S           1.7565    2.2804   -1.1565 S.3     1  LIG1       -0.1412
      9 H           1.5931    3.1654   -0.1480 H       1  LIG1        0.1072
     10 H          -1.3886    1.7452   -0.9738 H       1  LIG1        0.0650
     11 C          -2.4639   -0.8302    0.1086 C.ar    1  LIG1        0.0767
     12 C          -3.6921   -0.2763    0.4516 C.ar    1  LIG1        0.0321
     13 C          -4.6549   -1.3262    0.4844 C.ar    1  LIG1       -0.0211
     14 C          -4.0088   -2.5061    0.1740 C.ar    1  LIG1        0.0655
     15 N          -2.6633   -2.2010   -0.0264 N.ar    1  LIG1       -0.3510
     16 H          -2.0755   -2.7607   -0.6283 H       1  LIG1        0.1660
     17 S          -3.9918    1.4434    0.7767 S.3     1  LIG1       -0.1405
     18 H          -4.6081    1.2866    1.9680 H       1  LIG1        0.1072
     19 H          -5.6990   -1.2304    0.7390 H       1  LIG1        0.0650
     20 C          -4.4762   -3.8733    0.0754 C.ar    1  LIG1        0.0762
     21 C          -5.7041   -4.4342   -0.2789 C.ar    1  LIG1        0.0315
     22 C          -5.5685   -5.8524   -0.2155 C.ar    1  LIG1       -0.0305
     23 C          -4.2775   -6.1302    0.1631 C.ar    1  LIG1        0.0033
     24 N          -3.6199   -4.9304    0.3224 N.ar    1  LIG1       -0.3586
     25 H          -2.7155   -4.8240    0.7542 H       1  LIG1        0.1654
     26 H          -3.7735   -7.0696    0.3330 H       1  LIG1        0.0807
     27 S          -7.1933   -3.5522   -0.6855 S.3     1  LIG1       -0.1405
     28 H          -7.0711   -3.5581   -2.0325 H       1  LIG1        0.1072
     29 H          -6.3446   -6.5709   -0.4347 H       1  LIG1        0.0644
@<TRIPOS>BOND
     1    28    27    1
     2     8     2    1
     3     8     9    1
     4    10     3    1
     5    27    21    1
     6    16    15    1
     7     3     2   ar
     8     3     4   ar
     9     2     1   ar
    10    29    22    1
    11    21    22   ar
    12    21    20   ar
    13    22    23   ar
    14     4    11    1
    15     4     5   ar
    16     1     7    1
    17     1     5   ar
    18    15    11   ar
    19    15    14   ar
    20    20    14    1
    21    20    24   ar
    22    11    12   ar
    23    23    24   ar
    24    23    26    1
    25    14    13   ar
    26     5     6    1
    27    24    25    1
    28    12    13   ar
    29    12    17    1
    30    13    19    1
    31    17    18    1
