@<TRIPOS>MOLECULE
mol_data/opt/b3lyp/geoms/mol2/13ga13ga-13ga13ga.out
 38 41 0 0 0
SMALL
GASTEIGER

@<TRIPOS>ATOM
      1 C           1.1230   -0.2191    0.1096 C.ar    1  LIG1        0.0154
      2 C           0.7220    1.0168   -0.3593 C.ar    1  LIG1        0.0227
      3 C          -0.7010    1.0074   -0.4378 C.ar    1  LIG1       -0.0218
      4 C          -1.1371   -0.2314    0.0003 C.ar    1  LIG1        0.0650
      5 N          -0.0039   -0.9765    0.3043 N.ar    1  LIG1       -0.3585
      6 H          -0.0275   -1.8544    0.7987 H       1  LIG1        0.1654
      7 H           2.1119   -0.6029    0.3084 H       1  LIG1        0.0818
      8 S           1.8282    2.3065   -0.8858 S.3     1  LIG1       -0.1412
      9 H           1.6431    3.1541    0.1507 H       1  LIG1        0.1072
     10 H          -1.3270    1.8043   -0.8095 H       1  LIG1        0.0650
     11 C          -2.4610   -0.7985    0.1335 C.ar    1  LIG1        0.0767
     12 C          -3.6861   -0.2431    0.4851 C.ar    1  LIG1        0.0321
     13 C          -4.6664   -1.2750    0.4398 C.ar    1  LIG1       -0.0211
     14 C          -4.0338   -2.4480    0.0713 C.ar    1  LIG1        0.0655
     15 N          -2.6799   -2.1559   -0.0835 N.ar    1  LIG1       -0.3510
     16 H          -2.0900   -2.6909   -0.7049 H       1  LIG1        0.1660
     17 S          -3.9575    1.4601    0.9065 S.3     1  LIG1       -0.1405
     18 H          -4.6779    1.2406    2.0269 H       1  LIG1        0.1072
     19 H          -5.7127   -1.1743    0.6828 H       1  LIG1        0.0650
     20 C          -4.5208   -3.7936   -0.1230 C.ar    1  LIG1        0.0767
     21 C          -5.7719   -4.3121   -0.4537 C.ar    1  LIG1        0.0321
     22 C          -5.6608   -5.7306   -0.5026 C.ar    1  LIG1       -0.0211
     23 C          -4.3534   -6.0675   -0.2135 C.ar    1  LIG1        0.0655
     24 N          -3.6575   -4.8762   -0.0132 N.ar    1  LIG1       -0.3510
     25 H          -2.8213   -4.8326    0.5516 H       1  LIG1        0.1660
     26 S          -7.2536   -3.3723   -0.7337 S.3     1  LIG1       -0.1405
     27 H          -7.3671   -3.5878   -2.0632 H       1  LIG1        0.1072
     28 H          -6.4502   -6.4229   -0.7506 H       1  LIG1        0.0650
     29 C          -3.6694   -7.3414   -0.1343 C.ar    1  LIG1        0.0762
     30 C          -4.0829   -8.6186    0.2457 C.ar    1  LIG1        0.0315
     31 C          -2.9581   -9.4892    0.1385 C.ar    1  LIG1       -0.0305
     32 C          -1.8906   -8.7386   -0.2904 C.ar    1  LIG1        0.0033
     33 N          -2.3232   -7.4389   -0.4381 N.ar    1  LIG1       -0.3586
     34 H          -1.8075   -6.7141   -0.9122 H       1  LIG1        0.1654
     35 H          -0.8689   -9.0143   -0.5038 H       1  LIG1        0.0807
     36 S          -5.7263   -9.0947    0.7268 S.3     1  LIG1       -0.1405
     37 H          -5.5541   -9.0842    2.0683 H       1  LIG1        0.1072
     38 H          -2.9537  -10.5457    0.3633 H       1  LIG1        0.0644
@<TRIPOS>BOND
     1    27    26    1
     2    34    33    1
     3     8     2    1
     4     8     9    1
     5    10     3    1
     6    28    22    1
     7    26    21    1
     8    16    15    1
     9    35    32    1
    10    22    21   ar
    11    22    23   ar
    12    21    20   ar
    13    33    32   ar
    14    33    29   ar
    15     3     2   ar
    16     3     4   ar
    17     2     1   ar
    18    32    31   ar
    19    23    29    1
    20    23    24   ar
    21    29    30   ar
    22    20    24   ar
    23    20    14    1
    24    15    14   ar
    25    15    11   ar
    26    24    25    1
    27     4    11    1
    28     4     5   ar
    29    14    13   ar
    30     1     5   ar
    31     1     7    1
    32    11    12   ar
    33    31    30   ar
    34    31    38    1
    35    30    36    1
    36     5     6    1
    37    13    12   ar
    38    13    19    1
    39    12    17    1
    40    36    37    1
    41    17    18    1
