@<TRIPOS>MOLECULE
mol_data/opt/b3lyp/geoms/mol2/13ga13ga13ga13ga.out
 38 41 0 0 0
SMALL
GASTEIGER

@<TRIPOS>ATOM
      1 C           1.1154   -0.2142    0.1638 C.ar    1  LIG1        0.0154
      2 C           0.7223    1.0219   -0.3113 C.ar    1  LIG1        0.0227
      3 C          -0.6989    1.0110   -0.4176 C.ar    1  LIG1       -0.0218
      4 C          -1.1421   -0.2288    0.0103 C.ar    1  LIG1        0.0650
      5 N          -0.0143   -0.9730    0.3354 N.ar    1  LIG1       -0.3585
      6 H          -0.0466   -1.8516    0.8281 H       1  LIG1        0.1654
      7 H           2.1007   -0.5972    0.3814 H       1  LIG1        0.0818
      8 S           1.8372    2.3135   -0.8143 S.3     1  LIG1       -0.1412
      9 H           1.6326    3.1586    0.2207 H       1  LIG1        0.1072
     10 H          -1.3183    1.8077   -0.8004 H       1  LIG1        0.0650
     11 C          -2.4676   -0.7976    0.1167 C.ar    1  LIG1        0.0767
     12 C          -3.7002   -0.2443    0.4448 C.ar    1  LIG1        0.0321
     13 C          -4.6780   -1.2773    0.3789 C.ar    1  LIG1       -0.0211
     14 C          -4.0368   -2.4490    0.0214 C.ar    1  LIG1        0.0655
     15 N          -2.6805   -2.1549   -0.1064 N.ar    1  LIG1       -0.3510
     16 H          -2.0778   -2.6883   -0.7169 H       1  LIG1        0.1660
     17 S          -3.9822    1.4581    0.8629 S.3     1  LIG1       -0.1405
     18 H          -4.7205    1.2364    1.9712 H       1  LIG1        0.1072
     19 H          -5.7291   -1.1782    0.6013 H       1  LIG1        0.0650
     20 C          -4.5181   -3.7950   -0.1841 C.ar    1  LIG1        0.0767
     21 C          -5.7617   -4.3148   -0.5399 C.ar    1  LIG1        0.0321
     22 C          -5.6477   -5.7331   -0.5882 C.ar    1  LIG1       -0.0211
     23 C          -4.3458   -6.0685   -0.2739 C.ar    1  LIG1        0.0655
     24 N          -3.6557   -4.8765   -0.0585 N.ar    1  LIG1       -0.3510
     25 H          -2.8305   -4.8325    0.5223 H       1  LIG1        0.1660
     26 S          -7.2388   -3.3765   -0.8475 S.3     1  LIG1       -0.1405
     27 H          -7.3280   -3.5931   -2.1787 H       1  LIG1        0.1072
     28 H          -6.4311   -6.4262   -0.8526 H       1  LIG1        0.0650
     29 C          -3.6617   -7.3416   -0.1829 C.ar    1  LIG1        0.0762
     30 C          -4.0803   -8.6195    0.1886 C.ar    1  LIG1        0.0315
     31 C          -2.9526   -9.4887    0.1015 C.ar    1  LIG1       -0.0305
     32 C          -1.8784   -8.7362   -0.3070 C.ar    1  LIG1        0.0033
     33 N          -2.3100   -7.4370   -0.4619 N.ar    1  LIG1       -0.3586
     34 H          -1.7866   -6.7112   -0.9259 H       1  LIG1        0.1654
     35 H          -0.8526   -9.0105   -0.5016 H       1  LIG1        0.0807
     36 S          -5.7319   -9.0976    0.6389 S.3     1  LIG1       -0.1405
     37 H          -5.5813   -9.0985    1.9830 H       1  LIG1        0.1072
     38 H          -2.9509  -10.5453    0.3255 H       1  LIG1        0.0644
@<TRIPOS>BOND
     1    27    26    1
     2    34    33    1
     3    28    22    1
     4    26    21    1
     5     8     2    1
     6     8     9    1
     7    10     3    1
     8    16    15    1
     9    22    21   ar
    10    22    23   ar
    11    21    20   ar
    12    35    32    1
    13    33    32   ar
    14    33    29   ar
    15     3     2   ar
    16     3     4   ar
    17     2     1   ar
    18    32    31   ar
    19    23    29    1
    20    23    24   ar
    21    20    24   ar
    22    20    14    1
    23    29    30   ar
    24    15    14   ar
    25    15    11   ar
    26    24    25    1
    27     4    11    1
    28     4     5   ar
    29    14    13   ar
    30    31    30   ar
    31    31    38    1
    32    11    12   ar
    33     1     5   ar
    34     1     7    1
    35    30    36    1
    36     5     6    1
    37    13    12   ar
    38    13    19    1
    39    12    17    1
    40    36    37    1
    41    17    18    1
