@<TRIPOS>MOLECULE
mol_data/opt/b3lyp/geoms/mol2/13ga13ga-13ga-13ga-.out
 38 41 0 0 0
SMALL
GASTEIGER

@<TRIPOS>ATOM
      1 C           1.1175   -0.2159   -0.1818 C.ar    1  LIG1        0.0154
      2 C           0.7285    1.0149    0.3103 C.ar    1  LIG1        0.0227
      3 C          -0.6921    1.0040    0.4252 C.ar    1  LIG1       -0.0218
      4 C          -1.1391   -0.2302   -0.0146 C.ar    1  LIG1        0.0650
      5 N          -0.0140   -0.9716   -0.3554 N.ar    1  LIG1       -0.3585
      6 H          -0.0502   -1.8441   -0.8585 H       1  LIG1        0.1654
      7 H           2.1009   -0.5972   -0.4099 H       1  LIG1        0.0818
      8 S           1.8477    2.2995    0.8216 S.3     1  LIG1       -0.1412
      9 H           1.6380    3.1566   -0.2024 H       1  LIG1        0.1072
     10 H          -1.3082    1.7968    0.8213 H       1  LIG1        0.0650
     11 C          -2.4658   -0.7965   -0.1197 C.ar    1  LIG1        0.0767
     12 C          -3.6999   -0.2381   -0.4333 C.ar    1  LIG1        0.0321
     13 C          -4.6783   -1.2711   -0.3741 C.ar    1  LIG1       -0.0211
     14 C          -4.0360   -2.4475   -0.0350 C.ar    1  LIG1        0.0655
     15 N          -2.6786   -2.1562    0.0880 N.ar    1  LIG1       -0.3510
     16 H          -2.0725   -2.6978    0.6878 H       1  LIG1        0.1660
     17 S          -3.9829    1.4695   -0.8286 S.3     1  LIG1       -0.1405
     18 H          -4.7287    1.2622   -1.9346 H       1  LIG1        0.1072
     19 H          -5.7306   -1.1683   -0.5887 H       1  LIG1        0.0650
     20 C          -4.5172   -3.7956    0.1569 C.ar    1  LIG1        0.0767
     21 C          -5.7589   -4.3187    0.5146 C.ar    1  LIG1        0.0321
     22 C          -5.6461   -5.7375    0.5442 C.ar    1  LIG1       -0.0211
     23 C          -4.3468   -6.0703    0.2166 C.ar    1  LIG1        0.0655
     24 N          -3.6568   -4.8763    0.0117 N.ar    1  LIG1       -0.3510
     25 H          -2.8356   -4.8258   -0.5741 H       1  LIG1        0.1660
     26 S          -7.2329   -3.3827    0.8444 S.3     1  LIG1       -0.1405
     27 H          -7.3127   -3.6158    2.1734 H       1  LIG1        0.1072
     28 H          -6.4285   -6.4332    0.8051 H       1  LIG1        0.0650
     29 C          -3.6647   -7.3428    0.1050 C.ar    1  LIG1        0.0762
     30 C          -4.0871   -8.6154   -0.2803 C.ar    1  LIG1        0.0315
     31 C          -2.9599   -9.4868   -0.2114 C.ar    1  LIG1       -0.0305
     32 C          -1.8823   -8.7409    0.2000 C.ar    1  LIG1        0.0033
     33 N          -2.3114   -7.4434    0.3744 N.ar    1  LIG1       -0.3586
     34 H          -1.7840   -6.7238    0.8436 H       1  LIG1        0.1654
     35 H          -0.8556   -9.0187    0.3847 H       1  LIG1        0.0807
     36 S          -5.7421   -9.0858   -0.7262 S.3     1  LIG1       -0.1405
     37 H          -5.6000   -9.0696   -2.0711 H       1  LIG1        0.1072
     38 H          -2.9608  -10.5405   -0.4490 H       1  LIG1        0.0644
@<TRIPOS>BOND
     1    37    36    1
     2    18    17    1
     3     6     5    1
     4    17    12    1
     5    36    30    1
     6    19    13    1
     7    25    24    1
     8    38    31    1
     9    12    13   ar
    10    12    11   ar
    11     7     1    1
    12    13    14   ar
    13     5     1   ar
    14     5     4   ar
    15    30    31   ar
    16    30    29   ar
    17    31    32   ar
    18     9     8    1
    19     1     2   ar
    20    11     4    1
    21    11    15   ar
    22    14    15   ar
    23    14    20    1
    24     4     3   ar
    25    24    20   ar
    26    24    23   ar
    27    15    16    1
    28    29    23    1
    29    29    33   ar
    30    20    21   ar
    31    32    33   ar
    32    32    35    1
    33    23    22   ar
    34     2     3   ar
    35     2     8    1
    36    33    34    1
    37     3    10    1
    38    21    22   ar
    39    21    26    1
    40    22    28    1
    41    26    27    1
