@<TRIPOS>MOLECULE
mol_data/opt/b3lyp/geoms/mol2/13ga.out
 11 11 0 0 0
SMALL
GASTEIGER

@<TRIPOS>ATOM
      1 C           1.0783   -0.3834    0.0000 C.ar    1  LIG1        0.0149
      2 C           0.6624    0.9331    0.0001 C.ar    1  LIG1        0.0220
      3 C          -0.7641    0.9335   -0.0000 C.ar    1  LIG1       -0.0312
      4 C          -1.1721   -0.3830    0.0002 C.ar    1  LIG1        0.0027
      5 N          -0.0511   -1.1718    0.0000 N.ar    1  LIG1       -0.3660
      6 H          -0.0491   -2.1784   -0.0002 H       1  LIG1        0.1648
      7 H          -2.1625   -0.8131    0.0004 H       1  LIG1        0.0807
      8 H           2.0680   -0.8129    0.0000 H       1  LIG1        0.0818
      9 S           1.7623    2.3351    0.0002 S.3     1  LIG1       -0.1412
     10 H           0.7987    3.2753   -0.0001 H       1  LIG1        0.1072
     11 H          -1.4098    1.7998   -0.0000 H       1  LIG1        0.0643
@<TRIPOS>BOND
     1     6     5    1
     2    10     9    1
     3    11     3    1
     4     3     2   ar
     5     3     4   ar
     6     5     1   ar
     7     5     4   ar
     8     1     8    1
     9     1     2   ar
    10     2     9    1
    11     4     7    1
