@<TRIPOS>MOLECULE
mol_data/opt/b3lyp/geoms/mol2/13ga13ga13ga-.out
 29 31 0 0 0
SMALL
GASTEIGER

@<TRIPOS>ATOM
      1 C           1.1101   -0.2088   -0.0177 C.ar    1  LIG1        0.0154
      2 C           0.6855    0.9961   -0.5433 C.ar    1  LIG1        0.0227
      3 C          -0.7384    0.9666   -0.5947 C.ar    1  LIG1       -0.0218
      4 C          -1.1514   -0.2523   -0.0842 C.ar    1  LIG1        0.0650
      5 N          -0.0038   -0.9665    0.2385 N.ar    1  LIG1       -0.3585
      6 H          -0.0068   -1.8224    0.7704 H       1  LIG1        0.1654
      7 H           2.1069   -0.5713    0.1812 H       1  LIG1        0.0818
      8 S           1.7658    2.2707   -1.1537 S.3     1  LIG1       -0.1412
      9 H           1.5937    3.1643   -0.1542 H       1  LIG1        0.1072
     10 H          -1.3806    1.7367   -0.9936 H       1  LIG1        0.0650
     11 C          -2.4651   -0.8290    0.1024 C.ar    1  LIG1        0.0767
     12 C          -3.6964   -0.2721    0.4292 C.ar    1  LIG1        0.0321
     13 C          -4.6593   -1.3219    0.4636 C.ar    1  LIG1       -0.0211
     14 C          -4.0104   -2.5045    0.1702 C.ar    1  LIG1        0.0655
     15 N          -2.6632   -2.2011   -0.0211 N.ar    1  LIG1       -0.3510
     16 H          -2.0703   -2.7662   -0.6131 H       1  LIG1        0.1660
     17 S          -3.9992    1.4506    0.7353 S.3     1  LIG1       -0.1405
     18 H          -4.6266    1.3049    1.9222 H       1  LIG1        0.1072
     19 H          -5.7057   -1.2239    0.7081 H       1  LIG1        0.0650
     20 C          -4.4767   -3.8727    0.0806 C.ar    1  LIG1        0.0762
     21 C          -5.7012   -4.4373   -0.2794 C.ar    1  LIG1        0.0315
     22 C          -5.5660   -5.8549   -0.2010 C.ar    1  LIG1       -0.0305
     23 C          -4.2782   -6.1286    0.1917 C.ar    1  LIG1        0.0033
     24 N          -3.6224   -4.9272    0.3453 N.ar    1  LIG1       -0.3586
     25 H          -2.7218   -4.8163    0.7840 H       1  LIG1        0.1654
     26 H          -3.7756   -7.0662    0.3751 H       1  LIG1        0.0807
     27 S          -7.1868   -3.5597   -0.7072 S.3     1  LIG1       -0.1405
     28 H          -7.0522   -3.5771   -2.0529 H       1  LIG1        0.1072
     29 H          -6.3399   -6.5757   -0.4203 H       1  LIG1        0.0644
@<TRIPOS>BOND
     1    28    27    1
     2     8     2    1
     3     8     9    1
     4    10     3    1
     5    27    21    1
     6    16    15    1
     7     3     2   ar
     8     3     4   ar
     9     2     1   ar
    10    29    22    1
    11    21    22   ar
    12    21    20   ar
    13    22    23   ar
    14     4    11    1
    15     4     5   ar
    16    15    11   ar
    17    15    14   ar
    18     1     7    1
    19     1     5   ar
    20    20    14    1
    21    20    24   ar
    22    11    12   ar
    23    14    13   ar
    24    23    24   ar
    25    23    26    1
    26     5     6    1
    27    24    25    1
    28    12    13   ar
    29    12    17    1
    30    13    19    1
    31    17    18    1
