@<TRIPOS>MOLECULE
mol_data/opt/b3lyp/geoms/mol2/13ga13ga13ga13ga-.out
 38 41 0 0 0
SMALL
GASTEIGER

@<TRIPOS>ATOM
      1 C           1.1184   -0.2169    0.1513 C.ar    1  LIG1        0.0154
      2 C           0.7246    1.0195   -0.3225 C.ar    1  LIG1        0.0227
      3 C          -0.6970    1.0096   -0.4243 C.ar    1  LIG1       -0.0218
      4 C          -1.1396   -0.2299    0.0049 C.ar    1  LIG1        0.0650
      5 N          -0.0113   -0.9750    0.3263 N.ar    1  LIG1       -0.3585
      6 H          -0.0426   -1.8535    0.8192 H       1  LIG1        0.1654
      7 H           2.1040   -0.6006    0.3656 H       1  LIG1        0.0818
      8 S           1.8387    2.3106   -0.8286 S.3     1  LIG1       -0.1412
      9 H           1.6376    3.1556    0.2070 H       1  LIG1        0.1072
     10 H          -1.3171    1.8068   -0.8050 H       1  LIG1        0.0650
     11 C          -2.4652   -0.7979    0.1154 C.ar    1  LIG1        0.0767
     12 C          -3.6964   -0.2438    0.4478 C.ar    1  LIG1        0.0321
     13 C          -4.6751   -1.2762    0.3848 C.ar    1  LIG1       -0.0211
     14 C          -4.0358   -2.4482    0.0249 C.ar    1  LIG1        0.0655
     15 N          -2.6798   -2.1550   -0.1073 N.ar    1  LIG1       -0.3510
     16 H          -2.0792   -2.6890   -0.7194 H       1  LIG1        0.1660
     17 S          -3.9757    1.4586    0.8671 S.3     1  LIG1       -0.1405
     18 H          -4.7108    1.2373    1.9776 H       1  LIG1        0.1072
     19 H          -5.7253   -1.1764    0.6108 H       1  LIG1        0.0650
     20 C          -4.5187   -3.7938   -0.1795 C.ar    1  LIG1        0.0767
     21 C          -5.7638   -4.3126   -0.5315 C.ar    1  LIG1        0.0321
     22 C          -5.6510   -5.7309   -0.5807 C.ar    1  LIG1       -0.0211
     23 C          -4.3484   -6.0674   -0.2706 C.ar    1  LIG1        0.0655
     24 N          -3.6566   -4.8760   -0.0571 N.ar    1  LIG1       -0.3510
     25 H          -2.8301   -4.8329    0.5218 H       1  LIG1        0.1660
     26 S          -7.2412   -3.3731   -0.8344 S.3     1  LIG1       -0.1405
     27 H          -7.3344   -3.5892   -2.1654 H       1  LIG1        0.1072
     28 H          -6.4358   -6.4233   -0.8429 H       1  LIG1        0.0650
     29 C          -3.6650   -7.3410   -0.1822 C.ar    1  LIG1        0.0762
     30 C          -4.0836   -8.6189    0.1896 C.ar    1  LIG1        0.0315
     31 C          -2.9567   -9.4888    0.0990 C.ar    1  LIG1       -0.0305
     32 C          -1.8830   -8.7369   -0.3118 C.ar    1  LIG1        0.0033
     33 N          -2.3141   -7.4373   -0.4649 N.ar    1  LIG1       -0.3586
     34 H          -1.7914   -6.7115   -0.9296 H       1  LIG1        0.1654
     35 H          -0.8579   -9.0118   -0.5094 H       1  LIG1        0.0807
     36 S          -5.7343   -9.0961    0.6440 S.3     1  LIG1       -0.1405
     37 H          -5.5801   -9.0979    1.9877 H       1  LIG1        0.1072
     38 H          -2.9551  -10.5456    0.3224 H       1  LIG1        0.0644
@<TRIPOS>BOND
     1    27    26    1
     2    34    33    1
     3    28    22    1
     4    26    21    1
     5     8     2    1
     6     8     9    1
     7    10     3    1
     8    16    15    1
     9    22    21   ar
    10    22    23   ar
    11    21    20   ar
    12    35    32    1
    13    33    32   ar
    14    33    29   ar
    15     3     2   ar
    16     3     4   ar
    17     2     1   ar
    18    32    31   ar
    19    23    29    1
    20    23    24   ar
    21    29    30   ar
    22    20    24   ar
    23    20    14    1
    24    15    14   ar
    25    15    11   ar
    26    24    25    1
    27     4    11    1
    28     4     5   ar
    29    14    13   ar
    30    31    30   ar
    31    31    38    1
    32    11    12   ar
    33     1     5   ar
    34     1     7    1
    35    30    36    1
    36     5     6    1
    37    13    12   ar
    38    13    19    1
    39    12    17    1
    40    36    37    1
    41    17    18    1
