@<TRIPOS>MOLECULE
mol_data/opt/b3lyp/geoms/mol2/13ga13ga-.out
 20 21 0 0 0
SMALL
GASTEIGER

@<TRIPOS>ATOM
      1 C           1.2026   -0.3465   -0.0008 C.ar    1  LIG1        0.0154
      2 C           0.7773    0.9648    0.0000 C.ar    1  LIG1        0.0227
      3 C          -0.6445    0.9575    0.0007 C.ar    1  LIG1       -0.0218
      4 C          -1.0663   -0.3678    0.0002 C.ar    1  LIG1        0.0650
      5 N           0.0774   -1.1440   -0.0006 N.ar    1  LIG1       -0.3585
      6 H           0.1133   -2.1489   -0.0019 H       1  LIG1        0.1654
      7 H           2.1940   -0.7721   -0.0015 H       1  LIG1        0.0818
      8 S           1.8623    2.3768    0.0004 S.3     1  LIG1       -0.1412
      9 H           0.8879    3.3055    0.0010 H       1  LIG1        0.1072
     10 H          -1.2839    1.8269    0.0016 H       1  LIG1        0.0650
     11 C          -2.4001   -0.9318    0.0005 C.ar    1  LIG1        0.0762
     12 C          -3.6565   -0.3256    0.0002 C.ar    1  LIG1        0.0315
     13 C          -4.6431   -1.3519    0.0007 C.ar    1  LIG1       -0.0305
     14 C          -3.9834   -2.5584    0.0014 C.ar    1  LIG1        0.0033
     15 N          -2.6364   -2.3003    0.0012 N.ar    1  LIG1       -0.3586
     16 H          -1.9301   -3.0160    0.0017 H       1  LIG1        0.1654
     17 H          -4.3603   -3.5698    0.0020 H       1  LIG1        0.0807
     18 S          -3.9585    1.4252   -0.0008 S.3     1  LIG1       -0.1405
     19 H          -5.3013    1.3295   -0.0017 H       1  LIG1        0.1072
     20 H          -5.7145   -1.2108    0.0007 H       1  LIG1        0.0644
@<TRIPOS>BOND
     1     6     5    1
     2    19    18    1
     3     7     1    1
     4     1     5   ar
     5     1     2   ar
     6    18    12    1
     7     5     4   ar
     8     2     8    1
     9     2     3   ar
    10    12    11   ar
    11    12    13   ar
    12     4    11    1
    13     4     3   ar
    14     8     9    1
    15    11    15   ar
    16     3    10    1
    17    20    13    1
    18    13    14   ar
    19    15    14   ar
    20    15    16    1
    21    14    17    1
