@<TRIPOS>MOLECULE
mol_data/opt/b3lyp/geoms/mol2/13ga13ga-13ga13ga-.out
 38 41 0 0 0
SMALL
GASTEIGER

@<TRIPOS>ATOM
      1 C           0.6932    0.0879   -1.4822 C.ar    1  LIG1        0.0154
      2 C           0.8212    0.8932   -0.3675 C.ar    1  LIG1        0.0227
      3 C          -0.3332    0.6925    0.4444 C.ar    1  LIG1       -0.0218
      4 C          -1.1454   -0.2224   -0.1999 C.ar    1  LIG1        0.0650
      5 N          -0.4869   -0.6017   -1.3651 N.ar    1  LIG1       -0.3585
      6 H          -0.9203   -1.1170   -2.1156 H       1  LIG1        0.1654
      7 H           1.3488   -0.0407   -2.3298 H       1  LIG1        0.0818
      8 S           2.2505    1.8845    0.0061 S.3     1  LIG1       -0.1412
      9 H           1.7116    3.0996   -0.2385 H       1  LIG1        0.1072
     10 H          -0.5301    1.1443    1.4043 H       1  LIG1        0.0650
     11 C          -2.4225   -0.8076    0.1627 C.ar    1  LIG1        0.0767
     12 C          -3.5737   -0.2754    0.7438 C.ar    1  LIG1        0.0321
     13 C          -4.5376   -1.3155    0.8391 C.ar    1  LIG1       -0.0211
     14 C          -3.9810   -2.4658    0.3090 C.ar    1  LIG1        0.0655
     15 N          -2.6921   -2.1396   -0.0873 N.ar    1  LIG1       -0.3510
     16 H          -2.0380   -2.7801   -0.5094 H       1  LIG1        0.1660
     17 S          -3.7690    1.3947    1.3200 S.3     1  LIG1       -0.1405
     18 H          -4.6721    1.8036    0.4015 H       1  LIG1        0.1072
     19 H          -5.5252   -1.2331    1.2659 H       1  LIG1        0.0650
     20 C          -4.4940   -3.8155    0.1765 C.ar    1  LIG1        0.0767
     21 C          -5.7412   -4.3152   -0.1988 C.ar    1  LIG1        0.0321
     22 C          -5.6702   -5.7344   -0.1766 C.ar    1  LIG1       -0.0211
     23 C          -4.3874   -6.0930    0.1966 C.ar    1  LIG1        0.0655
     24 N          -3.6892   -4.9147    0.4131 N.ar    1  LIG1       -0.3510
     25 H          -2.7347   -4.8654    0.7335 H       1  LIG1        0.1660
     26 S          -7.1758   -3.3376   -0.5800 S.3     1  LIG1       -0.1405
     27 H          -7.2725   -3.6569   -1.8895 H       1  LIG1        0.1072
     28 H          -6.4752   -6.4182   -0.3972 H       1  LIG1        0.0650
     29 C          -3.7648   -7.3863    0.4096 C.ar    1  LIG1        0.0762
     30 C          -3.8494   -8.5958   -0.2771 C.ar    1  LIG1        0.0315
     31 C          -3.0026   -9.5333    0.3863 C.ar    1  LIG1       -0.0305
     32 C          -2.4163   -8.8845    1.4454 C.ar    1  LIG1        0.0033
     33 N          -2.8697   -7.5838    1.4472 N.ar    1  LIG1       -0.3586
     34 H          -2.7613   -6.9455    2.2203 H       1  LIG1        0.1654
     35 H          -1.7228   -9.2342    2.1953 H       1  LIG1        0.0807
     36 S          -4.8636   -8.9196   -1.7002 S.3     1  LIG1       -0.1405
     37 H          -3.8842   -8.9606   -2.6315 H       1  LIG1        0.1072
     38 H          -2.8480  -10.5626    0.0973 H       1  LIG1        0.0644
@<TRIPOS>BOND
     1    37    36    1
     2     7     1    1
     3     6     5    1
     4    27    26    1
     5    36    30    1
     6     1     5   ar
     7     1     2   ar
     8     5     4   ar
     9    26    21    1
    10    16    15    1
    11    28    22    1
    12     2     8    1
    13     2     3   ar
    14    30    31   ar
    15    30    29   ar
    16     9     8    1
    17     4    11    1
    18     4     3   ar
    19    21    22   ar
    20    21    20   ar
    21    22    23   ar
    22    15    11   ar
    23    15    14   ar
    24    38    31    1
    25    11    12   ar
    26    20    14    1
    27    20    24   ar
    28    23    29    1
    29    23    24   ar
    30    14    13   ar
    31    31    32   ar
    32    18    17    1
    33    29    33   ar
    34    24    25    1
    35     3    10    1
    36    12    13   ar
    37    12    17    1
    38    13    19    1
    39    32    33   ar
    40    32    35    1
    41    33    34    1
