@<TRIPOS>MOLECULE
mol_data/opt/b3lyp/geoms/mol2/13ga13ga13ga-13ga.out
 38 41 0 0 0
SMALL
GASTEIGER

@<TRIPOS>ATOM
      1 C           1.1157   -0.2115   -0.1754 C.ar    1  LIG1        0.0154
      2 C           0.7254    1.0140    0.3287 C.ar    1  LIG1        0.0227
      3 C          -0.6953    1.0011    0.4417 C.ar    1  LIG1       -0.0218
      4 C          -1.1410   -0.2289   -0.0109 C.ar    1  LIG1        0.0650
      5 N          -0.0151   -0.9662   -0.3578 N.ar    1  LIG1       -0.3585
      6 H          -0.0502   -1.8336   -0.8697 H       1  LIG1        0.1654
      7 H           2.0997   -0.5899   -0.4061 H       1  LIG1        0.0818
      8 S           1.8430    2.2942    0.8541 S.3     1  LIG1       -0.1412
      9 H           1.6340    3.1613   -0.1615 H       1  LIG1        0.1072
     10 H          -1.3125    1.7894    0.8450 H       1  LIG1        0.0650
     11 C          -2.4673   -0.7951   -0.1231 C.ar    1  LIG1        0.0767
     12 C          -3.7013   -0.2345   -0.4334 C.ar    1  LIG1        0.0321
     13 C          -4.6791   -1.2685   -0.3851 C.ar    1  LIG1       -0.0211
     14 C          -4.0365   -2.4478   -0.0561 C.ar    1  LIG1        0.0655
     15 N          -2.6796   -2.1567    0.0716 N.ar    1  LIG1       -0.3510
     16 H          -2.0737   -2.7039    0.6666 H       1  LIG1        0.1660
     17 S          -3.9847    1.4766   -0.8132 S.3     1  LIG1       -0.1405
     18 H          -4.7279    1.2791   -1.9228 H       1  LIG1        0.1072
     19 H          -5.7312   -1.1644   -0.6003 H       1  LIG1        0.0650
     20 C          -4.5173   -3.7978    0.1229 C.ar    1  LIG1        0.0767
     21 C          -5.7593   -4.3246    0.4740 C.ar    1  LIG1        0.0321
     22 C          -5.6457   -5.7436    0.4920 C.ar    1  LIG1       -0.0211
     23 C          -4.3455   -6.0727    0.1642 C.ar    1  LIG1        0.0655
     24 N          -3.6559   -4.8767   -0.0295 N.ar    1  LIG1       -0.3510
     25 H          -2.8340   -4.8209   -0.6140 H       1  LIG1        0.1660
     26 S          -7.2345   -3.3926    0.8087 S.3     1  LIG1       -0.1405
     27 H          -7.3169   -3.6371    2.1355 H       1  LIG1        0.1072
     28 H          -6.4280   -6.4418    0.7457 H       1  LIG1        0.0650
     29 C          -3.6625   -7.3438    0.0426 C.ar    1  LIG1        0.0762
     30 C          -4.0837   -8.6134   -0.3535 C.ar    1  LIG1        0.0315
     31 C          -2.9559   -9.4846   -0.2913 C.ar    1  LIG1       -0.0305
     32 C          -1.8791   -8.7413    0.1269 C.ar    1  LIG1        0.0033
     33 N          -2.3092   -7.4455    0.3118 N.ar    1  LIG1       -0.3586
     34 H          -1.7831   -6.7300    0.7886 H       1  LIG1        0.1654
     35 H          -0.8523   -9.0199    0.3100 H       1  LIG1        0.0807
     36 S          -5.7381   -9.0813   -0.8047 S.3     1  LIG1       -0.1405
     37 H          -5.5942   -9.0559   -2.1492 H       1  LIG1        0.1072
     38 H          -2.9558  -10.5362   -0.5377 H       1  LIG1        0.0644
@<TRIPOS>BOND
     1    37    36    1
     2    18    17    1
     3     6     5    1
     4    17    12    1
     5    36    30    1
     6    25    24    1
     7    19    13    1
     8    38    31    1
     9    12    13   ar
    10    12    11   ar
    11     7     1    1
    12    13    14   ar
    13     5     1   ar
    14     5     4   ar
    15    30    31   ar
    16    30    29   ar
    17    31    32   ar
    18     1     2   ar
    19     9     8    1
    20    11     4    1
    21    11    15   ar
    22    14    15   ar
    23    14    20    1
    24    24    20   ar
    25    24    23   ar
    26     4     3   ar
    27    29    23    1
    28    29    33   ar
    29    15    16    1
    30    20    21   ar
    31    32    35    1
    32    32    33   ar
    33    23    22   ar
    34    33    34    1
    35     2     3   ar
    36     2     8    1
    37     3    10    1
    38    21    22   ar
    39    21    26    1
    40    22    28    1
    41    26    27    1
