@<TRIPOS>MOLECULE
mol_data/opt/b3lyp/geoms/mol2/13ga13ga-13ga.out
 29 31 0 0 0
SMALL
GASTEIGER

@<TRIPOS>ATOM
      1 C           1.0445   -0.1484    0.1258 C.ar    1  LIG1        0.0154
      2 C           0.6055    1.0693   -0.3575 C.ar    1  LIG1        0.0227
      3 C          -0.8182    1.0282   -0.4014 C.ar    1  LIG1       -0.0218
      4 C          -1.2160   -0.2190    0.0495 C.ar    1  LIG1        0.0650
      5 N          -0.0599   -0.9288    0.3522 N.ar    1  LIG1       -0.3585
      6 H          -0.0528   -1.7988    0.8609 H       1  LIG1        0.1654
      7 H           2.0451   -0.5032    0.3195 H       1  LIG1        0.0818
      8 S           1.6636    2.4427   -0.7547 S.3     1  LIG1       -0.1412
      9 H           1.6074    2.3522   -2.1024 H       1  LIG1        0.1072
     10 H          -1.4720    1.8144   -0.7458 H       1  LIG1        0.0650
     11 C          -2.5207   -0.8288    0.1976 C.ar    1  LIG1        0.0767
     12 C          -3.7735   -0.3119    0.5106 C.ar    1  LIG1        0.0321
     13 C          -4.7066   -1.3899    0.5090 C.ar    1  LIG1       -0.0211
     14 C          -4.0185   -2.5507    0.2074 C.ar    1  LIG1        0.0655
     15 N          -2.6810   -2.2016    0.0431 N.ar    1  LIG1       -0.3510
     16 H          -2.0497   -2.7540   -0.5197 H       1  LIG1        0.1660
     17 S          -4.1428    1.3957    0.8314 S.3     1  LIG1       -0.1405
     18 H          -4.5749    1.2522    2.1036 H       1  LIG1        0.1072
     19 H          -5.7547   -1.3230    0.7599 H       1  LIG1        0.0650
     20 C          -4.4532   -3.9240    0.0720 C.ar    1  LIG1        0.0762
     21 C          -5.6352   -4.4827   -0.4064 C.ar    1  LIG1        0.0315
     22 C          -5.5020   -5.9000   -0.3493 C.ar    1  LIG1       -0.0305
     23 C          -4.2534   -6.1777    0.1581 C.ar    1  LIG1        0.0033
     24 N          -3.6119   -4.9848    0.3828 N.ar    1  LIG1       -0.3586
     25 H          -2.7582   -4.8805    0.9075 H       1  LIG1        0.1654
     26 H          -3.7709   -7.1210    0.3649 H       1  LIG1        0.0807
     27 S          -7.0811   -3.6494   -1.0123 S.3     1  LIG1       -0.1405
     28 H          -6.4559   -2.5217   -1.4119 H       1  LIG1        0.1072
     29 H          -6.2382   -6.6230   -0.6687 H       1  LIG1        0.0644
@<TRIPOS>BOND
     1     9     8    1
     2    28    27    1
     3    27    21    1
     4     8     2    1
     5    10     3    1
     6    29    22    1
     7    16    15    1
     8    21    22   ar
     9    21    20   ar
    10     3     2   ar
    11     3     4   ar
    12     2     1   ar
    13    22    23   ar
    14    15    11   ar
    15    15    14   ar
    16     4    11    1
    17     4     5   ar
    18    20    14    1
    19    20    24   ar
    20     1     7    1
    21     1     5   ar
    22    23    26    1
    23    23    24   ar
    24    11    12   ar
    25    14    13   ar
    26     5     6    1
    27    24    25    1
    28    13    12   ar
    29    13    19    1
    30    12    17    1
    31    17    18    1
