@<TRIPOS>MOLECULE
mol_data/opt/b3lyp/geoms/mol2/13ga13ga-13ga-.out
 29 31 0 0 0
SMALL
GASTEIGER

@<TRIPOS>ATOM
      1 C           1.1097   -0.2081    0.0097 C.ar    1  LIG1        0.0154
      2 C           0.6864    0.9924    0.5465 C.ar    1  LIG1        0.0227
      3 C          -0.7373    0.9621    0.6018 C.ar    1  LIG1       -0.0218
      4 C          -1.1515   -0.2526    0.0825 C.ar    1  LIG1        0.0650
      5 N          -0.0048   -0.9638   -0.2496 N.ar    1  LIG1       -0.3585
      6 H          -0.0092   -1.8154   -0.7885 H       1  LIG1        0.1654
      7 H           2.1061   -0.5686   -0.1953 H       1  LIG1        0.0818
      8 S           1.7684    2.2620    1.1644 S.3     1  LIG1       -0.1412
      9 H           1.5935    3.1637    0.1728 H       1  LIG1        0.1072
     10 H          -1.3785    1.7287    1.0089 H       1  LIG1        0.0650
     11 C          -2.4657   -0.8281   -0.1050 C.ar    1  LIG1        0.0767
     12 C          -3.6981   -0.2689   -0.4238 C.ar    1  LIG1        0.0321
     13 C          -4.6609   -1.3186   -0.4637 C.ar    1  LIG1       -0.0211
     14 C          -4.0108   -2.5034   -0.1816 C.ar    1  LIG1        0.0655
     15 N          -2.6632   -2.2012    0.0081 N.ar    1  LIG1       -0.3510
     16 H          -2.0681   -2.7710    0.5933 H       1  LIG1        0.1660
     17 S          -4.0022    1.4561   -0.7152 S.3     1  LIG1       -0.1405
     18 H          -4.6313    1.3200   -1.9024 H       1  LIG1        0.1072
     19 H          -5.7079   -1.2189   -0.7042 H       1  LIG1        0.0650
     20 C          -4.4766   -3.8724   -0.1016 C.ar    1  LIG1        0.0762
     21 C          -5.6999   -4.4401    0.2577 C.ar    1  LIG1        0.0315
     22 C          -5.5647   -5.8569    0.1674 C.ar    1  LIG1       -0.0305
     23 C          -4.2783   -6.1273   -0.2319 C.ar    1  LIG1        0.0033
     24 N          -3.6231   -4.9245   -0.3779 N.ar    1  LIG1       -0.3586
     25 H          -2.7239   -4.8100   -0.8185 H       1  LIG1        0.1654
     26 H          -3.7762   -7.0633   -0.4248 H       1  LIG1        0.0807
     27 S          -7.1841   -3.5663    0.6980 S.3     1  LIG1       -0.1405
     28 H          -7.0445   -3.5944    2.0430 H       1  LIG1        0.1072
     29 H          -6.3379   -6.5795    0.3833 H       1  LIG1        0.0644
@<TRIPOS>BOND
     1    18    17    1
     2    25    24    1
     3     6     5    1
     4    17    12    1
     5    19    13    1
     6    13    12   ar
     7    13    14   ar
     8    26    23    1
     9    12    11   ar
    10    24    23   ar
    11    24    20   ar
    12     5     1   ar
    13     5     4   ar
    14    23    22   ar
    15     7     1    1
    16    14    20    1
    17    14    15   ar
    18    11    15   ar
    19    11     4    1
    20    20    21   ar
    21    15    16    1
    22     1     2   ar
    23     4     3   ar
    24    22    21   ar
    25    22    29    1
    26     9     8    1
    27    21    27    1
    28     2     3   ar
    29     2     8    1
    30     3    10    1
    31    27    28    1
