@<TRIPOS>MOLECULE
mol_data/opt/b3lyp/geoms/mol2/13gd13gd-13gd-13gd-.out
 42 45 0 0 0
SMALL
GASTEIGER

@<TRIPOS>ATOM
      1 C           0.2032    1.3117    0.3148 C.ar    1  LIG1        0.0167
      2 C           0.7453    0.0558    0.1645 C.ar    1  LIG1        0.0401
      3 C          -0.3568   -0.8672    0.1422 C.ar    1  LIG1        0.0915
      4 C          -1.5422   -0.1164    0.2749 C.ar    1  LIG1        0.0827
      5 N          -1.1632    1.1918    0.3822 N.ar    1  LIG1       -0.3574
      6 H          -1.8326    1.9473    0.4735 H       1  LIG1        0.1654
      7 H           0.6921    2.2712    0.3778 H       1  LIG1        0.0818
      8 S           2.4769   -0.3241    0.1327 S.3     1  LIG1       -0.1399
      9 H           2.5652   -0.6616   -1.1730 H       1  LIG1        0.1072
     10 N          -0.4095   -3.4341   -0.1071 N.1     1  LIG1       -0.1908
     11 C          -0.3159   -2.2742    0.0003 C.1     1  LIG1        0.1024
     12 C          -2.9133   -0.5674    0.3031 C.ar    1  LIG1        0.0793
     13 C          -4.1497    0.0729    0.2849 C.ar    1  LIG1        0.0496
     14 C          -5.1655   -0.9455    0.2786 C.ar    1  LIG1        0.0922
     15 C          -4.5153   -2.1865    0.3164 C.ar    1  LIG1        0.0831
     16 N          -3.1727   -1.9189    0.3209 N.ar    1  LIG1       -0.3499
     17 H          -2.4715   -2.6275    0.4834 H       1  LIG1        0.1661
     18 S          -4.4071    1.8225    0.1345 S.3     1  LIG1       -0.1393
     19 H          -5.0250    2.0205    1.3193 H       1  LIG1        0.1072
     20 N          -7.6999   -0.4947    0.0882 N.1     1  LIG1       -0.1908
     21 C          -6.5596   -0.7140    0.1771 C.1     1  LIG1        0.1025
     22 C          -4.8880   -3.5806    0.2951 C.ar    1  LIG1        0.0793
     23 C          -5.8910   -4.3502    0.8666 C.ar    1  LIG1        0.0496
     24 C          -5.5223   -5.7315    0.6783 C.ar    1  LIG1        0.0922
     25 C          -4.3044   -5.7690   -0.0127 C.ar    1  LIG1        0.0831
     26 N          -3.9384   -4.4663   -0.2228 N.ar    1  LIG1       -0.3499
     27 H          -3.2764   -4.2018   -0.9393 H       1  LIG1        0.1661
     28 S          -7.2985   -3.7462    1.7377 S.3     1  LIG1       -0.1393
     29 H          -7.5558   -4.9100    2.3705 H       1  LIG1        0.1072
     30 N          -6.8309   -7.6631    1.7790 N.1     1  LIG1       -0.1908
     31 C          -6.2205   -6.8196    1.2555 C.1     1  LIG1        0.1025
     32 C          -3.4201   -6.8240   -0.4477 C.ar    1  LIG1        0.0788
     33 C          -3.6326   -8.1113   -0.9346 C.ar    1  LIG1        0.0489
     34 C          -2.3440   -8.6393   -1.2854 C.ar    1  LIG1        0.0828
     35 C          -1.3981   -7.6603   -1.0118 C.ar    1  LIG1        0.0208
     36 N          -2.0454   -6.5800   -0.5155 N.ar    1  LIG1       -0.3574
     37 H          -1.5795   -5.7510   -0.1639 H       1  LIG1        0.1654
     38 H          -0.3260   -7.6821   -1.1319 H       1  LIG1        0.0820
     39 S          -5.1865   -8.9266   -1.1250 S.3     1  LIG1       -0.1393
     40 H          -4.7485   -9.7924   -2.0623 H       1  LIG1        0.1072
     41 N          -1.9176  -10.9664   -2.3202 N.1     1  LIG1       -0.1908
     42 C          -2.0906   -9.9158   -1.8483 C.1     1  LIG1        0.1018
@<TRIPOS>BOND
     1    41    42    3
     2    40    39    1
     3    42    34    1
     4    34    35   ar
     5    34    33   ar
     6     9     8    1
     7    38    35    1
     8    39    33    1
     9    35    36   ar
    10    27    26    1
    11    33    32   ar
    12    36    32   ar
    13    36    37    1
    14    32    25    1
    15    26    25   ar
    16    26    22   ar
    17    10    11    3
    18    25    24   ar
    19    11     3    1
    20    20    21    3
    21     8     2    1
    22    18    13    1
    23    18    19    1
    24     3     2   ar
    25     3     4   ar
    26     2     1   ar
    27    21    14    1
    28     4    12    1
    29     4     5   ar
    30    14    13   ar
    31    14    15   ar
    32    13    12   ar
    33    22    15    1
    34    22    23   ar
    35    12    16   ar
    36     1     7    1
    37     1     5   ar
    38    15    16   ar
    39    16    17    1
    40     5     6    1
    41    24    23   ar
    42    24    31    1
    43    23    28    1
    44    31    30    3
    45    28    29    1
