@<TRIPOS>MOLECULE
mol_data/opt/b3lyp/geoms/mol2/13gd13gd-13gd13gd-.out
 42 45 0 0 0
SMALL
GASTEIGER

@<TRIPOS>ATOM
      1 C          -0.8367    2.5606   -0.9714 C.ar    1  LIG1        0.0167
      2 C          -0.7981    1.9682   -2.2140 C.ar    1  LIG1        0.0401
      3 C          -1.2993    0.6327   -2.0489 C.ar    1  LIG1        0.0915
      4 C          -1.6213    0.4634   -0.6922 C.ar    1  LIG1        0.0827
      5 N          -1.3369    1.6532   -0.0750 N.ar    1  LIG1       -0.3574
      6 H          -1.4545    1.7930    0.9218 H       1  LIG1        0.1654
      7 H          -0.5457    3.5547   -0.6700 H       1  LIG1        0.0818
      8 S          -0.3327    2.7787   -3.7197 S.3     1  LIG1       -0.1399
      9 H           0.7432    2.0154   -4.0105 H       1  LIG1        0.1072
     10 N          -1.5293   -1.2072   -3.8434 N.1     1  LIG1       -0.1908
     11 C          -1.4199   -0.3565   -3.0531 C.1     1  LIG1        0.1024
     12 C          -2.1506   -0.6800    0.0197 C.ar    1  LIG1        0.0793
     13 C          -2.3387   -0.9204    1.3810 C.ar    1  LIG1        0.0496
     14 C          -2.8806   -2.2376    1.5082 C.ar    1  LIG1        0.0922
     15 C          -3.0224   -2.7676    0.2162 C.ar    1  LIG1        0.0831
     16 N          -2.5685   -1.8116   -0.6490 N.ar    1  LIG1       -0.3499
     17 H          -2.6153   -1.9148   -1.6584 H       1  LIG1        0.1661
     18 S          -1.8944    0.1458    2.7300 S.3     1  LIG1       -0.1393
     19 H          -3.1431    0.4314    3.1617 H       1  LIG1        0.1072
     20 N          -3.5669   -3.4247    3.6944 N.1     1  LIG1       -0.1908
     21 C          -3.2498   -2.8764    2.7157 C.1     1  LIG1        0.1025
     22 C          -3.5278   -4.0480   -0.2265 C.ar    1  LIG1        0.0793
     23 C          -3.9583   -4.4841   -1.4799 C.ar    1  LIG1        0.0496
     24 C          -4.3740   -5.8421   -1.3278 C.ar    1  LIG1        0.0922
     25 C          -4.1733   -6.2091    0.0136 C.ar    1  LIG1        0.0831
     26 N          -3.6695   -5.1087    0.6464 N.ar    1  LIG1       -0.3499
     27 H          -3.3984   -5.1241    1.6271 H       1  LIG1        0.1661
     28 S          -4.1238   -3.5056   -2.9521 S.3     1  LIG1       -0.1393
     29 H          -2.9879   -3.8895   -3.5757 H       1  LIG1        0.1072
     30 N          -5.3532   -7.4516   -3.0895 N.1     1  LIG1       -0.1908
     31 C          -4.9051   -6.6898   -2.3285 C.1     1  LIG1        0.1025
     32 C          -4.4214   -7.4635    0.6907 C.ar    1  LIG1        0.0788
     33 C          -4.1620   -7.8785    1.9983 C.ar    1  LIG1        0.0489
     34 C          -4.6327   -9.2270    2.1134 C.ar    1  LIG1        0.0828
     35 C          -5.1649   -9.5838    0.8833 C.ar    1  LIG1        0.0208
     36 N          -5.0296   -8.5245    0.0444 N.ar    1  LIG1       -0.3574
     37 H          -5.3251   -8.5128   -0.9241 H       1  LIG1        0.1654
     38 H          -5.6199  -10.5090    0.5654 H       1  LIG1        0.0820
     39 S          -3.2821   -6.9677    3.2432 S.3     1  LIG1       -0.1393
     40 H          -4.3401   -6.5183    3.9535 H       1  LIG1        0.1072
     41 N          -4.5401  -10.7346    4.2095 N.1     1  LIG1       -0.1908
     42 C          -4.5780  -10.0549    3.2658 C.1     1  LIG1        0.1018
@<TRIPOS>BOND
     1     9     8    1
     2    10    11    3
     3     8     2    1
     4    29    28    1
     5    30    31    3
     6    11     3    1
     7    28    23    1
     8    31    24    1
     9     2     3   ar
    10     2     1   ar
    11     3     4   ar
    12    17    16    1
    13    23    24   ar
    14    23    22   ar
    15    24    25   ar
    16     1     7    1
    17     1     5   ar
    18    37    36    1
    19     4     5   ar
    20     4    12    1
    21    16    12   ar
    22    16    15   ar
    23    22    15    1
    24    22    26   ar
    25     5     6    1
    26    25    26   ar
    27    25    32    1
    28    12    13   ar
    29    36    32   ar
    30    36    35   ar
    31    15    14   ar
    32    38    35    1
    33    26    27    1
    34    32    33   ar
    35    35    34   ar
    36    13    14   ar
    37    13    18    1
    38    14    21    1
    39    33    34   ar
    40    33    39    1
    41    34    42    1
    42    21    20    3
    43    18    19    1
    44    39    40    1
    45    42    41    3
