@<TRIPOS>MOLECULE
mol_data/opt/b3lyp/geoms/mol2/13gd13gd-13gd-13gd.out
 42 45 0 0 0
SMALL
GASTEIGER

@<TRIPOS>ATOM
      1 C           1.1268   -0.5670    1.1848 C.ar    1  LIG1        0.0167
      2 C           0.6930    0.6807    1.5707 C.ar    1  LIG1        0.0401
      3 C          -0.6843    0.7858    1.1721 C.ar    1  LIG1        0.0915
      4 C          -1.0401   -0.4120    0.5420 C.ar    1  LIG1        0.0827
      5 N           0.0713   -1.2171    0.5805 N.ar    1  LIG1       -0.3574
      6 H           0.1510   -2.0857    0.0745 H       1  LIG1        0.1654
      7 H           2.0906   -1.0390    1.2931 H       1  LIG1        0.0818
      8 S           1.6711    1.8968    2.4052 S.3     1  LIG1       -0.1399
      9 H           0.6619    2.7690    2.6006 H       1  LIG1        0.1072
     10 N          -2.1832    2.8053    1.7493 N.1     1  LIG1       -0.1908
     11 C          -1.5331    1.8803    1.4670 C.1     1  LIG1        0.1024
     12 C          -2.2862   -0.8679   -0.0375 C.ar    1  LIG1        0.0793
     13 C          -3.1996   -0.2601   -0.8870 C.ar    1  LIG1        0.0496
     14 C          -4.2253   -1.2287   -1.1634 C.ar    1  LIG1        0.0922
     15 C          -3.9143   -2.4013   -0.4723 C.ar    1  LIG1        0.0831
     16 N          -2.7251   -2.1739    0.1793 N.ar    1  LIG1       -0.3499
     17 H          -2.4223   -2.7242    0.9708 H       1  LIG1        0.1661
     18 S          -3.0909    1.3767   -1.5397 S.3     1  LIG1       -0.1393
     19 H          -3.8106    1.1148   -2.6505 H       1  LIG1        0.1072
     20 N          -6.1135   -0.8780   -2.8882 N.1     1  LIG1       -0.1908
     21 C          -5.2785   -1.0548   -2.0952 C.1     1  LIG1        0.1025
     22 C          -4.5837   -3.6800   -0.3861 C.ar    1  LIG1        0.0793
     23 C          -5.9224   -4.0292   -0.2389 C.ar    1  LIG1        0.0496
     24 C          -5.9661   -5.4570   -0.1362 C.ar    1  LIG1        0.0922
     25 C          -4.6497   -5.9440   -0.2114 C.ar    1  LIG1        0.0831
     26 N          -3.8437   -4.8543   -0.3583 N.ar    1  LIG1       -0.3499
     27 H          -2.8520   -4.9352   -0.5551 H       1  LIG1        0.1661
     28 S          -7.2981   -2.9216   -0.1798 S.3     1  LIG1       -0.1393
     29 H          -7.9829   -3.6164    0.7530 H       1  LIG1        0.1072
     30 N          -8.0177   -6.9837    0.2003 N.1     1  LIG1       -0.1908
     31 C          -7.1150   -6.2614    0.0429 C.1     1  LIG1        0.1025
     32 C          -4.1420   -7.2974   -0.1781 C.ar    1  LIG1        0.0788
     33 C          -2.8473   -7.8067   -0.2934 C.ar    1  LIG1        0.0489
     34 C          -2.9400   -9.2334   -0.1927 C.ar    1  LIG1        0.0828
     35 C          -4.2811   -9.5453   -0.0302 C.ar    1  LIG1        0.0208
     36 N          -4.9835   -8.3829   -0.0166 N.ar    1  LIG1       -0.3574
     37 H          -5.9882   -8.3156    0.0923 H       1  LIG1        0.1654
     38 H          -4.7626  -10.5050    0.0758 H       1  LIG1        0.0820
     39 S          -1.3416   -6.8764   -0.4402 S.3     1  LIG1       -0.1393
     40 H          -1.0274   -7.2120   -1.7110 H       1  LIG1        0.1072
     41 N          -0.9790  -10.9094   -0.3260 N.1     1  LIG1       -0.1908
     42 C          -1.8662  -10.1591   -0.2613 C.1     1  LIG1        0.1018
@<TRIPOS>BOND
     1    20    21    3
     2    19    18    1
     3    21    14    1
     4    40    39    1
     5    18    13    1
     6    14    13   ar
     7    14    15   ar
     8    13    12   ar
     9    27    26    1
    10    15    22    1
    11    15    16   ar
    12    39    33    1
    13    22    26   ar
    14    22    23   ar
    15    26    25   ar
    16    41    42    3
    17    33    34   ar
    18    33    32   ar
    19    42    34    1
    20    23    28    1
    21    23    24   ar
    22    25    32    1
    23    25    24   ar
    24    34    35   ar
    25    28    29    1
    26    32    36   ar
    27    24    31    1
    28    12    16   ar
    29    12     4    1
    30    35    36   ar
    31    35    38    1
    32    36    37    1
    33    31    30    3
    34     6     5    1
    35    16    17    1
    36     4     5   ar
    37     4     3   ar
    38     5     1   ar
    39     3    11    1
    40     3     2   ar
    41     1     7    1
    42     1     2   ar
    43    11    10    3
    44     2     8    1
    45     8     9    1
