@<TRIPOS>MOLECULE
mol_data/opt/b3lyp/geoms/mol2/13gd.out
 12 12 0 0 0
SMALL
GASTEIGER

@<TRIPOS>ATOM
      1 C           1.1050   -0.4104   -0.0002 C.ar    1  LIG1        0.0162
      2 C           0.7029    0.9059    0.0001 C.ar    1  LIG1        0.0395
      3 C          -0.7368    0.9007    0.0001 C.ar    1  LIG1        0.0821
      4 C          -1.1468   -0.4263    0.0005 C.ar    1  LIG1        0.0203
      5 N          -0.0291   -1.1989   -0.0001 N.ar    1  LIG1       -0.3649
      6 H          -0.0268   -2.2064   -0.0004 H       1  LIG1        0.1648
      7 H          -2.1413   -0.8453    0.0009 H       1  LIG1        0.0820
      8 H           2.0921   -0.8437   -0.0004 H       1  LIG1        0.0818
      9 S           1.7794    2.3135    0.0003 S.3     1  LIG1       -0.1399
     10 H           0.7956    3.2349    0.0004 H       1  LIG1        0.1072
     11 N          -2.2240    3.0112    0.0008 N.1     1  LIG1       -0.1908
     12 C          -1.5745    2.0437    0.0002 C.1     1  LIG1        0.1017
@<TRIPOS>BOND
     1     8     1    1
     2     6     5    1
     3     1     5   ar
     4     1     2   ar
     5     5     4   ar
     6     3     2   ar
     7     3    12    1
     8     3     4   ar
     9     2     9    1
    10    12    11    3
    11     9    10    1
    12     4     7    1
