@<TRIPOS>MOLECULE
mol_data/opt/b3lyp/geoms/mol2/13gd13gd-13gd-.out
 32 34 0 0 0
SMALL
GASTEIGER

@<TRIPOS>ATOM
      1 C           1.1814   -0.1815   -0.4031 C.ar    1  LIG1        0.0167
      2 C           0.8482    0.9334    0.3310 C.ar    1  LIG1        0.0401
      3 C          -0.5781    0.9044    0.5113 C.ar    1  LIG1        0.0915
      4 C          -1.0685   -0.2352   -0.1360 C.ar    1  LIG1        0.0827
      5 N           0.0217   -0.8825   -0.6627 N.ar    1  LIG1       -0.3574
      6 H          -0.0462   -1.6540   -1.3080 H       1  LIG1        0.1654
      7 H           2.1400   -0.5292   -0.7548 H       1  LIG1        0.0818
      8 S           1.9880    2.1415    0.9418 S.3     1  LIG1       -0.1399
      9 H           1.0636    2.8842    1.5831 H       1  LIG1        0.1072
     10 N          -1.8631    2.6177    1.9505 N.1     1  LIG1       -0.1908
     11 C          -1.3160    1.8291    1.2896 C.1     1  LIG1        0.1024
     12 C          -2.4075   -0.7699   -0.2715 C.ar    1  LIG1        0.0793
     13 C          -3.6153   -0.1808   -0.6120 C.ar    1  LIG1        0.0496
     14 C          -4.6025   -1.2270   -0.6335 C.ar    1  LIG1        0.0922
     15 C          -3.9733   -2.4266   -0.2985 C.ar    1  LIG1        0.0831
     16 N          -2.6405   -2.1383   -0.1145 N.ar    1  LIG1       -0.3499
     17 H          -2.0325   -2.7284    0.4363 H       1  LIG1        0.1661
     18 S          -3.8743    1.5218   -0.9984 S.3     1  LIG1       -0.1393
     19 H          -4.9927    1.3149   -1.7242 H       1  LIG1        0.1072
     20 N          -7.0292   -0.8865   -1.4445 N.1     1  LIG1       -0.1908
     21 C          -5.9437   -1.0668   -1.0623 C.1     1  LIG1        0.1025
     22 C          -4.4787   -3.7746   -0.1529 C.ar    1  LIG1        0.0788
     23 C          -5.6095   -4.2872    0.4729 C.ar    1  LIG1        0.0489
     24 C          -5.5384   -5.7183    0.3532 C.ar    1  LIG1        0.0828
     25 C          -4.3731   -6.0281   -0.3316 C.ar    1  LIG1        0.0208
     26 N          -3.7409   -4.8613   -0.6209 N.ar    1  LIG1       -0.3574
     27 H          -2.9512   -4.7761   -1.2420 H       1  LIG1        0.1654
     28 H          -3.9774   -6.9882   -0.6244 H       1  LIG1        0.0820
     29 S          -6.8744   -3.3553    1.2785 S.3     1  LIG1       -0.1393
     30 H          -7.2352   -4.3429    2.1236 H       1  LIG1        0.1072
     31 N          -7.2422   -7.3924    1.3353 N.1     1  LIG1       -0.1908
     32 C          -6.4689   -6.6498    0.8813 C.1     1  LIG1        0.1018
@<TRIPOS>BOND
     1    19    18    1
     2    20    21    3
     3     6     5    1
     4    27    26    1
     5    21    14    1
     6    18    13    1
     7     7     1    1
     8     5     1   ar
     9     5     4   ar
    10    14    13   ar
    11    14    15   ar
    12    28    25    1
    13    26    25   ar
    14    26    22   ar
    15    13    12   ar
    16     1     2   ar
    17    25    24   ar
    18    15    22    1
    19    15    16   ar
    20    12     4    1
    21    12    16   ar
    22    22    23   ar
    23     4     3   ar
    24    16    17    1
    25     2     3   ar
    26     2     8    1
    27    24    23   ar
    28    24    32    1
    29    23    29    1
    30     3    11    1
    31    32    31    3
    32     8     9    1
    33    29    30    1
    34    11    10    3
