@<TRIPOS>MOLECULE
mol_data/opt/b3lyp/geoms/mol2/13gd13gd-13gd13gd.out
 42 45 0 0 0
SMALL
GASTEIGER

@<TRIPOS>ATOM
      1 C           0.3358    1.5022    0.1642 C.ar    1  LIG1        0.0167
      2 C           0.8628    0.3074    0.6018 C.ar    1  LIG1        0.0401
      3 C          -0.1674   -0.6787    0.4367 C.ar    1  LIG1        0.0915
      4 C          -1.2991   -0.0305   -0.0881 C.ar    1  LIG1        0.0827
      5 N          -0.9552    1.2843   -0.2455 N.ar    1  LIG1       -0.3574
      6 H          -1.5838    1.9672   -0.6526 H       1  LIG1        0.1654
      7 H           0.7873    2.4809    0.1190 H       1  LIG1        0.0818
      8 S           2.5360    0.0531    1.1278 S.3     1  LIG1       -0.1399
      9 H           2.2764   -0.2549    2.4174 H       1  LIG1        0.1072
     10 N          -0.1722   -3.2176    0.8827 N.1     1  LIG1       -0.1908
     11 C          -0.1050   -2.0662    0.7018 C.1     1  LIG1        0.1024
     12 C          -2.5928   -0.5686   -0.4436 C.ar    1  LIG1        0.0793
     13 C          -3.6747   -0.0406   -1.1436 C.ar    1  LIG1        0.0496
     14 C          -4.6678   -1.0711   -1.2433 C.ar    1  LIG1        0.0922
     15 C          -4.1731   -2.2024   -0.5841 C.ar    1  LIG1        0.0831
     16 N          -2.9272   -1.8672   -0.1161 N.ar    1  LIG1       -0.3499
     17 H          -2.3741   -2.4490    0.4997 H       1  LIG1        0.1661
     18 S          -3.8400    1.6253   -1.7336 S.3     1  LIG1       -0.1393
     19 H          -3.6846    1.3851   -3.0547 H       1  LIG1        0.1072
     20 N          -6.8200   -0.8720   -2.6546 N.1     1  LIG1       -0.1908
     21 C          -5.8633   -0.9748   -1.9987 C.1     1  LIG1        0.1025
     22 C          -4.6896   -3.5360   -0.3743 C.ar    1  LIG1        0.0793
     23 C          -5.9615   -4.0255   -0.0934 C.ar    1  LIG1        0.0496
     24 C          -5.8303   -5.4385    0.1145 C.ar    1  LIG1        0.0922
     25 C          -4.4802   -5.7770   -0.0197 C.ar    1  LIG1        0.0831
     26 N          -3.8162   -4.6214   -0.3302 N.ar    1  LIG1       -0.3499
     27 H          -2.8121   -4.5570   -0.4226 H       1  LIG1        0.1661
     28 S          -7.4557   -3.0908    0.0024 S.3     1  LIG1       -0.1393
     29 H          -8.0817   -3.9596    0.8231 H       1  LIG1        0.1072
     30 N          -7.8139   -7.0261    0.5695 N.1     1  LIG1       -0.1908
     31 C          -6.9024   -6.3303    0.3654 C.1     1  LIG1        0.1025
     32 C          -3.7911   -7.0479    0.0812 C.ar    1  LIG1        0.0788
     33 C          -3.8335   -8.0549    1.0372 C.ar    1  LIG1        0.0489
     34 C          -2.8682   -9.0442    0.6429 C.ar    1  LIG1        0.0828
     35 C          -2.2705   -8.6061   -0.5291 C.ar    1  LIG1        0.0208
     36 N          -2.8233   -7.4091   -0.8537 N.ar    1  LIG1       -0.3574
     37 H          -2.6782   -6.9312   -1.7301 H       1  LIG1        0.1654
     38 H          -1.5090   -9.0732   -1.1342 H       1  LIG1        0.0820
     39 S          -4.8661   -8.0960    2.4707 S.3     1  LIG1       -0.1393
     40 H          -3.9928   -8.7842    3.2347 H       1  LIG1        0.1072
     41 N          -2.2997  -11.1961    1.9531 N.1     1  LIG1       -0.1908
     42 C          -2.5503  -10.2329    1.3490 C.1     1  LIG1        0.1018
@<TRIPOS>BOND
     1    19    18    1
     2    20    21    3
     3    21    14    1
     4    18    13    1
     5    37    36    1
     6    14    13   ar
     7    14    15   ar
     8    13    12   ar
     9    38    35    1
    10    36    35   ar
    11    36    32   ar
    12     6     5    1
    13    15    22    1
    14    15    16   ar
    15    35    34   ar
    16    12    16   ar
    17    12     4    1
    18    27    26    1
    19    22    26   ar
    20    22    23   ar
    21    26    25   ar
    22     5     4   ar
    23     5     1   ar
    24    16    17    1
    25    23    28    1
    26    23    24   ar
    27     4     3   ar
    28    25    32    1
    29    25    24   ar
    30    28    29    1
    31    32    33   ar
    32    24    31    1
    33     7     1    1
    34     1     2   ar
    35    31    30    3
    36     3     2   ar
    37     3    11    1
    38     2     8    1
    39    34    33   ar
    40    34    42    1
    41    11    10    3
    42    33    39    1
    43     8     9    1
    44    42    41    3
    45    39    40    1
