@<TRIPOS>MOLECULE
mol_data/opt/b3lyp/geoms/mol2/13gd13gd13gd-13gd-.out
 42 45 0 0 0
SMALL
GASTEIGER

@<TRIPOS>ATOM
      1 C           0.2272    1.2923    0.3292 C.ar    1  LIG1        0.0167
      2 C           0.7634    0.0338    0.1791 C.ar    1  LIG1        0.0401
      3 C          -0.3437   -0.8828    0.1446 C.ar    1  LIG1        0.0915
      4 C          -1.5260   -0.1258    0.2699 C.ar    1  LIG1        0.0827
      5 N          -1.1404    1.1800    0.3846 N.ar    1  LIG1       -0.3574
      6 H          -1.8061    1.9390    0.4734 H       1  LIG1        0.1654
      7 H           0.7210    2.2488    0.3993 H       1  LIG1        0.0818
      8 S           2.4929   -0.3561    0.1605 S.3     1  LIG1       -0.1399
      9 H           2.5912   -0.6853   -1.1466 H       1  LIG1        0.1072
     10 N          -0.4087   -3.4485   -0.1140 N.1     1  LIG1       -0.1908
     11 C          -0.3095   -2.2896   -0.0018 C.1     1  LIG1        0.1024
     12 C          -2.8997   -0.5692    0.2851 C.ar    1  LIG1        0.0793
     13 C          -4.1323    0.0781    0.2583 C.ar    1  LIG1        0.0496
     14 C          -5.1536   -0.9345    0.2403 C.ar    1  LIG1        0.0922
     15 C          -4.5107   -2.1793    0.2800 C.ar    1  LIG1        0.0831
     16 N          -3.1668   -1.9192    0.2968 N.ar    1  LIG1       -0.3499
     17 H          -2.4709   -2.6323    0.4629 H       1  LIG1        0.1661
     18 S          -4.3786    1.8296    0.1111 S.3     1  LIG1       -0.1393
     19 H          -5.0087    2.0268    1.2897 H       1  LIG1        0.1072
     20 N          -7.6839   -0.4692    0.0304 N.1     1  LIG1       -0.1908
     21 C          -6.5456   -0.6951    0.1279 C.1     1  LIG1        0.1025
     22 C          -4.8909   -3.5712    0.2507 C.ar    1  LIG1        0.0793
     23 C          -5.9027   -4.3372    0.8115 C.ar    1  LIG1        0.0496
     24 C          -5.5399   -5.7198    0.6218 C.ar    1  LIG1        0.0922
     25 C          -4.3166   -5.7617   -0.0593 C.ar    1  LIG1        0.0831
     26 N          -3.9419   -4.4604   -0.2622 N.ar    1  LIG1       -0.3499
     27 H          -3.2723   -4.1971   -0.9720 H       1  LIG1        0.1661
     28 S          -7.3137   -3.7283    1.6735 S.3     1  LIG1       -0.1393
     29 H          -7.5842   -4.8935    2.2981 H       1  LIG1        0.1072
     30 N          -6.8682   -7.6478    1.7052 N.1     1  LIG1       -0.1908
     31 C          -6.2488   -6.8061    1.1896 C.1     1  LIG1        0.1025
     32 C          -3.4344   -6.8202   -0.4905 C.ar    1  LIG1        0.0788
     33 C          -3.6498   -8.1048   -0.9831 C.ar    1  LIG1        0.0489
     34 C          -2.3612   -8.6388   -1.3247 C.ar    1  LIG1        0.0828
     35 C          -1.4123   -7.6657   -1.0402 C.ar    1  LIG1        0.0208
     36 N          -2.0579   -6.5834   -0.5461 N.ar    1  LIG1       -0.3574
     37 H          -1.5903   -5.7581   -0.1880 H       1  LIG1        0.1654
     38 H          -0.3394   -7.6930   -1.1516 H       1  LIG1        0.0820
     39 S          -5.2065   -8.9108   -1.1893 S.3     1  LIG1       -0.1393
     40 H          -4.7644   -9.7785   -2.1229 H       1  LIG1        0.1072
     41 N          -1.9391  -10.9650   -2.3632 N.1     1  LIG1       -0.1908
     42 C          -2.1102   -9.9149   -1.8895 C.1     1  LIG1        0.1018
@<TRIPOS>BOND
     1    41    42    3
     2    40    39    1
     3    42    34    1
     4    34    35   ar
     5    34    33   ar
     6    39    33    1
     7    38    35    1
     8     9     8    1
     9    35    36   ar
    10    33    32   ar
    11    27    26    1
    12    36    32   ar
    13    36    37    1
    14    32    25    1
    15    26    25   ar
    16    26    22   ar
    17    10    11    3
    18    25    24   ar
    19    11     3    1
    20    20    21    3
    21    18    13    1
    22    18    19    1
    23    21    14    1
    24     3     2   ar
    25     3     4   ar
    26     8     2    1
    27     2     1   ar
    28    14    13   ar
    29    14    15   ar
    30    22    15    1
    31    22    23   ar
    32    13    12   ar
    33     4    12    1
    34     4     5   ar
    35    15    16   ar
    36    12    16   ar
    37    16    17    1
    38     1     5   ar
    39     1     7    1
    40     5     6    1
    41    24    23   ar
    42    24    31    1
    43    23    28    1
    44    31    30    3
    45    28    29    1
