@<TRIPOS>MOLECULE
mol_data/opt/b3lyp/geoms/mol2/13gd13gd13gd13gd.out
 42 45 0 0 0
SMALL
GASTEIGER

@<TRIPOS>ATOM
      1 C           1.1807   -0.1082    0.2376 C.ar    1  LIG1        0.0167
      2 C           0.7947    1.0656   -0.3663 C.ar    1  LIG1        0.0401
      3 C          -0.6383    1.0239   -0.4883 C.ar    1  LIG1        0.0915
      4 C          -1.0759   -0.1800    0.0681 C.ar    1  LIG1        0.0827
      5 N           0.0522   -0.8610    0.4698 N.ar    1  LIG1       -0.3574
      6 H           0.0263   -1.6929    1.0390 H       1  LIG1        0.1654
      7 H           2.1636   -0.4563    0.5145 H       1  LIG1        0.0818
      8 S           1.9075    2.2916   -0.9960 S.3     1  LIG1       -0.1399
      9 H           1.3043    3.3651   -0.4443 H       1  LIG1        0.1072
     10 N          -2.0909    2.8152   -1.6496 N.1     1  LIG1       -0.1908
     11 C          -1.4484    2.0001   -1.1218 C.1     1  LIG1        0.1024
     12 C          -2.4002   -0.7466    0.2283 C.ar    1  LIG1        0.0793
     13 C          -3.5770   -0.2235    0.7392 C.ar    1  LIG1        0.0496
     14 C          -4.5599   -1.2730    0.6938 C.ar    1  LIG1        0.0922
     15 C          -3.9591   -2.4084    0.1450 C.ar    1  LIG1        0.0831
     16 N          -2.6434   -2.0833   -0.0968 N.ar    1  LIG1       -0.3499
     17 H          -2.0810   -2.5836   -0.7705 H       1  LIG1        0.1661
     18 S          -3.8023    1.4079    1.3731 S.3     1  LIG1       -0.1393
     19 H          -4.8582    1.0935    2.1519 H       1  LIG1        0.1072
     20 N          -6.9017   -1.0631    1.7579 N.1     1  LIG1       -0.1908
     21 C          -5.8570   -1.1845    1.2568 C.1     1  LIG1        0.1025
     22 C          -4.4712   -3.7264   -0.1496 C.ar    1  LIG1        0.0793
     23 C          -5.6769   -4.1644   -0.6823 C.ar    1  LIG1        0.0496
     24 C          -5.5857   -5.5946   -0.8040 C.ar    1  LIG1        0.0922
     25 C          -4.3321   -5.9941   -0.3403 C.ar    1  LIG1        0.0831
     26 N          -3.6570   -4.8501    0.0185 N.ar    1  LIG1       -0.3499
     27 H          -2.8889   -4.8658    0.6746 H       1  LIG1        0.1661
     28 S          -7.0351   -3.1567   -1.1817 S.3     1  LIG1       -0.1393
     29 H          -7.5396   -4.0585   -2.0495 H       1  LIG1        0.1072
     30 N          -7.3792   -7.0530   -1.9529 N.1     1  LIG1       -0.1908
     31 C          -6.5593   -6.4202   -1.4199 C.1     1  LIG1        0.1025
     32 C          -3.7214   -7.3000   -0.2170 C.ar    1  LIG1        0.0788
     33 C          -4.1945   -8.5076    0.2837 C.ar    1  LIG1        0.0489
     34 C          -3.1035   -9.4415    0.2157 C.ar    1  LIG1        0.0828
     35 C          -2.0096   -8.7761   -0.3167 C.ar    1  LIG1        0.0208
     36 N          -2.3832   -7.4932   -0.5600 N.ar    1  LIG1       -0.3574
     37 H          -1.8429   -6.8321   -1.0968 H       1  LIG1        0.1654
     38 H          -1.0180   -9.1410   -0.5353 H       1  LIG1        0.0820
     39 S          -5.8168   -8.8175    0.9061 S.3     1  LIG1       -0.1393
     40 H          -5.4513   -9.8490    1.6948 H       1  LIG1        0.1072
     41 N          -3.1744  -11.8879    1.0404 N.1     1  LIG1       -0.1908
     42 C          -3.1280  -10.7892    0.6579 C.1     1  LIG1        0.1018
@<TRIPOS>BOND
     1    29    28    1
     2    30    31    3
     3    10    11    3
     4    31    24    1
     5    28    23    1
     6    11     3    1
     7    37    36    1
     8     8     9    1
     9     8     2    1
    10    24    23   ar
    11    24    25   ar
    12    17    16    1
    13    23    22   ar
    14    36    35   ar
    15    36    32   ar
    16    38    35    1
    17     3     2   ar
    18     3     4   ar
    19     2     1   ar
    20    25    32    1
    21    25    26   ar
    22    35    34   ar
    23    32    33   ar
    24    22    26   ar
    25    22    15    1
    26    16    15   ar
    27    16    12   ar
    28    26    27    1
    29     4    12    1
    30     4     5   ar
    31    15    14   ar
    32    34    33   ar
    33    34    42    1
    34    12    13   ar
    35     1     5   ar
    36     1     7    1
    37    33    39    1
    38     5     6    1
    39    42    41    3
    40    14    13   ar
    41    14    21    1
    42    13    18    1
    43    39    40    1
    44    21    20    3
    45    18    19    1
