@<TRIPOS>MOLECULE
mol_data/opt/b3lyp/geoms/mol2/13gd13gd-.out
 22 23 0 0 0
SMALL
GASTEIGER

@<TRIPOS>ATOM
      1 C           1.0955   -0.2974   -0.6602 C.ar    1  LIG1        0.0167
      2 C           0.8300    0.9480   -0.1390 C.ar    1  LIG1        0.0401
      3 C          -0.5565    0.9544    0.2413 C.ar    1  LIG1        0.0915
      4 C          -1.0930   -0.2976   -0.0742 C.ar    1  LIG1        0.0827
      5 N          -0.0659   -1.0397   -0.6013 N.ar    1  LIG1       -0.3574
      6 H          -0.1961   -1.9328   -1.0512 H       1  LIG1        0.1654
      7 H           2.0077   -0.7102   -1.0616 H       1  LIG1        0.0818
      8 S           2.0039    2.2612    0.0395 S.3     1  LIG1       -0.1399
      9 H           1.1417    3.1356    0.5956 H       1  LIG1        0.1072
     10 N          -1.7059    2.9338    1.4331 N.1     1  LIG1       -0.1908
     11 C          -1.2186    2.0237    0.8927 C.1     1  LIG1        0.1024
     12 C          -2.4247   -0.8483    0.0937 C.ar    1  LIG1        0.0788
     13 C          -3.6798   -0.3732   -0.2601 C.ar    1  LIG1        0.0489
     14 C          -4.6306   -1.3866    0.1102 C.ar    1  LIG1        0.0828
     15 C          -3.9250   -2.4418    0.6690 C.ar    1  LIG1        0.0208
     16 N          -2.6071   -2.1138    0.6485 N.ar    1  LIG1       -0.3574
     17 H          -1.8790   -2.6288    1.1196 H       1  LIG1        0.1654
     18 H          -4.2824   -3.3767    1.0719 H       1  LIG1        0.0820
     19 S          -4.0255    1.1809   -1.0264 S.3     1  LIG1       -0.1393
     20 H          -5.1624    0.7751   -1.6283 H       1  LIG1        0.1072
     21 N          -7.1780   -1.2761   -0.3004 N.1     1  LIG1       -0.1908
     22 C          -6.0322   -1.3376   -0.1023 C.1     1  LIG1        0.1018
@<TRIPOS>BOND
     1    20    19    1
     2     7     1    1
     3     6     5    1
     4    19    13    1
     5     1     5   ar
     6     1     2   ar
     7     5     4   ar
     8    21    22    3
     9    13    12   ar
    10    13    14   ar
    11     2     8    1
    12     2     3   ar
    13    22    14    1
    14     4    12    1
    15     4     3   ar
    16     8     9    1
    17    12    16   ar
    18    14    15   ar
    19     3    11    1
    20    16    15   ar
    21    16    17    1
    22    15    18    1
    23    11    10    3
