@<TRIPOS>MOLECULE
mol_data/opt/b3lyp/geoms/mol2/13gd13gd13gd-13gd.out
 42 45 0 0 0
SMALL
GASTEIGER

@<TRIPOS>ATOM
      1 C          -0.8071    2.5464    0.9588 C.ar    1  LIG1        0.0167
      2 C          -0.7387    1.9384    2.1926 C.ar    1  LIG1        0.0401
      3 C          -1.2458    0.6056    2.0232 C.ar    1  LIG1        0.0915
      4 C          -1.6012    0.4538    0.6727 C.ar    1  LIG1        0.0827
      5 N          -1.3304    1.6509    0.0638 N.ar    1  LIG1       -0.3574
      6 H          -1.4719    1.8031   -0.9281 H       1  LIG1        0.1654
      7 H          -0.5222    3.5439    0.6629 H       1  LIG1        0.0818
      8 S          -0.2357    2.7296    3.6965 S.3     1  LIG1       -0.1399
      9 H           0.8452    1.9608    3.9520 H       1  LIG1        0.1072
     10 N          -1.4341   -1.2564    3.7996 N.1     1  LIG1       -0.1908
     11 C          -1.3430   -0.3960    3.0175 C.1     1  LIG1        0.1024
     12 C          -2.1491   -0.6802   -0.0402 C.ar    1  LIG1        0.0793
     13 C          -2.3711   -0.9031   -1.3994 C.ar    1  LIG1        0.0496
     14 C          -2.9172   -2.2183   -1.5299 C.ar    1  LIG1        0.0922
     15 C          -3.0275   -2.7646   -0.2416 C.ar    1  LIG1        0.0831
     16 N          -2.5515   -1.8199    0.6242 N.ar    1  LIG1       -0.3499
     17 H          -2.5735   -1.9360    1.6330 H       1  LIG1        0.1661
     18 S          -1.9592    0.1799   -2.7455 S.3     1  LIG1       -0.1393
     19 H          -3.2181    0.4734   -3.1412 H       1  LIG1        0.1072
     20 N          -3.6587   -3.3771   -3.7132 N.1     1  LIG1       -0.1908
     21 C          -3.3168   -2.8414   -2.7359 C.1     1  LIG1        0.1025
     22 C          -3.5229   -4.0503    0.1970 C.ar    1  LIG1        0.0793
     23 C          -3.9225   -4.5021    1.4550 C.ar    1  LIG1        0.0496
     24 C          -4.3429   -5.8579    1.2960 C.ar    1  LIG1        0.0922
     25 C          -4.1758   -6.2078   -0.0545 C.ar    1  LIG1        0.0831
     26 N          -3.6870   -5.0997   -0.6855 N.ar    1  LIG1       -0.3499
     27 H          -3.4405   -5.1026   -1.6729 H       1  LIG1        0.1661
     28 S          -4.0508   -3.5424    2.9430 S.3     1  LIG1       -0.1393
     29 H          -2.9005   -3.9352    3.5339 H       1  LIG1        0.1072
     30 N          -5.2795   -7.4891    3.0609 N.1     1  LIG1       -0.1908
     31 C          -4.8498   -6.7179    2.2987 C.1     1  LIG1        0.1025
     32 C          -4.4415   -7.4534   -0.7413 C.ar    1  LIG1        0.0788
     33 C          -4.2145   -7.8519   -2.0600 C.ar    1  LIG1        0.0489
     34 C          -4.6890   -9.1986   -2.1806 C.ar    1  LIG1        0.0828
     35 C          -5.1912   -9.5707   -0.9423 C.ar    1  LIG1        0.0208
     36 N          -5.0345   -8.5222   -0.0937 N.ar    1  LIG1       -0.3574
     37 H          -5.3061   -8.5226    0.8818 H       1  LIG1        0.1654
     38 H          -5.6389  -10.4996   -0.6251 H       1  LIG1        0.0820
     39 S          -3.3651   -6.9258   -3.3146 S.3     1  LIG1       -0.1393
     40 H          -4.4400   -6.4673   -3.9928 H       1  LIG1        0.1072
     41 N          -4.6490  -10.6796   -4.2972 N.1     1  LIG1       -0.1908
     42 C          -4.6632  -10.0119   -3.3443 C.1     1  LIG1        0.1018
@<TRIPOS>BOND
     1    41    42    3
     2    40    39    1
     3    20    21    3
     4    42    34    1
     5    39    33    1
     6    19    18    1
     7    18    13    1
     8    21    14    1
     9    34    33   ar
    10    34    35   ar
    11    33    32   ar
    12    27    26    1
    13    14    13   ar
    14    14    15   ar
    15    13    12   ar
    16    35    38    1
    17    35    36   ar
    18     6     5    1
    19    32    36   ar
    20    32    25    1
    21    26    25   ar
    22    26    22   ar
    23    15    22    1
    24    15    16   ar
    25    36    37    1
    26    25    24   ar
    27    12    16   ar
    28    12     4    1
    29     5     4   ar
    30     5     1   ar
    31    22    23   ar
    32    16    17    1
    33     7     1    1
    34     4     3   ar
    35     1     2   ar
    36    24    23   ar
    37    24    31    1
    38    23    28    1
    39     3     2   ar
    40     3    11    1
    41     2     8    1
    42    31    30    3
    43    28    29    1
    44    11    10    3
    45     8     9    1
