@<TRIPOS>MOLECULE
mol_data/opt/b3lyp/geoms/mol2/13gd13gd13gd-.out
 32 34 0 0 0
SMALL
GASTEIGER

@<TRIPOS>ATOM
      1 C           0.1582    1.4743    1.2668 C.ar    1  LIG1        0.0167
      2 C           0.8367    0.3235    0.9332 C.ar    1  LIG1        0.0401
      3 C          -0.1524   -0.6347    0.5249 C.ar    1  LIG1        0.0915
      4 C          -1.4096   -0.0169    0.6240 C.ar    1  LIG1        0.0827
      5 N          -1.1817    1.2533    1.0857 N.ar    1  LIG1       -0.3574
      6 H          -1.9248    1.9301    1.2130 H       1  LIG1        0.1654
      7 H           0.5347    2.4225    1.6172 H       1  LIG1        0.0818
      8 S           2.5825    0.0798    1.1129 S.3     1  LIG1       -0.1399
      9 H           2.8654   -0.1600   -0.1859 H       1  LIG1        0.1072
     10 N           0.2654   -3.0314   -0.3352 N.1     1  LIG1       -0.1908
     11 C           0.0937   -1.9486    0.0618 C.1     1  LIG1        0.1024
     12 C          -2.7385   -0.5103    0.3302 C.ar    1  LIG1        0.0793
     13 C          -3.9672    0.1434    0.2440 C.ar    1  LIG1        0.0496
     14 C          -4.9458   -0.8400   -0.1011 C.ar    1  LIG1        0.0922
     15 C          -4.2933   -2.0791   -0.2000 C.ar    1  LIG1        0.0831
     16 N          -2.9717   -1.8438    0.0559 N.ar    1  LIG1       -0.3499
     17 H          -2.2798   -2.5898    0.0816 H       1  LIG1        0.1661
     18 S          -4.2756    1.8846    0.4106 S.3     1  LIG1       -0.1393
     19 H          -5.0022    1.8372    1.5496 H       1  LIG1        0.1072
     20 N          -7.4741   -0.5211   -0.4992 N.1     1  LIG1       -0.1908
     21 C          -6.3279   -0.6261   -0.3093 C.1     1  LIG1        0.1025
     22 C          -4.8206   -3.3901   -0.5128 C.ar    1  LIG1        0.0788
     23 C          -4.2281   -4.6540   -0.5107 C.ar    1  LIG1        0.0489
     24 C          -5.2332   -5.5911   -0.9169 C.ar    1  LIG1        0.0828
     25 C          -6.3945   -4.8719   -1.1567 C.ar    1  LIG1        0.0208
     26 N          -6.1354   -3.5620   -0.9088 N.ar    1  LIG1       -0.3574
     27 H          -6.8134   -2.8147   -0.9895 H       1  LIG1        0.1654
     28 H          -7.3666   -5.2100   -1.4805 H       1  LIG1        0.0820
     29 S          -2.5884   -5.0460    0.0444 S.3     1  LIG1       -0.1393
     30 H          -1.9971   -5.1957   -1.1609 H       1  LIG1        0.1072
     31 N          -4.9632   -8.1469   -1.1811 N.1     1  LIG1       -0.1908
     32 C          -5.0832   -6.9960   -1.0584 C.1     1  LIG1        0.1018
@<TRIPOS>BOND
     1    28    25    1
     2    31    32    3
     3    30    29    1
     4    25    24   ar
     5    25    26   ar
     6    32    24    1
     7    27    26    1
     8    24    23   ar
     9    26    22   ar
    10    22    23   ar
    11    22    15    1
    12    23    29    1
    13    20    21    3
    14    10    11    3
    15    21    14    1
    16    15    14   ar
    17    15    16   ar
    18     9     8    1
    19    14    13   ar
    20    16    17    1
    21    16    12   ar
    22    11     3    1
    23    13    12   ar
    24    13    18    1
    25    12     4    1
    26    18    19    1
    27     3     4   ar
    28     3     2   ar
    29     4     5   ar
    30     2     8    1
    31     2     1   ar
    32     5     6    1
    33     5     1   ar
    34     1     7    1
