@<TRIPOS>MOLECULE
mol_data/opt/b3lyp/geoms/mol2/13gd13gd.out
 22 23 0 0 0
SMALL
GASTEIGER

@<TRIPOS>ATOM
      1 C           1.0963   -0.3023    0.6594 C.ar    1  LIG1        0.0167
      2 C           0.8304    0.9467    0.1470 C.ar    1  LIG1        0.0401
      3 C          -0.5565    0.9559   -0.2317 C.ar    1  LIG1        0.0915
      4 C          -1.0929   -0.2982    0.0759 C.ar    1  LIG1        0.0827
      5 N          -0.0652   -1.0440    0.5965 N.ar    1  LIG1       -0.3574
      6 H          -0.1948   -1.9405    1.0400 H       1  LIG1        0.1654
      7 H           2.0089   -0.7178    1.0571 H       1  LIG1        0.0818
      8 S           2.0046    2.2604   -0.0249 S.3     1  LIG1       -0.1399
      9 H           1.1393    3.1427   -0.5635 H       1  LIG1        0.1072
     10 N          -1.7078    2.9440   -1.4072 N.1     1  LIG1       -0.1908
     11 C          -1.2195    2.0299   -0.8744 C.1     1  LIG1        0.1024
     12 C          -2.4248   -0.8477   -0.0944 C.ar    1  LIG1        0.0788
     13 C          -3.6795   -0.3754    0.2652 C.ar    1  LIG1        0.0489
     14 C          -4.6307   -1.3858   -0.1117 C.ar    1  LIG1        0.0828
     15 C          -3.9260   -2.4365   -0.6802 C.ar    1  LIG1        0.0208
     16 N          -2.6081   -2.1085   -0.6593 N.ar    1  LIG1       -0.3574
     17 H          -1.8805   -2.6202   -1.1348 H       1  LIG1        0.1654
     18 H          -4.2839   -3.3682   -1.0901 H       1  LIG1        0.0820
     19 S          -4.0240    1.1726    1.0443 S.3     1  LIG1       -0.1393
     20 H          -5.1596    0.7618    1.6453 H       1  LIG1        0.1072
     21 N          -7.1776   -1.2786    0.3035 N.1     1  LIG1       -0.1908
     22 C          -6.0320   -1.3387    0.1032 C.1     1  LIG1        0.1018
@<TRIPOS>BOND
     1    10    11    3
     2    17    16    1
     3    18    15    1
     4    11     3    1
     5    15    16   ar
     6    15    14   ar
     7    16    12   ar
     8     9     8    1
     9     3     4   ar
    10     3     2   ar
    11    14    22    1
    12    14    13   ar
    13    12     4    1
    14    12    13   ar
    15     8     2    1
    16     4     5   ar
    17    22    21    3
    18     2     1   ar
    19    13    19    1
    20     5     1   ar
    21     5     6    1
    22     1     7    1
    23    19    20    1
