@<TRIPOS>MOLECULE
mol_data/opt/b3lyp/geoms/mol2/13gd13gd-13gd.out
 32 34 0 0 0
SMALL
GASTEIGER

@<TRIPOS>ATOM
      1 C           0.1214    1.5239   -1.2378 C.ar    1  LIG1        0.0167
      2 C           0.8104    0.3671   -0.9495 C.ar    1  LIG1        0.0401
      3 C          -0.1673   -0.6068   -0.5511 C.ar    1  LIG1        0.0915
      4 C          -1.4286    0.0080   -0.6099 C.ar    1  LIG1        0.0827
      5 N          -1.2141    1.2918   -1.0391 N.ar    1  LIG1       -0.3574
      6 H          -1.9622    1.9685   -1.1336 H       1  LIG1        0.1654
      7 H           0.4878    2.4834   -1.5676 H       1  LIG1        0.0818
      8 S           2.5535    0.1365   -1.1673 S.3     1  LIG1       -0.1399
      9 H           2.8608   -0.1394    0.1186 H       1  LIG1        0.1072
     10 N           0.2752   -3.0253    0.2324 N.1     1  LIG1       -0.1908
     11 C           0.0922   -1.9324   -0.1302 C.1     1  LIG1        0.1024
     12 C          -2.7499   -0.4998   -0.3065 C.ar    1  LIG1        0.0793
     13 C          -3.9796    0.1455   -0.1801 C.ar    1  LIG1        0.0496
     14 C          -4.9479   -0.8518    0.1539 C.ar    1  LIG1        0.0922
     15 C          -4.2887   -2.0903    0.2057 C.ar    1  LIG1        0.0831
     16 N          -2.9728   -1.8416   -0.0665 N.ar    1  LIG1       -0.3499
     17 H          -2.2784   -2.5834   -0.1258 H       1  LIG1        0.1661
     18 S          -4.2978    1.8897   -0.2909 S.3     1  LIG1       -0.1393
     19 H          -5.0447    1.8717   -1.4176 H       1  LIG1        0.1072
     20 N          -7.4700   -0.5558    0.6060 N.1     1  LIG1       -0.1908
     21 C          -6.3269   -0.6501    0.3928 C.1     1  LIG1        0.1025
     22 C          -4.8050   -3.4119    0.4902 C.ar    1  LIG1        0.0788
     23 C          -4.2074   -4.6725    0.4413 C.ar    1  LIG1        0.0489
     24 C          -5.2014   -5.6256    0.8377 C.ar    1  LIG1        0.0828
     25 C          -6.3613   -4.9189    1.1184 C.ar    1  LIG1        0.0208
     26 N          -6.1119   -3.6012    0.9038 N.ar    1  LIG1       -0.3574
     27 H          -6.7913   -2.8597    1.0185 H       1  LIG1        0.1654
     28 H          -7.3261   -5.2706    1.4492 H       1  LIG1        0.0820
     29 S          -2.5762   -5.0408   -0.1535 S.3     1  LIG1       -0.1393
     30 H          -1.9631   -5.2223    1.0365 H       1  LIG1        0.1072
     31 N          -4.9162   -8.1866    1.0233 N.1     1  LIG1       -0.1908
     32 C          -5.0432   -7.0332    0.9360 C.1     1  LIG1        0.1018
@<TRIPOS>BOND
     1     7     1    1
     2    19    18    1
     3     1     5   ar
     4     1     2   ar
     5     8     2    1
     6     8     9    1
     7     6     5    1
     8     5     4   ar
     9     2     3   ar
    10     4     3   ar
    11     4    12    1
    12     3    11    1
    13    12    13   ar
    14    12    16   ar
    15    18    13    1
    16    13    14   ar
    17    29    23    1
    18    29    30    1
    19    11    10    3
    20    17    16    1
    21    16    15   ar
    22    14    15   ar
    23    14    21    1
    24    15    22    1
    25    21    20    3
    26    23    22   ar
    27    23    24   ar
    28    22    26   ar
    29    24    32    1
    30    24    25   ar
    31    26    27    1
    32    26    25   ar
    33    32    31    3
    34    25    28    1
