@<TRIPOS>MOLECULE
mol_data/opt/b3lyp/geoms/mol2/13gd13gd13gd.out
 32 34 0 0 0
SMALL
GASTEIGER

@<TRIPOS>ATOM
      1 C           1.1765   -0.1773    0.4058 C.ar    1  LIG1        0.0167
      2 C           0.8396    0.9488   -0.3093 C.ar    1  LIG1        0.0401
      3 C          -0.5875    0.9214   -0.4846 C.ar    1  LIG1        0.0915
      4 C          -1.0743   -0.2290    0.1460 C.ar    1  LIG1        0.0827
      5 N           0.0183   -0.8825    0.6601 N.ar    1  LIG1       -0.3574
      6 H          -0.0466   -1.6642    1.2934 H       1  LIG1        0.1654
      7 H           2.1369   -0.5301    0.7472 H       1  LIG1        0.0818
      8 S           1.9750    2.1739   -0.8943 S.3     1  LIG1       -0.1399
      9 H           1.0644    2.8740   -1.6000 H       1  LIG1        0.1072
     10 N          -1.8773    2.6510   -1.8995 N.1     1  LIG1       -0.1908
     11 C          -1.3282    1.8554   -1.2489 C.1     1  LIG1        0.1024
     12 C          -2.4116   -0.7691    0.2760 C.ar    1  LIG1        0.0793
     13 C          -3.6209   -0.1882    0.6253 C.ar    1  LIG1        0.0496
     14 C          -4.6048   -1.2377    0.6349 C.ar    1  LIG1        0.0922
     15 C          -3.9721   -2.4311    0.2844 C.ar    1  LIG1        0.0831
     16 N          -2.6405   -2.1363    0.1024 N.ar    1  LIG1       -0.3499
     17 H          -2.0313   -2.7176   -0.4564 H       1  LIG1        0.1661
     18 S          -3.8852    1.5086    1.0330 S.3     1  LIG1       -0.1393
     19 H          -5.0034    1.2892    1.7553 H       1  LIG1        0.1072
     20 N          -7.0318   -0.9153    1.4523 N.1     1  LIG1       -0.1908
     21 C          -5.9460   -1.0873    1.0670 C.1     1  LIG1        0.1025
     22 C          -4.4734   -3.7789    0.1230 C.ar    1  LIG1        0.0788
     23 C          -5.6029   -4.2875   -0.5082 C.ar    1  LIG1        0.0489
     24 C          -5.5271   -5.7197   -0.4058 C.ar    1  LIG1        0.0828
     25 C          -4.3604   -6.0340    0.2743 C.ar    1  LIG1        0.0208
     26 N          -3.7317   -4.8688    0.5771 N.ar    1  LIG1       -0.3574
     27 H          -2.9419   -4.7885    1.1989 H       1  LIG1        0.1654
     28 H          -3.9614   -6.9963    0.5552 H       1  LIG1        0.0820
     29 S          -6.8712   -3.3500   -1.3013 S.3     1  LIG1       -0.1393
     30 H          -7.2299   -4.3285   -2.1580 H       1  LIG1        0.1072
     31 N          -7.2264   -7.3873   -1.4068 N.1     1  LIG1       -0.1908
     32 C          -6.4551   -6.6477   -0.9444 C.1     1  LIG1        0.1018
@<TRIPOS>BOND
     1    30    29    1
     2    10    11    3
     3     9     8    1
     4    31    32    3
     5    29    23    1
     6    11     3    1
     7    32    24    1
     8     8     2    1
     9    23    24   ar
    10    23    22   ar
    11     3     2   ar
    12     3     4   ar
    13    17    16    1
    14    24    25   ar
    15     2     1   ar
    16    16    12   ar
    17    16    15   ar
    18    22    15    1
    19    22    26   ar
    20     4    12    1
    21     4     5   ar
    22    25    28    1
    23    25    26   ar
    24    12    13   ar
    25    15    14   ar
    26     1     5   ar
    27     1     7    1
    28    26    27    1
    29    13    14   ar
    30    13    18    1
    31    14    21    1
    32     5     6    1
    33    18    19    1
    34    21    20    3
