@<TRIPOS>MOLECULE
mol_data/opt/b3lyp/geoms/mol2/13ge13ge.out
 24 25 0 0 0
SMALL
GASTEIGER

@<TRIPOS>ATOM
      1 C           1.0992   -0.3612    0.6438 C.ar    1  LIG1        0.0167
      2 C           0.8226    0.9361    0.2809 C.ar    1  LIG1        0.0381
      3 C          -0.5743    1.0010   -0.0650 C.ar    1  LIG1        0.0645
      4 C          -1.1029   -0.2811    0.1153 C.ar    1  LIG1        0.0806
      5 N          -0.0655   -1.0908    0.5209 N.ar    1  LIG1       -0.3575
      6 H          -0.1983   -2.0197    0.8892 H       1  LIG1        0.1654
      7 H           2.0196   -0.8196    0.9703 H       1  LIG1        0.0818
      8 S           1.9876    2.2695    0.2245 S.3     1  LIG1       -0.1400
      9 H           1.0988    3.1778   -0.2285 H       1  LIG1        0.1072
     10 C          -1.2479    2.1419   -0.5602 C.1     1  LIG1       -0.0664
     11 C          -1.7792    3.1439   -0.9870 C.1     1  LIG1       -0.1138
     12 H          -2.2787    4.0091   -1.3563 H       1  LIG1        0.1232
     13 C          -2.4346   -0.8159   -0.0910 C.ar    1  LIG1        0.0787
     14 C          -3.6949   -0.3782    0.2913 C.ar    1  LIG1        0.0469
     15 C          -4.6500   -1.3616   -0.1535 C.ar    1  LIG1        0.0557
     16 C          -3.9324   -2.3657   -0.7866 C.ar    1  LIG1        0.0188
     17 N          -2.6101   -2.0387   -0.7347 N.ar    1  LIG1       -0.3575
     18 H          -1.8825   -2.4978   -1.2604 H       1  LIG1        0.1654
     19 H          -4.2820   -3.2705   -1.2592 H       1  LIG1        0.0820
     20 S          -4.0616    1.0981    1.1940 S.3     1  LIG1       -0.1394
     21 H          -5.2174    0.6278    1.7089 H       1  LIG1        0.1072
     22 C          -6.0503   -1.3285    0.0595 C.1     1  LIG1       -0.0671
     23 C          -7.2428   -1.2760    0.2649 C.1     1  LIG1       -0.1138
     24 H          -8.2946   -1.2354    0.4281 H       1  LIG1        0.1232
@<TRIPOS>BOND
     1    12    11    1
     2    18    17    1
     3    19    16    1
     4    11    10    3
     5    16    17   ar
     6    16    15   ar
     7    17    13   ar
     8    10     3    1
     9     9     8    1
    10    15    22    1
    11    15    14   ar
    12    13     4    1
    13    13    14   ar
    14     3     4   ar
    15     3     2   ar
    16    22    23    3
    17     4     5   ar
    18     8     2    1
    19    23    24    1
    20     2     1   ar
    21    14    20    1
    22     5     1   ar
    23     5     6    1
    24     1     7    1
    25    20    21    1
