@<TRIPOS>MOLECULE
mol_data/opt/b3lyp/geoms/mol2/13ge13ge-13ge-13ge.out
 46 49 0 0 0
SMALL
GASTEIGER

@<TRIPOS>ATOM
      1 C           0.4046    0.0588    2.4504 C.ar    1  LIG1        0.0167
      2 C           0.6909    0.8512    1.3633 C.ar    1  LIG1        0.0381
      3 C          -0.3960    0.7126    0.4286 C.ar    1  LIG1        0.0645
      4 C          -1.3203   -0.1671    0.9998 C.ar    1  LIG1        0.0807
      5 N          -0.7992   -0.5701    2.2099 N.ar    1  LIG1       -0.3575
      6 H          -1.3363   -1.0547    2.9125 H       1  LIG1        0.1654
      7 H           0.9552   -0.1087    3.3629 H       1  LIG1        0.0818
      8 S           2.1582    1.8193    1.1450 S.3     1  LIG1       -0.1400
      9 H           1.7400    2.4091    0.0063 H       1  LIG1        0.1072
     10 C          -0.4678    1.3149   -0.8495 C.1     1  LIG1       -0.0664
     11 C          -0.4842    1.8491   -1.9370 C.1     1  LIG1       -0.1138
     12 H          -0.5317    2.3128   -2.8948 H       1  LIG1        0.1232
     13 C          -2.5841   -0.6881    0.5146 C.ar    1  LIG1        0.0791
     14 C          -3.7136   -0.0752   -0.0113 C.ar    1  LIG1        0.0476
     15 C          -4.6941   -1.0974   -0.2531 C.ar    1  LIG1        0.0652
     16 C          -4.1370   -2.3159    0.1483 C.ar    1  LIG1        0.0811
     17 N          -2.8648   -2.0460    0.5922 N.ar    1  LIG1       -0.3500
     18 H          -2.2264   -2.7357    0.9575 H       1  LIG1        0.1661
     19 S          -3.9090    1.6548   -0.3234 S.3     1  LIG1       -0.1393
     20 H          -5.2555    1.6316   -0.2336 H       1  LIG1        0.1072
     21 C          -5.9791   -0.9004   -0.8126 C.1     1  LIG1       -0.0664
     22 C          -7.0727   -0.6960   -1.2913 C.1     1  LIG1       -0.1138
     23 H          -8.0396   -0.5408   -1.7104 H       1  LIG1        0.1232
     24 C          -4.6516   -3.6721    0.1084 C.ar    1  LIG1        0.0791
     25 C          -5.8205   -4.2448    0.5902 C.ar    1  LIG1        0.0476
     26 C          -5.7579   -5.6562    0.3280 C.ar    1  LIG1        0.0652
     27 C          -4.5348   -5.9113   -0.3015 C.ar    1  LIG1        0.0811
     28 N          -3.8923   -4.7039   -0.4301 N.ar    1  LIG1       -0.3500
     29 H          -2.9919   -4.5810   -0.8668 H       1  LIG1        0.1661
     30 S          -7.1442   -3.3891    1.3922 S.3     1  LIG1       -0.1393
     31 H          -7.6053   -4.4815    2.0369 H       1  LIG1        0.1072
     32 C          -6.7632   -6.6027    0.6375 C.1     1  LIG1       -0.0664
     33 C          -7.6431   -7.3855    0.9202 C.1     1  LIG1       -0.1138
     34 H          -8.4041   -8.0932    1.1543 H       1  LIG1        0.1232
     35 C          -3.9517   -7.1350   -0.8184 C.ar    1  LIG1        0.0787
     36 C          -3.7474   -8.3860   -0.2548 C.ar    1  LIG1        0.0469
     37 C          -3.0590   -9.1946   -1.2288 C.ar    1  LIG1        0.0557
     38 C          -2.8674   -8.4011   -2.3502 C.ar    1  LIG1        0.0188
     39 N          -3.3900   -7.1687   -2.0932 N.ar    1  LIG1       -0.3575
     40 H          -3.5504   -6.4584   -2.7909 H       1  LIG1        0.1654
     41 H          -2.4012   -8.6411   -3.2932 H       1  LIG1        0.0820
     42 S          -4.2094   -8.8860    1.3778 S.3     1  LIG1       -0.1394
     43 H          -3.2749   -9.8563    1.4649 H       1  LIG1        0.1072
     44 C          -2.6216  -10.5306   -1.0520 C.1     1  LIG1       -0.0671
     45 C          -2.2525  -11.6691   -0.8668 C.1     1  LIG1       -0.1138
     46 H          -1.9336  -12.6752   -0.7224 H       1  LIG1        0.1232
@<TRIPOS>BOND
     1    41    38    1
     2    12    11    1
     3    40    39    1
     4    38    39   ar
     5    38    37   ar
     6    39    35   ar
     7    11    10    3
     8    23    22    1
     9    22    21    3
    10    37    44    1
    11    37    36   ar
    12    44    45    3
    13    29    28    1
    14    45    46    1
    15    10     3    1
    16    35    27    1
    17    35    36   ar
    18    21    15    1
    19    28    27   ar
    20    28    24   ar
    21    19    20    1
    22    19    14    1
    23    27    26   ar
    24    36    42    1
    25    15    14   ar
    26    15    16   ar
    27    14    13   ar
    28     9     8    1
    29    24    16    1
    30    24    25   ar
    31    16    17   ar
    32    26    25   ar
    33    26    32    1
    34     3     4   ar
    35     3     2   ar
    36    13    17   ar
    37    13     4    1
    38    25    30    1
    39    17    18    1
    40    32    33    3
    41    33    34    1
    42     4     5   ar
    43     8     2    1
    44     2     1   ar
    45    42    43    1
    46    30    31    1
    47     5     1   ar
    48     5     6    1
    49     1     7    1
