@<TRIPOS>MOLECULE
mol_data/opt/b3lyp/geoms/mol2/13ge13ge13ge13ge-.out
 46 49 0 0 0
SMALL
GASTEIGER

@<TRIPOS>ATOM
      1 C           1.1841   -0.2467    0.2558 C.ar    1  LIG1        0.0167
      2 C           0.8273    0.9900   -0.2281 C.ar    1  LIG1        0.0381
      3 C          -0.6111    1.0302   -0.2982 C.ar    1  LIG1        0.0645
      4 C          -1.0801   -0.2039    0.1660 C.ar    1  LIG1        0.0807
      5 N           0.0264   -0.9675    0.4672 N.ar    1  LIG1       -0.3575
      6 H          -0.0227   -1.8273    0.9905 H       1  LIG1        0.1654
      7 H           2.1559   -0.6692    0.4583 H       1  LIG1        0.0818
      8 S           1.9441    2.2769   -0.7109 S.3     1  LIG1       -0.1400
      9 H           0.9726    3.1445   -1.0627 H       1  LIG1        0.1072
     10 C          -1.3784    2.0992   -0.8160 C.1     1  LIG1       -0.0664
     11 C          -1.9911    3.0383   -1.2755 C.1     1  LIG1       -0.1138
     12 H          -2.5614    3.8480   -1.6678 H       1  LIG1        0.1232
     13 C          -2.4162   -0.7414    0.3084 C.ar    1  LIG1        0.0791
     14 C          -3.5938   -0.2155    0.8144 C.ar    1  LIG1        0.0476
     15 C          -4.6001   -1.2456    0.7433 C.ar    1  LIG1        0.0652
     16 C          -4.0030   -2.3760    0.1805 C.ar    1  LIG1        0.0811
     17 N          -2.6732   -2.0704   -0.0370 N.ar    1  LIG1       -0.3500
     18 H          -2.1247   -2.5524   -0.7350 H       1  LIG1        0.1661
     19 S          -3.8147    1.3944    1.5086 S.3     1  LIG1       -0.1393
     20 H          -4.8896    1.0428    2.2467 H       1  LIG1        0.1072
     21 C          -5.9060   -1.1495    1.2776 C.1     1  LIG1       -0.0664
     22 C          -7.0083   -1.0316    1.7663 C.1     1  LIG1       -0.1138
     23 H          -7.9900   -0.9545    2.1727 H       1  LIG1        0.1232
     24 C          -4.5176   -3.6880   -0.1341 C.ar    1  LIG1        0.0791
     25 C          -5.7208   -4.1302   -0.6656 C.ar    1  LIG1        0.0476
     26 C          -5.6369   -5.5626   -0.8033 C.ar    1  LIG1        0.0652
     27 C          -4.3794   -5.9556   -0.3440 C.ar    1  LIG1        0.0811
     28 N          -3.6984   -4.8099    0.0177 N.ar    1  LIG1       -0.3500
     29 H          -2.9457   -4.8297    0.6911 H       1  LIG1        0.1661
     30 S          -7.0813   -3.1300   -1.1846 S.3     1  LIG1       -0.1393
     31 H          -7.5683   -4.0574   -2.0373 H       1  LIG1        0.1072
     32 C          -6.6128   -6.3873   -1.4109 C.1     1  LIG1       -0.0664
     33 C          -7.4644   -7.0576   -1.9522 C.1     1  LIG1       -0.1138
     34 H          -8.2038   -7.6741   -2.4083 H       1  LIG1        0.1232
     35 C          -3.7497   -7.2541   -0.2433 C.ar    1  LIG1        0.0787
     36 C          -4.1995   -8.4904    0.2042 C.ar    1  LIG1        0.0469
     37 C          -3.0911   -9.4078    0.1281 C.ar    1  LIG1        0.0557
     38 C          -2.0059   -8.6943   -0.3588 C.ar    1  LIG1        0.0188
     39 N          -2.4017   -7.4062   -0.5628 N.ar    1  LIG1       -0.3575
     40 H          -1.8741   -6.7172   -1.0755 H       1  LIG1        0.1654
     41 H          -1.0004   -9.0258   -0.5672 H       1  LIG1        0.0820
     42 S          -5.8173   -8.8652    0.8098 S.3     1  LIG1       -0.1394
     43 H          -5.4135   -9.9219    1.5469 H       1  LIG1        0.1072
     44 C          -3.1000  -10.7690    0.5214 C.1     1  LIG1       -0.0671
     45 C          -3.1374  -11.9270    0.8738 C.1     1  LIG1       -0.1138
     46 H          -3.1597  -12.9504    1.1690 H       1  LIG1        0.1232
@<TRIPOS>BOND
     1    34    33    1
     2    31    30    1
     3    33    32    3
     4    12    11    1
     5    32    26    1
     6    11    10    3
     7    30    25    1
     8    40    39    1
     9     9     8    1
    10    10     3    1
    11    26    25   ar
    12    26    27   ar
    13    18    17    1
    14     8     2    1
    15    25    24   ar
    16    41    38    1
    17    39    38   ar
    18    39    35   ar
    19    38    37   ar
    20    27    35    1
    21    27    28   ar
    22     3     2   ar
    23     3     4   ar
    24    35    36   ar
    25     2     1   ar
    26    24    28   ar
    27    24    16    1
    28    17    16   ar
    29    17    13   ar
    30    28    29    1
    31    37    36   ar
    32    37    44    1
    33     4    13    1
    34     4     5   ar
    35    16    15   ar
    36    36    42    1
    37     1     7    1
    38     1     5   ar
    39    13    14   ar
    40     5     6    1
    41    44    45    3
    42    15    14   ar
    43    15    21    1
    44    42    43    1
    45    14    19    1
    46    45    46    1
    47    21    22    3
    48    19    20    1
    49    22    23    1
