@<TRIPOS>MOLECULE
mol_data/opt/b3lyp/geoms/mol2/13ge13ge13ge-13ge.out
 46 49 0 0 0
SMALL
GASTEIGER

@<TRIPOS>ATOM
      1 C           0.4063    0.0190    2.4751 C.ar    1  LIG1        0.0167
      2 C           0.6918    0.8286    1.4005 C.ar    1  LIG1        0.0381
      3 C          -0.3958    0.7051    0.4646 C.ar    1  LIG1        0.0645
      4 C          -1.3199   -0.1834    1.0226 C.ar    1  LIG1        0.0807
      5 N          -0.7979   -0.6058    2.2256 N.ar    1  LIG1       -0.3575
      6 H          -1.3345   -1.1014    2.9208 H       1  LIG1        0.1654
      7 H           0.9576   -0.1632    3.3844 H       1  LIG1        0.0818
      8 S           2.1592    1.7996    1.1964 S.3     1  LIG1       -0.1400
      9 H           1.7401    2.4076    0.0677 H       1  LIG1        0.1072
     10 C          -0.4686    1.3277   -0.8036 C.1     1  LIG1       -0.0664
     11 C          -0.4857    1.8794   -1.8823 C.1     1  LIG1       -0.1138
     12 H          -0.5339    2.3584   -2.8325 H       1  LIG1        0.1232
     13 C          -2.5842   -0.6965    0.5303 C.ar    1  LIG1        0.0791
     14 C          -3.7143   -0.0753    0.0153 C.ar    1  LIG1        0.0476
     15 C          -4.6950   -1.0935   -0.2417 C.ar    1  LIG1        0.0652
     16 C          -4.1376   -2.3183    0.1399 C.ar    1  LIG1        0.0811
     17 N          -2.8649   -2.0554    0.5868 N.ar    1  LIG1       -0.3500
     18 H          -2.2260   -2.7509    0.9400 H       1  LIG1        0.1661
     19 S          -3.9098    1.6594   -0.2692 S.3     1  LIG1       -0.1393
     20 H          -5.2562    1.6348   -0.1786 H       1  LIG1        0.1072
     21 C          -5.9806   -0.8875   -0.7965 C.1     1  LIG1       -0.0664
     22 C          -7.0747   -0.6754   -1.2706 C.1     1  LIG1       -0.1138
     23 H          -8.0420   -0.5136   -1.6862 H       1  LIG1        0.1232
     24 C          -4.6521   -3.6737    0.0787 C.ar    1  LIG1        0.0791
     25 C          -5.8203   -4.2543    0.5527 C.ar    1  LIG1        0.0476
     26 C          -5.7577   -5.6614    0.2679 C.ar    1  LIG1        0.0652
     27 C          -4.5352   -5.9061   -0.3669 C.ar    1  LIG1        0.0811
     28 N          -3.8932   -4.6967   -0.4769 N.ar    1  LIG1       -0.3500
     29 H          -2.9932   -4.5665   -0.9124 H       1  LIG1        0.1661
     30 S          -7.1434   -3.4118    1.3695 S.3     1  LIG1       -0.1393
     31 H          -7.6037   -4.5145    1.9971 H       1  LIG1        0.1072
     32 C          -6.7624   -6.6128    0.5636 C.1     1  LIG1       -0.0664
     33 C          -7.6419   -7.4001    0.8348 C.1     1  LIG1       -0.1138
     34 H          -8.4025   -8.1115    1.0586 H       1  LIG1        0.1232
     35 C          -3.9522   -7.1211   -0.9039 C.ar    1  LIG1        0.0787
     36 C          -3.7470   -8.3811   -0.3608 C.ar    1  LIG1        0.0469
     37 C          -3.0592   -9.1735   -1.3484 C.ar    1  LIG1        0.0557
     38 C          -2.8688   -8.3618   -2.4570 C.ar    1  LIG1        0.0188
     39 N          -3.3916   -7.1339   -2.1796 N.ar    1  LIG1       -0.3575
     40 H          -3.5528   -6.4124   -2.8655 H       1  LIG1        0.1654
     41 H          -2.4032   -8.5864   -3.4041 H       1  LIG1        0.0820
     42 S          -4.2076   -8.9077    1.2638 S.3     1  LIG1       -0.1394
     43 H          -3.2729   -9.8792    1.3342 H       1  LIG1        0.1072
     44 C          -2.6213  -10.5120   -1.1937 C.1     1  LIG1       -0.0671
     45 C          -2.2517  -11.6533   -1.0272 C.1     1  LIG1       -0.1138
     46 H          -1.9323  -12.6615   -0.8995 H       1  LIG1        0.1232
@<TRIPOS>BOND
     1    41    38    1
     2    40    39    1
     3    12    11    1
     4    38    39   ar
     5    38    37   ar
     6    39    35   ar
     7    11    10    3
     8    23    22    1
     9    37    44    1
    10    37    36   ar
    11    22    21    3
    12    44    45    3
    13    45    46    1
    14    29    28    1
    15    35    27    1
    16    35    36   ar
    17    10     3    1
    18    21    15    1
    19    28    27   ar
    20    28    24   ar
    21    27    26   ar
    22    36    42    1
    23    19    20    1
    24    19    14    1
    25    15    14   ar
    26    15    16   ar
    27    14    13   ar
    28     9     8    1
    29    24    16    1
    30    24    25   ar
    31    16    17   ar
    32    26    25   ar
    33    26    32    1
    34     3     4   ar
    35     3     2   ar
    36    13    17   ar
    37    13     4    1
    38    25    30    1
    39    32    33    3
    40    17    18    1
    41    33    34    1
    42     4     5   ar
    43     8     2    1
    44    42    43    1
    45    30    31    1
    46     2     1   ar
    47     5     1   ar
    48     5     6    1
    49     1     7    1
