@<TRIPOS>MOLECULE
mol_data/opt/b3lyp/geoms/mol2/13ge13ge-13ge.out
 35 37 0 0 0
SMALL
GASTEIGER

@<TRIPOS>ATOM
      1 C           0.9113   -0.2154   -1.4160 C.ar    1  LIG1        0.0167
      2 C           0.8374    0.8827   -0.5912 C.ar    1  LIG1        0.0381
      3 C          -0.4809    0.9006   -0.0115 C.ar    1  LIG1        0.0645
      4 C          -1.1711   -0.2019   -0.5240 C.ar    1  LIG1        0.0807
      5 N          -0.2982   -0.8758   -1.3500 N.ar    1  LIG1       -0.3575
      6 H          -0.5877   -1.5960   -1.9937 H       1  LIG1        0.1654
      7 H           1.7180   -0.5779   -2.0338 H       1  LIG1        0.0818
      8 S           2.1471    2.0330   -0.2760 S.3     1  LIG1       -0.1400
      9 H           1.4106    2.8284    0.5269 H       1  LIG1        0.1072
     10 C          -0.9494    1.8323    0.9445 C.1     1  LIG1       -0.0664
     11 C          -1.3045    2.6506    1.7646 C.1     1  LIG1       -0.1138
     12 H          -1.6504    3.3607    2.4792 H       1  LIG1        0.1232
     13 C          -2.5137   -0.6962   -0.2860 C.ar    1  LIG1        0.0791
     14 C          -3.7600   -0.0854   -0.3200 C.ar    1  LIG1        0.0476
     15 C          -4.7503   -1.0954   -0.0661 C.ar    1  LIG1        0.0652
     16 C          -4.0764   -2.3096    0.1032 C.ar    1  LIG1        0.0811
     17 N          -2.7347   -2.0420   -0.0215 N.ar    1  LIG1       -0.3500
     18 H          -2.0039   -2.7320    0.0563 H       1  LIG1        0.1661
     19 S          -4.0716    1.6284   -0.6267 S.3     1  LIG1       -0.1393
     20 H          -5.3285    1.4323   -1.0773 H       1  LIG1        0.1072
     21 C          -6.1475   -0.8865    0.0148 C.1     1  LIG1       -0.0664
     22 C          -7.3381   -0.6725    0.0748 C.1     1  LIG1       -0.1138
     23 H          -8.3889   -0.5092    0.1359 H       1  LIG1        0.1232
     24 C          -4.5541   -3.6447    0.4087 C.ar    1  LIG1        0.0787
     25 C          -5.5379   -4.4415   -0.1588 C.ar    1  LIG1        0.0469
     26 C          -5.5242   -5.7069    0.5307 C.ar    1  LIG1        0.0557
     27 C          -4.5271   -5.6328    1.4920 C.ar    1  LIG1        0.0188
     28 N          -3.9430   -4.4041    1.4045 N.ar    1  LIG1       -0.3575
     29 H          -3.3198   -4.0161    2.0959 H       1  LIG1        0.1654
     30 H          -4.2110   -6.3680    2.2156 H       1  LIG1        0.0820
     31 S          -6.5916   -3.9990   -1.5087 S.3     1  LIG1       -0.1394
     32 H          -6.8015   -5.2711   -1.9084 H       1  LIG1        0.1072
     33 C          -6.3436   -6.8273    0.2465 C.1     1  LIG1       -0.0671
     34 C          -7.0521   -7.7710   -0.0258 C.1     1  LIG1       -0.1138
     35 H          -7.6784   -8.6040   -0.2460 H       1  LIG1        0.1232
@<TRIPOS>BOND
     1     7     1    1
     2     6     5    1
     3    32    31    1
     4    31    25    1
     5     1     5   ar
     6     1     2   ar
     7     5     4   ar
     8    20    19    1
     9    19    14    1
    10     2     8    1
    11     2     3   ar
    12     4    13    1
    13     4     3   ar
    14    14    13   ar
    15    14    15   ar
    16    13    17   ar
    17     8     9    1
    18    35    34    1
    19    25    24   ar
    20    25    26   ar
    21    15    21    1
    22    15    16   ar
    23    34    33    3
    24    17    18    1
    25    17    16   ar
    26     3    10    1
    27    21    22    3
    28    22    23    1
    29    16    24    1
    30    33    26    1
    31    24    28   ar
    32    26    27   ar
    33    10    11    3
    34    28    27   ar
    35    28    29    1
    36    27    30    1
    37    11    12    1
