@<TRIPOS>MOLECULE
mol_data/opt/b3lyp/geoms/mol2/13ge13ge13ge-.out
 35 37 0 0 0
SMALL
GASTEIGER

@<TRIPOS>ATOM
      1 C           0.9404   -0.2506    1.3583 C.ar    1  LIG1        0.0167
      2 C           0.8547    0.8619    0.5542 C.ar    1  LIG1        0.0381
      3 C          -0.4737    0.8931   -0.0013 C.ar    1  LIG1        0.0645
      4 C          -1.1576   -0.2166    0.5041 C.ar    1  LIG1        0.0807
      5 N          -0.2720   -0.9067    1.3026 N.ar    1  LIG1       -0.3575
      6 H          -0.5515   -1.6380    1.9380 H       1  LIG1        0.1654
      7 H           1.7570   -0.6259    1.9550 H       1  LIG1        0.0818
      8 S           2.1616    2.0146    0.2360 S.3     1  LIG1       -0.1400
      9 H           1.4133    2.8252   -0.5405 H       1  LIG1        0.1072
     10 C          -0.9567    1.8426   -0.9323 C.1     1  LIG1       -0.0664
     11 C          -1.3242    2.6760   -1.7315 C.1     1  LIG1       -0.1138
     12 H          -1.6810    3.3995   -2.4271 H       1  LIG1        0.1232
     13 C          -2.5057   -0.7033    0.2817 C.ar    1  LIG1        0.0791
     14 C          -3.7494   -0.0901    0.3489 C.ar    1  LIG1        0.0476
     15 C          -4.7469   -1.0931    0.0956 C.ar    1  LIG1        0.0652
     16 C          -4.0796   -2.3058   -0.1070 C.ar    1  LIG1        0.0811
     17 N          -2.7352   -2.0437   -0.0020 N.ar    1  LIG1       -0.3500
     18 H          -2.0079   -2.7341   -0.1055 H       1  LIG1        0.1661
     19 S          -4.0505    1.6189    0.6908 S.3     1  LIG1       -0.1393
     20 H          -5.2994    1.4181    1.1615 H       1  LIG1        0.1072
     21 C          -6.1448   -0.8794    0.0438 C.1     1  LIG1       -0.0664
     22 C          -7.3357   -0.6615    0.0091 C.1     1  LIG1       -0.1138
     23 H          -8.3871   -0.4948   -0.0297 H       1  LIG1        0.1232
     24 C          -4.5665   -3.6342   -0.4270 C.ar    1  LIG1        0.0787
     25 C          -5.5420   -4.4384    0.1443 C.ar    1  LIG1        0.0469
     26 C          -5.5440   -5.6917   -0.5670 C.ar    1  LIG1        0.0557
     27 C          -4.5641   -5.6033   -1.5446 C.ar    1  LIG1        0.0188
     28 N          -3.9752   -4.3777   -1.4465 N.ar    1  LIG1       -0.3575
     29 H          -3.3640   -3.9792   -2.1426 H       1  LIG1        0.1654
     30 H          -4.2632   -6.3266   -2.2866 H       1  LIG1        0.0820
     31 S          -6.5701   -4.0170    1.5206 S.3     1  LIG1       -0.1394
     32 H          -6.7763   -5.2954    1.9017 H       1  LIG1        0.1072
     33 C          -6.3610   -6.8150   -0.2874 C.1     1  LIG1       -0.0671
     34 C          -7.0670   -7.7617   -0.0186 C.1     1  LIG1       -0.1138
     35 H          -7.6914   -8.5969    0.1985 H       1  LIG1        0.1232
@<TRIPOS>BOND
     1    12    11    1
     2    30    27    1
     3    29    28    1
     4    11    10    3
     5    27    28   ar
     6    27    26   ar
     7    28    24   ar
     8    10     3    1
     9    26    33    1
    10    26    25   ar
    11     9     8    1
    12    24    16    1
    13    24    25   ar
    14    33    34    3
    15    16    17   ar
    16    16    15   ar
    17    18    17    1
    18    23    22    1
    19    34    35    1
    20    17    13   ar
    21     3     4   ar
    22     3     2   ar
    23    22    21    3
    24    21    15    1
    25    15    14   ar
    26    25    31    1
    27     8     2    1
    28    13    14   ar
    29    13     4    1
    30    14    19    1
    31     4     5   ar
    32     2     1   ar
    33    19    20    1
    34     5     1   ar
    35     5     6    1
    36     1     7    1
    37    31    32    1
