@<TRIPOS>MOLECULE
mol_data/opt/b3lyp/geoms/mol2/13ge13ge-.out
 24 25 0 0 0
SMALL
GASTEIGER

@<TRIPOS>ATOM
      1 C           1.0980   -0.3544   -0.6472 C.ar    1  LIG1        0.0167
      2 C           0.8220    0.9391   -0.2710 C.ar    1  LIG1        0.0381
      3 C          -0.5742    1.0005    0.0781 C.ar    1  LIG1        0.0645
      4 C          -1.1032   -0.2797   -0.1140 C.ar    1  LIG1        0.0806
      5 N          -0.0665   -1.0853   -0.5296 N.ar    1  LIG1       -0.3575
      6 H          -0.2000   -2.0104   -0.9072 H       1  LIG1        0.1654
      7 H           2.0177   -0.8096   -0.9799 H       1  LIG1        0.0818
      8 S           1.9870    2.2721   -0.2035 S.3     1  LIG1       -0.1400
      9 H           1.0999    3.1748    0.2638 H       1  LIG1        0.1072
     10 C          -1.2469    2.1364    0.5861 C.1     1  LIG1       -0.0664
     11 C          -1.7774    3.1340    1.0241 C.1     1  LIG1       -0.1138
     12 H          -2.2763    3.9953    1.4032 H       1  LIG1        0.1232
     13 C          -2.4344   -0.8168    0.0892 C.ar    1  LIG1        0.0787
     14 C          -3.6955   -0.3753   -0.2861 C.ar    1  LIG1        0.0469
     15 C          -4.6496   -1.3632    0.1505 C.ar    1  LIG1        0.0557
     16 C          -3.9308   -2.3736    0.7720 C.ar    1  LIG1        0.0188
     17 N          -2.6085   -2.0460    0.7208 N.ar    1  LIG1       -0.3575
     18 H          -1.8799   -2.5103    1.2404 H       1  LIG1        0.1654
     19 H          -4.2794   -3.2832    1.2360 H       1  LIG1        0.0820
     20 S          -4.0643    1.1098   -1.1733 S.3     1  LIG1       -0.1394
     21 H          -5.2211    0.6446   -1.6907 H       1  LIG1        0.1072
     22 C          -6.0504   -1.3281   -0.0595 C.1     1  LIG1       -0.0671
     23 C          -7.2433   -1.2735   -0.2620 C.1     1  LIG1       -0.1138
     24 H          -8.2954   -1.2319   -0.4228 H       1  LIG1        0.1232
@<TRIPOS>BOND
     1    21    20    1
     2    20    14    1
     3     7     1    1
     4     6     5    1
     5     1     5   ar
     6     1     2   ar
     7     5     4   ar
     8    24    23    1
     9    14    13   ar
    10    14    15   ar
    11     2     8    1
    12     2     3   ar
    13    23    22    3
    14     8     9    1
    15     4     3   ar
    16     4    13    1
    17    22    15    1
    18     3    10    1
    19    13    17   ar
    20    15    16   ar
    21    10    11    3
    22    17    16   ar
    23    17    18    1
    24    16    19    1
    25    11    12    1
