@<TRIPOS>MOLECULE
mol_data/opt/b3lyp/geoms/mol2/13ge13ge13ge13ge.out
 46 49 0 0 0
SMALL
GASTEIGER

@<TRIPOS>ATOM
      1 C           1.1811   -0.2461    0.2899 C.ar    1  LIG1        0.0167
      2 C           0.8264    0.9913   -0.1938 C.ar    1  LIG1        0.0381
      3 C          -0.6116    1.0311   -0.2715 C.ar    1  LIG1        0.0645
      4 C          -1.0827   -0.2039    0.1882 C.ar    1  LIG1        0.0807
      5 N           0.0225   -0.9677    0.4938 N.ar    1  LIG1       -0.3575
      6 H          -0.0291   -1.8282    1.0157 H       1  LIG1        0.1654
      7 H           2.1519   -0.6685    0.4970 H       1  LIG1        0.0818
      8 S           1.9454    2.2791   -0.6691 S.3     1  LIG1       -0.1400
      9 H           0.9754    3.1497   -1.0174 H       1  LIG1        0.1072
     10 C          -1.3766    2.1008   -0.7911 C.1     1  LIG1       -0.0664
     11 C          -1.9872    3.0408   -1.2517 C.1     1  LIG1       -0.1138
     12 H          -2.5561    3.8508   -1.6453 H       1  LIG1        0.1232
     13 C          -2.4193   -0.7421    0.3227 C.ar    1  LIG1        0.0791
     14 C          -3.5995   -0.2179    0.8245 C.ar    1  LIG1        0.0476
     15 C          -4.6051   -1.2479    0.7457 C.ar    1  LIG1        0.0652
     16 C          -4.0051   -2.3767    0.1826 C.ar    1  LIG1        0.0811
     17 N          -2.6743   -2.0701   -0.0277 N.ar    1  LIG1       -0.3500
     18 H          -2.1221   -2.5504   -0.7239 H       1  LIG1        0.1661
     19 S          -3.8241    1.3903    1.5213 S.3     1  LIG1       -0.1393
     20 H          -4.9029    1.0370    2.2529 H       1  LIG1        0.1072
     21 C          -5.9137   -1.1534    1.2737 C.1     1  LIG1       -0.0664
     22 C          -7.0184   -1.0367    1.7571 C.1     1  LIG1       -0.1138
     23 H          -8.0022   -0.9606    2.1586 H       1  LIG1        0.1232
     24 C          -4.5175   -3.6881   -0.1378 C.ar    1  LIG1        0.0791
     25 C          -5.7177   -4.1296   -0.6771 C.ar    1  LIG1        0.0476
     26 C          -5.6322   -5.5615   -0.8182 C.ar    1  LIG1        0.0652
     27 C          -4.3769   -5.9550   -0.3533 C.ar    1  LIG1        0.0811
     28 N          -3.6985   -4.8100    0.0152 N.ar    1  LIG1       -0.3500
     29 H          -2.9490   -4.8311    0.6921 H       1  LIG1        0.1661
     30 S          -7.0761   -3.1288   -1.2000 S.3     1  LIG1       -0.1393
     31 H          -7.5599   -4.0552   -2.0556 H       1  LIG1        0.1072
     32 C          -6.6043   -6.3850   -1.4332 C.1     1  LIG1       -0.0664
     33 C          -7.4527   -7.0541   -1.9809 C.1     1  LIG1       -0.1138
     34 H          -8.1890   -7.6699   -2.4430 H       1  LIG1        0.1232
     35 C          -3.7469   -7.2533   -0.2529 C.ar    1  LIG1        0.0787
     36 C          -4.1986   -8.4914    0.1878 C.ar    1  LIG1        0.0469
     37 C          -3.0890   -9.4079    0.1154 C.ar    1  LIG1        0.0557
     38 C          -2.0014   -8.6920   -0.3624 C.ar    1  LIG1        0.0188
     39 N          -2.3969   -7.4034   -0.5645 N.ar    1  LIG1       -0.3575
     40 H          -1.8669   -6.7127   -1.0725 H       1  LIG1        0.1654
     41 H          -0.9945   -9.0220   -0.5657 H       1  LIG1        0.0820
     42 S          -5.8197   -8.8694    0.7825 S.3     1  LIG1       -0.1394
     43 H          -5.4191   -9.9260    1.5214 H       1  LIG1        0.1072
     44 C          -3.0993  -10.7702    0.5044 C.1     1  LIG1       -0.0671
     45 C          -3.1378  -11.9294    0.8528 C.1     1  LIG1       -0.1138
     46 H          -3.1610  -12.9537    1.1447 H       1  LIG1        0.1232
@<TRIPOS>BOND
     1    34    33    1
     2    31    30    1
     3    33    32    3
     4    12    11    1
     5    32    26    1
     6    11    10    3
     7    30    25    1
     8    40    39    1
     9     9     8    1
    10    26    25   ar
    11    26    27   ar
    12    10     3    1
    13    18    17    1
    14    25    24   ar
    15     8     2    1
    16    41    38    1
    17    39    38   ar
    18    39    35   ar
    19    38    37   ar
    20    27    35    1
    21    27    28   ar
    22     3     2   ar
    23     3     4   ar
    24    35    36   ar
    25     2     1   ar
    26    24    28   ar
    27    24    16    1
    28    17    16   ar
    29    17    13   ar
    30    28    29    1
    31    37    36   ar
    32    37    44    1
    33    16    15   ar
    34    36    42    1
    35     4    13    1
    36     4     5   ar
    37     1     5   ar
    38     1     7    1
    39    13    14   ar
    40     5     6    1
    41    44    45    3
    42    15    14   ar
    43    15    21    1
    44    42    43    1
    45    14    19    1
    46    45    46    1
    47    21    22    3
    48    19    20    1
    49    22    23    1
