@<TRIPOS>MOLECULE
mol_data/opt/b3lyp/geoms/mol2/13ge13ge-13ge13ge-.out
 46 49 0 0 0
SMALL
GASTEIGER

@<TRIPOS>ATOM
      1 C           1.1796   -0.2424   -0.2998 C.ar    1  LIG1        0.0167
      2 C           0.8261    0.9909    0.1951 C.ar    1  LIG1        0.0381
      3 C          -0.6116    1.0296    0.2778 C.ar    1  LIG1        0.0645
      4 C          -1.0839   -0.2017   -0.1903 C.ar    1  LIG1        0.0807
      5 N           0.0206   -0.9627   -0.5058 N.ar    1  LIG1       -0.3575
      6 H          -0.0325   -1.8189   -1.0346 H       1  LIG1        0.1654
      7 H           2.1498   -0.6628   -0.5136 H       1  LIG1        0.0818
      8 S           1.9463    2.2753    0.6770 S.3     1  LIG1       -0.1400
      9 H           0.9772    3.1420    1.0374 H       1  LIG1        0.1072
     10 C          -1.3752    2.0948    0.8088 C.1     1  LIG1       -0.0664
     11 C          -1.9846    3.0307    1.2791 C.1     1  LIG1       -0.1138
     12 H          -2.5525    3.8374    1.6811 H       1  LIG1        0.1232
     13 C          -2.4208   -0.7392   -0.3247 C.ar    1  LIG1        0.0791
     14 C          -3.6028   -0.2113   -0.8181 C.ar    1  LIG1        0.0476
     15 C          -4.6079   -1.2422   -0.7445 C.ar    1  LIG1        0.0652
     16 C          -4.0057   -2.3754   -0.1928 C.ar    1  LIG1        0.0811
     17 N          -2.6743   -2.0702    0.0155 N.ar    1  LIG1       -0.3500
     18 H          -2.1195   -2.5561    0.7058 H       1  LIG1        0.1661
     19 S          -3.8302    1.4026   -1.5010 S.3     1  LIG1       -0.1393
     20 H          -4.9110    1.0549   -2.2322 H       1  LIG1        0.1072
     21 C          -5.9183   -1.1436   -1.2673 C.1     1  LIG1       -0.0664
     22 C          -7.0247   -1.0234   -1.7460 C.1     1  LIG1       -0.1138
     23 H          -8.0098   -0.9444   -2.1436 H       1  LIG1        0.1232
     24 C          -4.5168   -3.6895    0.1185 C.ar    1  LIG1        0.0791
     25 C          -5.7151   -4.1356    0.6580 C.ar    1  LIG1        0.0476
     26 C          -5.6290   -5.5687    0.7869 C.ar    1  LIG1        0.0652
     27 C          -4.3751   -5.9581    0.3148 C.ar    1  LIG1        0.0811
     28 N          -3.6981   -4.8100   -0.0464 N.ar    1  LIG1       -0.3500
     29 H          -2.9509   -4.8254   -0.7261 H       1  LIG1        0.1661
     30 S          -7.0719   -3.1395    1.1937 S.3     1  LIG1       -0.1393
     31 H          -7.5527   -4.0731    2.0431 H       1  LIG1        0.1072
     32 C          -6.5989   -6.3974    1.3984 C.1     1  LIG1       -0.0664
     33 C          -7.4454   -7.0711    1.9434 C.1     1  LIG1       -0.1138
     34 H          -8.1802   -7.6907    2.4029 H       1  LIG1        0.1232
     35 C          -3.7453   -7.2554    0.2015 C.ar    1  LIG1        0.0787
     36 C          -4.1984   -8.4899   -0.2478 C.ar    1  LIG1        0.0469
     37 C          -3.0886   -9.4068   -0.1868 C.ar    1  LIG1        0.0557
     38 C          -1.9994   -8.6947    0.2929 C.ar    1  LIG1        0.0188
     39 N          -2.3942   -7.4078    0.5069 N.ar    1  LIG1       -0.3575
     40 H          -1.8627   -6.7215    1.0193 H       1  LIG1        0.1654
     41 H          -0.9917   -9.0263    0.4900 H       1  LIG1        0.0820
     42 S          -5.8216   -8.8632   -0.8399 S.3     1  LIG1       -0.1394
     43 H          -5.4234   -9.9134   -1.5891 H       1  LIG1        0.1072
     44 C          -3.1000  -10.7659   -0.5870 C.1     1  LIG1       -0.0671
     45 C          -3.1395  -11.9222   -0.9449 C.1     1  LIG1       -0.1138
     46 H          -3.1637  -12.9440   -1.2452 H       1  LIG1        0.1232
@<TRIPOS>BOND
     1    20    19    1
     2    23    22    1
     3    22    21    3
     4    43    42    1
     5    19    14    1
     6    21    15    1
     7    46    45    1
     8     6     5    1
     9    45    44    3
    10    42    36    1
    11    14    15   ar
    12    14    13   ar
    13    15    16   ar
    14    29    28    1
    15    44    37    1
    16     7     1    1
    17     5     1   ar
    18     5     4   ar
    19    13     4    1
    20    13    17   ar
    21     1     2   ar
    22    36    37   ar
    23    36    35   ar
    24    16    17   ar
    25    16    24    1
    26     4     3   ar
    27    37    38   ar
    28    28    24   ar
    29    28    27   ar
    30    17    18    1
    31    24    25   ar
    32     2     3   ar
    33     2     8    1
    34    35    27    1
    35    35    39   ar
    36     3    10    1
    37    38    41    1
    38    38    39   ar
    39    27    26   ar
    40    39    40    1
    41    25    26   ar
    42    25    30    1
    43     8     9    1
    44    26    32    1
    45    10    11    3
    46    30    31    1
    47    11    12    1
    48    32    33    3
    49    33    34    1
