@<TRIPOS>MOLECULE
mol_data/opt/b3lyp/geoms/mol2/13ge13ge13ge.out
 35 37 0 0 0
SMALL
GASTEIGER

@<TRIPOS>ATOM
      1 C           1.1501   -0.2127    0.5407 C.ar    1  LIG1        0.0167
      2 C           0.8447    0.9302   -0.1604 C.ar    1  LIG1        0.0381
      3 C          -0.5806    0.9445   -0.3677 C.ar    1  LIG1        0.0645
      4 C          -1.0961   -0.2071    0.2381 C.ar    1  LIG1        0.0807
      5 N          -0.0256   -0.9018    0.7565 N.ar    1  LIG1       -0.3575
      6 H          -0.1248   -1.6790    1.3901 H       1  LIG1        0.1654
      7 H           2.0973   -0.5900    0.8932 H       1  LIG1        0.0818
      8 S           2.0066    2.1402   -0.7293 S.3     1  LIG1       -0.1400
      9 H           1.0797    2.9125   -1.3330 H       1  LIG1        0.1072
     10 C          -1.2914    1.9110   -1.1161 C.1     1  LIG1       -0.0664
     11 C          -1.8538    2.7597   -1.7734 C.1     1  LIG1       -0.1138
     12 H          -2.3814    3.4913   -2.3401 H       1  LIG1        0.1232
     13 C          -2.4416   -0.7311    0.3363 C.ar    1  LIG1        0.0791
     14 C          -3.6613   -0.1453    0.6342 C.ar    1  LIG1        0.0476
     15 C          -4.6594   -1.1859    0.6305 C.ar    1  LIG1        0.0652
     16 C          -4.0145   -2.3834    0.3197 C.ar    1  LIG1        0.0811
     17 N          -2.6688   -2.1014    0.1840 N.ar    1  LIG1       -0.3500
     18 H          -2.0581   -2.6805   -0.3752 H       1  LIG1        0.1661
     19 S          -3.9448    1.5528    1.0337 S.3     1  LIG1       -0.1393
     20 H          -5.0898    1.3116    1.7079 H       1  LIG1        0.1072
     21 C          -6.0150   -1.0233    1.0010 C.1     1  LIG1       -0.0664
     22 C          -7.1640   -0.8459    1.3416 C.1     1  LIG1       -0.1138
     23 H          -8.1842   -0.7168    1.6195 H       1  LIG1        0.1232
     24 C          -4.5045   -3.7367    0.1735 C.ar    1  LIG1        0.0787
     25 C          -5.6226   -4.2762   -0.4512 C.ar    1  LIG1        0.0469
     26 C          -5.5418   -5.7091   -0.3218 C.ar    1  LIG1        0.0557
     27 C          -4.3741   -5.9890    0.3724 C.ar    1  LIG1        0.0188
     28 N          -3.7535   -4.8083    0.6518 N.ar    1  LIG1       -0.3575
     29 H          -2.9788   -4.7013    1.2875 H       1  LIG1        0.1654
     30 H          -3.9627   -6.9395    0.6750 H       1  LIG1        0.0820
     31 S          -6.8898   -3.3815   -1.2991 S.3     1  LIG1       -0.1394
     32 H          -7.2406   -4.4171   -2.0909 H       1  LIG1        0.1072
     33 C          -6.4591   -6.6525   -0.8469 C.1     1  LIG1       -0.0671
     34 C          -7.2564   -7.4349   -1.3149 C.1     1  LIG1       -0.1138
     35 H          -7.9563   -8.1331   -1.7116 H       1  LIG1        0.1232
@<TRIPOS>BOND
     1    12    11    1
     2    32    31    1
     3    11    10    3
     4    35    34    1
     5     9     8    1
     6    34    33    3
     7    31    25    1
     8    10     3    1
     9    33    26    1
    10     8     2    1
    11    25    26   ar
    12    25    24   ar
    13    18    17    1
    14     3     2   ar
    15     3     4   ar
    16    26    27   ar
    17     2     1   ar
    18    24    16    1
    19    24    28   ar
    20    17    16   ar
    21    17    13   ar
    22     4    13    1
    23     4     5   ar
    24    16    15   ar
    25    13    14   ar
    26    27    28   ar
    27    27    30    1
    28     1     5   ar
    29     1     7    1
    30    15    14   ar
    31    15    21    1
    32    14    19    1
    33    28    29    1
    34     5     6    1
    35    21    22    3
    36    19    20    1
    37    22    23    1
