@<TRIPOS>MOLECULE
mol_data/opt/b3lyp/geoms/mol2/13ge.out
 13 13 0 0 0
SMALL
GASTEIGER

@<TRIPOS>ATOM
      1 C           1.1126   -0.4181   -0.0002 C.ar    1  LIG1        0.0161
      2 C           0.7051    0.8965    0.0001 C.ar    1  LIG1        0.0375
      3 C          -0.7368    0.9003    0.0005 C.ar    1  LIG1        0.0551
      4 C          -1.1390   -0.4292    0.0003 C.ar    1  LIG1        0.0183
      5 N          -0.0199   -1.2074   -0.0000 N.ar    1  LIG1       -0.3650
      6 H          -0.0179   -2.2142   -0.0003 H       1  LIG1        0.1648
      7 H          -2.1319   -0.8505    0.0004 H       1  LIG1        0.0819
      8 H           2.1011   -0.8500   -0.0005 H       1  LIG1        0.0818
      9 S           1.7697    2.3139    0.0000 S.3     1  LIG1       -0.1400
     10 H           0.7647    3.2136    0.0004 H       1  LIG1        0.1072
     11 C          -1.5706    2.0451    0.0009 C.1     1  LIG1       -0.0671
     12 C          -2.2468    3.0507    0.0013 C.1     1  LIG1       -0.1138
     13 H          -2.8593    3.9221    0.0016 H       1  LIG1        0.1232
@<TRIPOS>BOND
     1     8     1    1
     2     6     5    1
     3     1     5   ar
     4     1     2   ar
     5     5     4   ar
     6     9     2    1
     7     9    10    1
     8     2     3   ar
     9     4     7    1
    10     4     3   ar
    11     3    11    1
    12    11    12    3
    13    12    13    1
