@<TRIPOS>MOLECULE
mol_data/opt/b3lyp/geoms/mol2/13ge13ge-13ge-.out
 35 37 0 0 0
SMALL
GASTEIGER

@<TRIPOS>ATOM
      1 C           1.1500   -0.2135   -0.5534 C.ar    1  LIG1        0.0167
      2 C           0.8496    0.9224    0.1612 C.ar    1  LIG1        0.0381
      3 C          -0.5748    0.9365    0.3753 C.ar    1  LIG1        0.0645
      4 C          -1.0947   -0.2080   -0.2402 C.ar    1  LIG1        0.0807
      5 N          -0.0277   -0.8986   -0.7709 N.ar    1  LIG1       -0.3575
      6 H          -0.1310   -1.6685   -1.4127 H       1  LIG1        0.1654
      7 H           2.0949   -0.5884   -0.9145 H       1  LIG1        0.0818
      8 S           2.0158    2.1245    0.7376 S.3     1  LIG1       -0.1400
      9 H           1.0928    2.8916    1.3538 H       1  LIG1        0.1072
     10 C          -1.2806    1.8959    1.1374 C.1     1  LIG1       -0.0664
     11 C          -1.8385    2.7386    1.8063 C.1     1  LIG1       -0.1138
     12 H          -2.3621    3.4649    2.3832 H       1  LIG1        0.1232
     13 C          -2.4415   -0.7290   -0.3377 C.ar    1  LIG1        0.0791
     14 C          -3.6616   -0.1382   -0.6237 C.ar    1  LIG1        0.0476
     15 C          -4.6613   -1.1774   -0.6265 C.ar    1  LIG1        0.0652
     16 C          -4.0168   -2.3791   -0.3313 C.ar    1  LIG1        0.0811
     17 N          -2.6700   -2.1004   -0.1990 N.ar    1  LIG1       -0.3500
     18 H          -2.0577   -2.6862    0.3516 H       1  LIG1        0.1661
     19 S          -3.9446    1.5642   -1.0041 S.3     1  LIG1       -0.1393
     20 H          -5.0935    1.3317   -1.6747 H       1  LIG1        0.1072
     21 C          -6.0183   -1.0089   -0.9889 C.1     1  LIG1       -0.0664
     22 C          -7.1686   -0.8264   -1.3225 C.1     1  LIG1       -0.1138
     23 H          -8.1899   -0.6927   -1.5941 H       1  LIG1        0.1232
     24 C          -4.5082   -3.7330   -0.1969 C.ar    1  LIG1        0.0787
     25 C          -5.6240   -4.2774    0.4276 C.ar    1  LIG1        0.0469
     26 C          -5.5462   -5.7089    0.2828 C.ar    1  LIG1        0.0557
     27 C          -4.3823   -5.9834   -0.4201 C.ar    1  LIG1        0.0188
     28 N          -3.7614   -4.8008   -0.6902 N.ar    1  LIG1       -0.3575
     29 H          -2.9890   -4.6884   -1.3278 H       1  LIG1        0.1654
     30 H          -3.9742   -6.9313   -0.7349 H       1  LIG1        0.0820
     31 S          -6.8856   -3.3896    1.2912 S.3     1  LIG1       -0.1394
     32 H          -7.2348   -4.4333    2.0731 H       1  LIG1        0.1072
     33 C          -6.4625   -6.6564    0.8025 C.1     1  LIG1       -0.0671
     34 C          -7.2588   -7.4423    1.2662 C.1     1  LIG1       -0.1138
     35 H          -7.9579   -8.1435    1.6591 H       1  LIG1        0.1232
@<TRIPOS>BOND
     1    20    19    1
     2    23    22    1
     3     6     5    1
     4    29    28    1
     5    22    21    3
     6    19    14    1
     7    21    15    1
     8     7     1    1
     9     5     1   ar
    10     5     4   ar
    11    30    27    1
    12    28    27   ar
    13    28    24   ar
    14    15    14   ar
    15    15    16   ar
    16    14    13   ar
    17     1     2   ar
    18    27    26   ar
    19    13     4    1
    20    13    17   ar
    21    16    17   ar
    22    16    24    1
    23     4     3   ar
    24    17    18    1
    25    24    25   ar
    26     2     3   ar
    27     2     8    1
    28    26    25   ar
    29    26    33    1
    30     3    10    1
    31    25    31    1
    32     8     9    1
    33    33    34    3
    34    10    11    3
    35    34    35    1
    36    31    32    1
    37    11    12    1
