@<TRIPOS>MOLECULE
mol_data/opt/b3lyp/geoms/mol2/13ge13ge-13ge13ge.out
 46 49 0 0 0
SMALL
GASTEIGER

@<TRIPOS>ATOM
      1 C           0.3985    0.0763    2.4428 C.ar    1  LIG1        0.0167
      2 C           0.6893    0.8597    1.3504 C.ar    1  LIG1        0.0381
      3 C          -0.3942    0.7142    0.4128 C.ar    1  LIG1        0.0645
      4 C          -1.3212   -0.1601    0.9877 C.ar    1  LIG1        0.0807
      5 N          -0.8049   -0.5538    2.2029 N.ar    1  LIG1       -0.3575
      6 H          -1.3453   -1.0316    2.9076 H       1  LIG1        0.1654
      7 H           0.9456   -0.0845    3.3586 H       1  LIG1        0.0818
      8 S           2.1581    1.8249    1.1297 S.3     1  LIG1       -0.1400
      9 H           1.7452    2.4043   -0.0163 H       1  LIG1        0.1072
     10 C          -0.4607    1.3061   -0.8705 C.1     1  LIG1       -0.0664
     11 C          -0.4724    1.8315   -1.9623 C.1     1  LIG1       -0.1138
     12 H          -0.5158    2.2874   -2.9240 H       1  LIG1        0.1232
     13 C          -2.5837   -0.6842    0.5022 C.ar    1  LIG1        0.0791
     14 C          -3.7108   -0.0751   -0.0332 C.ar    1  LIG1        0.0476
     15 C          -4.6913   -1.0986   -0.2694 C.ar    1  LIG1        0.0652
     16 C          -4.1366   -2.3140    0.1449 C.ar    1  LIG1        0.0811
     17 N          -2.8658   -2.0411    0.5911 N.ar    1  LIG1       -0.3500
     18 H          -2.2289   -2.7282    0.9639 H       1  LIG1        0.1661
     19 S          -3.9036    1.6522   -0.3613 S.3     1  LIG1       -0.1393
     20 H          -5.2504    1.6310   -0.2757 H       1  LIG1        0.1072
     21 C          -5.9741   -0.9056   -0.8352 C.1     1  LIG1       -0.0664
     22 C          -7.0658   -0.7048   -1.3196 C.1     1  LIG1       -0.1138
     23 H          -8.0312   -0.5529   -1.7435 H       1  LIG1        0.1232
     24 C          -4.6521   -3.6701    0.1147 C.ar    1  LIG1        0.0791
     25 C          -5.8232   -4.2377    0.5974 C.ar    1  LIG1        0.0476
     26 C          -5.7608   -5.6513    0.3477 C.ar    1  LIG1        0.0652
     27 C          -4.5357   -5.9128   -0.2751 C.ar    1  LIG1        0.0811
     28 N          -3.8918   -4.7071   -0.4120 N.ar    1  LIG1       -0.3500
     29 H          -2.9896   -4.5887   -0.8462 H       1  LIG1        0.1661
     30 S          -7.1492   -3.3738    1.3868 S.3     1  LIG1       -0.1393
     31 H          -7.6125   -4.4597    2.0409 H       1  LIG1        0.1072
     32 C          -6.7680   -6.5942    0.6620 C.1     1  LIG1       -0.0664
     33 C          -7.6497   -7.3737    0.9483 C.1     1  LIG1       -0.1138
     34 H          -8.4120   -8.0787    1.1860 H       1  LIG1        0.1232
     35 C          -3.9514   -7.1413   -0.7791 C.ar    1  LIG1        0.0787
     36 C          -3.7501   -8.3877   -0.2042 C.ar    1  LIG1        0.0469
     37 C          -3.0586   -9.2050   -1.1687 C.ar    1  LIG1        0.0557
     38 C          -2.8622   -8.4211   -2.2961 C.ar    1  LIG1        0.0188
     39 N          -3.3850   -7.1862   -2.0515 N.ar    1  LIG1       -0.3575
     40 H          -3.5422   -6.4818   -2.7558 H       1  LIG1        0.1654
     41 H          -2.3926   -8.6695   -3.2352 H       1  LIG1        0.0820
     42 S          -4.2183   -8.8736    1.4309 S.3     1  LIG1       -0.1394
     43 H          -3.2872   -9.8461    1.5279 H       1  LIG1        0.1072
     44 C          -2.6228  -10.5397   -0.9789 C.1     1  LIG1       -0.0671
     45 C          -2.2553  -11.6768   -0.7824 C.1     1  LIG1       -0.1138
     46 H          -1.9376  -12.6818   -0.6283 H       1  LIG1        0.1232
@<TRIPOS>BOND
     1    41    38    1
     2    12    11    1
     3    40    39    1
     4    38    39   ar
     5    38    37   ar
     6    39    35   ar
     7    11    10    3
     8    23    22    1
     9    22    21    3
    10    37    44    1
    11    37    36   ar
    12    44    45    3
    13    10     3    1
    14    29    28    1
    15    21    15    1
    16    45    46    1
    17    35    27    1
    18    35    36   ar
    19    28    27   ar
    20    28    24   ar
    21    19    20    1
    22    19    14    1
    23    27    26   ar
    24    15    14   ar
    25    15    16   ar
    26    36    42    1
    27    14    13   ar
    28     9     8    1
    29    24    16    1
    30    24    25   ar
    31    16    17   ar
    32    26    25   ar
    33    26    32    1
    34     3     4   ar
    35     3     2   ar
    36    13    17   ar
    37    13     4    1
    38    17    18    1
    39    25    30    1
    40    32    33    3
    41    33    34    1
    42     4     5   ar
    43     8     2    1
    44     2     1   ar
    45    30    31    1
    46    42    43    1
    47     5     1   ar
    48     5     6    1
    49     1     7    1
