@<TRIPOS>MOLECULE
mol_data/opt/b3lyp/geoms/mol2/13ge13ge-13ge-13ge-.out
 46 49 0 0 0
SMALL
GASTEIGER

@<TRIPOS>ATOM
      1 C           0.4281    0.3963    2.0992 C.ar    1  LIG1        0.0167
      2 C           0.6383    1.0898    0.9304 C.ar    1  LIG1        0.0381
      3 C          -0.4817    0.8270    0.0637 C.ar    1  LIG1        0.0645
      4 C          -1.3479   -0.0237    0.7567 C.ar    1  LIG1        0.0807
      5 N          -0.7614   -0.2920    1.9746 N.ar    1  LIG1       -0.3575
      6 H          -1.2549   -0.7157    2.7451 H       1  LIG1        0.1654
      7 H           1.0233    0.3342    2.9969 H       1  LIG1        0.0818
      8 S           2.0538    2.0865    0.5559 S.3     1  LIG1       -0.1400
      9 H           1.6038    2.4741   -0.6554 H       1  LIG1        0.1072
     10 C          -0.6273    1.2982   -1.2623 C.1     1  LIG1       -0.0664
     11 C          -0.7063    1.7216   -2.3949 C.1     1  LIG1       -0.1138
     12 H          -0.8105    2.0861   -3.3903 H       1  LIG1        0.1232
     13 C          -2.6103   -0.6309    0.3814 C.ar    1  LIG1        0.0791
     14 C          -3.7854   -0.1098   -0.1428 C.ar    1  LIG1        0.0476
     15 C          -4.7349   -1.1837   -0.2450 C.ar    1  LIG1        0.0652
     16 C          -4.1122   -2.3406    0.2390 C.ar    1  LIG1        0.0811
     17 N          -2.8343   -1.9850    0.5969 N.ar    1  LIG1       -0.3500
     18 H          -2.1478   -2.6218    0.9694 H       1  LIG1        0.1661
     19 S          -4.0636    1.5761   -0.5983 S.3     1  LIG1       -0.1393
     20 H          -5.4055    1.5024   -0.4754 H       1  LIG1        0.1072
     21 C          -6.0454   -1.0825   -0.7680 C.1     1  LIG1       -0.0664
     22 C          -7.1616   -0.9583   -1.2216 C.1     1  LIG1       -0.1138
     23 H          -8.1459   -0.8786   -1.6210 H       1  LIG1        0.1232
     24 C          -4.5649   -3.7121    0.3419 C.ar    1  LIG1        0.0791
     25 C          -5.7292   -4.2823    0.8285 C.ar    1  LIG1        0.0476
     26 C          -5.5935   -5.7141    0.7220 C.ar    1  LIG1        0.0652
     27 C          -4.3440   -5.9751    0.1591 C.ar    1  LIG1        0.0811
     28 N          -3.7144   -4.7589   -0.0271 N.ar    1  LIG1       -0.3500
     29 H          -3.0024   -4.6371   -0.7343 H       1  LIG1        0.1661
     30 S          -7.1032   -3.4273    1.5381 S.3     1  LIG1       -0.1393
     31 H          -7.5352   -4.4931    2.2461 H       1  LIG1        0.1072
     32 C          -6.5162   -6.6637    1.2201 C.1     1  LIG1       -0.0664
     33 C          -7.3229   -7.4440    1.6764 C.1     1  LIG1       -0.1138
     34 H          -8.0226   -8.1544    2.0511 H       1  LIG1        0.1232
     35 C          -3.6790   -7.2120   -0.1875 C.ar    1  LIG1        0.0787
     36 C          -4.1127   -8.3776   -0.8082 C.ar    1  LIG1        0.0469
     37 C          -2.9709   -9.2454   -0.9458 C.ar    1  LIG1        0.0557
     38 C          -1.8827   -8.5732   -0.4092 C.ar    1  LIG1        0.0188
     39 N          -2.3101   -7.3556    0.0283 N.ar    1  LIG1       -0.3575
     40 H          -1.7709   -6.7295    0.6054 H       1  LIG1        0.1654
     41 H          -0.8549   -8.8881   -0.3167 H       1  LIG1        0.0820
     42 S          -5.7501   -8.7213   -1.3794 S.3     1  LIG1       -0.1394
     43 H          -5.3517   -9.6054   -2.3188 H       1  LIG1        0.1072
     44 C          -2.9568  -10.5236   -1.5568 C.1     1  LIG1       -0.0671
     45 C          -2.9748  -11.6097   -2.0923 C.1     1  LIG1       -0.1138
     46 H          -2.9792  -12.5711   -2.5512 H       1  LIG1        0.1232
@<TRIPOS>BOND
     1    12    11    1
     2    46    45    1
     3    11    10    3
     4    43    42    1
     5    45    44    3
     6    23    22    1
     7    44    37    1
     8    42    36    1
     9    10     3    1
    10    22    21    3
    11    37    36   ar
    12    37    38   ar
    13    36    35   ar
    14    21    15    1
    15    29    28    1
    16     9     8    1
    17    19    20    1
    18    19    14    1
    19    38    41    1
    20    38    39   ar
    21    15    14   ar
    22    15    16   ar
    23    35    39   ar
    24    35    27    1
    25    14    13   ar
    26    28    27   ar
    27    28    24   ar
    28    39    40    1
    29     3     4   ar
    30     3     2   ar
    31    27    26   ar
    32    16    24    1
    33    16    17   ar
    34    24    25   ar
    35    13    17   ar
    36    13     4    1
    37     8     2    1
    38    17    18    1
    39    26    25   ar
    40    26    32    1
    41     4     5   ar
    42    25    30    1
    43     2     1   ar
    44    32    33    3
    45    30    31    1
    46    33    34    1
    47     5     1   ar
    48     5     6    1
    49     1     7    1
