@<TRIPOS>MOLECULE
mol_data/opt/b3lyp/geoms/mol2/13ge13ge13ge-13ge-.out
 46 49 0 0 0
SMALL
GASTEIGER

@<TRIPOS>ATOM
      1 C           0.4371    0.0235    2.4205 C.ar    1  LIG1        0.0167
      2 C           0.7139    0.8275    1.3394 C.ar    1  LIG1        0.0381
      3 C          -0.3829    0.7018    0.4145 C.ar    1  LIG1        0.0645
      4 C          -1.3033   -0.1823    0.9854 C.ar    1  LIG1        0.0807
      5 N          -0.7706   -0.6002    2.1854 N.ar    1  LIG1       -0.3575
      6 H          -1.3016   -1.0911    2.8881 H       1  LIG1        0.1654
      7 H           0.9968   -0.1557    3.3252 H       1  LIG1        0.0818
      8 S           2.1811    1.7947    1.1167 S.3     1  LIG1       -0.1400
      9 H           1.7526    2.3977   -0.0112 H       1  LIG1        0.1072
     10 C          -0.4666    1.3186   -0.8559 C.1     1  LIG1       -0.0664
     11 C          -0.4930    1.8653   -1.9369 C.1     1  LIG1       -0.1138
     12 H          -0.5496    2.3400   -2.8888 H       1  LIG1        0.1232
     13 C          -2.5733   -0.6952    0.5077 C.ar    1  LIG1        0.0791
     14 C          -3.7070   -0.0742    0.0005 C.ar    1  LIG1        0.0476
     15 C          -4.6921   -1.0917   -0.2424 C.ar    1  LIG1        0.0652
     16 C          -4.1333   -2.3158    0.1396 C.ar    1  LIG1        0.0811
     17 N          -2.8560   -2.0533    0.5731 N.ar    1  LIG1       -0.3500
     18 H          -2.2150   -2.7484    0.9234 H       1  LIG1        0.1661
     19 S          -3.9020    1.6595   -0.2900 S.3     1  LIG1       -0.1393
     20 H          -5.2475    1.6380   -0.1862 H       1  LIG1        0.1072
     21 C          -5.9824   -0.8858   -0.7860 C.1     1  LIG1       -0.0664
     22 C          -7.0805   -0.6739   -1.2509 C.1     1  LIG1       -0.1138
     23 H          -8.0515   -0.5122   -1.6581 H       1  LIG1        0.1232
     24 C          -4.6510   -3.6705    0.0895 C.ar    1  LIG1        0.0791
     25 C          -5.8160   -4.2464    0.5768 C.ar    1  LIG1        0.0476
     26 C          -5.7588   -5.6549    0.2981 C.ar    1  LIG1        0.0652
     27 C          -4.5427   -5.9051   -0.3466 C.ar    1  LIG1        0.0811
     28 N          -3.8992   -4.6976   -0.4682 N.ar    1  LIG1       -0.3500
     29 H          -3.0029   -4.5714   -0.9124 H       1  LIG1        0.1661
     30 S          -7.1298   -3.3974    1.4018 S.3     1  LIG1       -0.1393
     31 H          -7.5862   -4.4960    2.0393 H       1  LIG1        0.1072
     32 C          -6.7628   -6.6029    0.6073 C.1     1  LIG1       -0.0664
     33 C          -7.6413   -7.3872    0.8901 C.1     1  LIG1       -0.1138
     34 H          -8.4013   -8.0960    1.1240 H       1  LIG1        0.1232
     35 C          -3.9671   -7.1239   -0.8831 C.ar    1  LIG1        0.0787
     36 C          -3.7595   -8.3817   -0.3357 C.ar    1  LIG1        0.0469
     37 C          -3.0823   -9.1803   -1.3257 C.ar    1  LIG1        0.0557
     38 C          -2.9004   -8.3744   -2.4399 C.ar    1  LIG1        0.0188
     39 N          -3.4183   -7.1441   -2.1638 N.ar    1  LIG1       -0.3575
     40 H          -3.5841   -6.4256   -2.8517 H       1  LIG1        0.1654
     41 H          -2.4441   -8.6046   -3.3902 H       1  LIG1        0.0820
     42 S          -4.2062   -8.8994    1.2955 S.3     1  LIG1       -0.1394
     43 H          -3.2730   -9.8725    1.3621 H       1  LIG1        0.1072
     44 C          -2.6456  -10.5189   -1.1685 C.1     1  LIG1       -0.0671
     45 C          -2.2769  -11.6602   -0.9998 C.1     1  LIG1       -0.1138
     46 H          -1.9584  -12.6684   -0.8702 H       1  LIG1        0.1232
@<TRIPOS>BOND
     1    41    38    1
     2    12    11    1
     3    40    39    1
     4    38    39   ar
     5    38    37   ar
     6    39    35   ar
     7    11    10    3
     8    23    22    1
     9    37    44    1
    10    37    36   ar
    11    22    21    3
    12    44    45    3
    13    45    46    1
    14    29    28    1
    15    35    27    1
    16    35    36   ar
    17    10     3    1
    18    21    15    1
    19    28    27   ar
    20    28    24   ar
    21    27    26   ar
    22    36    42    1
    23    19    20    1
    24    19    14    1
    25    15    14   ar
    26    15    16   ar
    27     9     8    1
    28    14    13   ar
    29    24    16    1
    30    24    25   ar
    31    16    17   ar
    32    26    25   ar
    33    26    32    1
    34     3     4   ar
    35     3     2   ar
    36    13    17   ar
    37    13     4    1
    38    17    18    1
    39    25    30    1
    40    32    33    3
    41    33    34    1
    42     4     5   ar
    43     8     2    1
    44    42    43    1
    45     2     1   ar
    46    30    31    1
    47     5     1   ar
    48     5     6    1
    49     1     7    1
