@<TRIPOS>MOLECULE
mol_data/opt/b3lyp/geoms/mol2/13gf13gf13gf.out
 32 34 0 0 0
SMALL
GASTEIGER

@<TRIPOS>ATOM
      1 C           1.1872   -0.3193    0.1034 C.ar    1  LIG1        0.0191
      2 C           0.8181    0.9390   -0.3263 C.ar    1  LIG1        0.0643
      3 C          -0.6101    0.9824   -0.3363 C.ar    1  LIG1        0.1566
      4 C          -1.0792   -0.2594    0.0904 C.ar    1  LIG1        0.1072
      5 N           0.0493   -1.0544    0.3123 N.ar    1  LIG1       -0.3555
      6 H           0.0188   -1.8893    0.8766 H       1  LIG1        0.1655
      7 H           2.1704   -0.7324    0.2685 H       1  LIG1        0.0819
      8 S           1.9268    2.1949   -0.9026 S.3     1  LIG1       -0.1377
      9 H           1.4162    3.2150   -0.1813 H       1  LIG1        0.1073
     10 O          -1.3019    2.0681   -0.7476 O.3     1  LIG1       -0.5035
     11 H          -2.2040    2.0372   -0.3730 H       1  LIG1        0.2923
     12 C          -2.4047   -0.8192    0.1970 C.ar    1  LIG1        0.0840
     13 C          -3.6483   -0.2592    0.4525 C.ar    1  LIG1        0.0739
     14 C          -4.6271   -1.2984    0.3754 C.ar    1  LIG1        0.1573
     15 C          -3.9732   -2.4865    0.0858 C.ar    1  LIG1        0.1076
     16 N          -2.5976   -2.1875    0.0308 N.ar    1  LIG1       -0.3479
     17 H          -2.0027   -2.6830   -0.6209 H       1  LIG1        0.1661
     18 S          -3.9706    1.4069    0.9668 S.3     1  LIG1       -0.1370
     19 H          -5.0402    1.6168    0.1708 H       1  LIG1        0.1073
     20 O          -5.9345   -1.0616    0.6144 O.3     1  LIG1       -0.5035
     21 H          -6.4669   -1.7691    0.1961 H       1  LIG1        0.2923
     22 C          -4.4203   -3.8557   -0.0218 C.ar    1  LIG1        0.0835
     23 C          -5.6351   -4.4395   -0.3874 C.ar    1  LIG1        0.0732
     24 C          -5.4705   -5.8558   -0.3114 C.ar    1  LIG1        0.1478
     25 C          -4.1836   -6.1173    0.0957 C.ar    1  LIG1        0.0453
     26 N          -3.5446   -4.8908    0.2301 N.ar    1  LIG1       -0.3555
     27 H          -2.6873   -4.7552    0.7419 H       1  LIG1        0.1655
     28 H          -3.6687   -7.0484    0.2756 H       1  LIG1        0.0845
     29 S          -7.0674   -3.6029   -1.0111 S.3     1  LIG1       -0.1370
     30 H          -7.9667   -4.0641   -0.1130 H       1  LIG1        0.1073
     31 O          -6.4816   -6.7162   -0.6179 O.3     1  LIG1       -0.5042
     32 H          -6.1597   -7.6230   -0.5403 H       1  LIG1        0.2923
@<TRIPOS>BOND
     1    29    23    1
     2    29    30    1
     3     8     2    1
     4     8     9    1
     5    10    11    1
     6    10     3    1
     7    17    16    1
     8    31    32    1
     9    31    24    1
    10    23    24   ar
    11    23    22   ar
    12     3     2   ar
    13     3     4   ar
    14     2     1   ar
    15    24    25   ar
    16    22    15    1
    17    22    26   ar
    18    16    15   ar
    19    16    12   ar
    20    15    14   ar
    21     4    12    1
    22     4     5   ar
    23    25    26   ar
    24    25    28    1
    25     1     7    1
    26     1     5   ar
    27    19    18    1
    28    21    20    1
    29    12    13   ar
    30    26    27    1
    31     5     6    1
    32    14    13   ar
    33    14    20    1
    34    13    18    1
