@<TRIPOS>MOLECULE
mol_data/opt/b3lyp/geoms/mol2/13gf13gf13gf-13gf.out
 42 45 0 0 0
SMALL
GASTEIGER

@<TRIPOS>ATOM
      1 C           0.8951   -0.1507    1.6798 C.ar    1  LIG1        0.0191
      2 C           0.8655    0.8670    0.7541 C.ar    1  LIG1        0.0643
      3 C          -0.4200    0.8358    0.1301 C.ar    1  LIG1        0.1566
      4 C          -1.1452   -0.2104    0.6878 C.ar    1  LIG1        0.1072
      5 N          -0.3000   -0.8384    1.6094 N.ar    1  LIG1       -0.3555
      6 H          -0.6672   -1.3352    2.4085 H       1  LIG1        0.1655
      7 H           1.6669   -0.4370    2.3776 H       1  LIG1        0.0819
      8 S           2.1915    1.9633    0.3297 S.3     1  LIG1       -0.1377
      9 H           1.3971    2.8743   -0.2667 H       1  LIG1        0.1073
     10 O          -0.7615    1.6872   -0.8677 O.3     1  LIG1       -0.5035
     11 H          -1.7325    1.8088   -0.8576 H       1  LIG1        0.2923
     12 C          -2.4440   -0.7604    0.3720 C.ar    1  LIG1        0.0840
     13 C          -3.6448   -0.1753   -0.0368 C.ar    1  LIG1        0.0739
     14 C          -4.6217   -1.2031   -0.1427 C.ar    1  LIG1        0.1573
     15 C          -4.0171   -2.4135    0.1914 C.ar    1  LIG1        0.1077
     16 N          -2.6913   -2.1077    0.5036 N.ar    1  LIG1       -0.3479
     17 H          -2.0169   -2.7645    0.8620 H       1  LIG1        0.1661
     18 S          -3.9457    1.5580   -0.2539 S.3     1  LIG1       -0.1370
     19 H          -4.4635    1.5009   -1.5001 H       1  LIG1        0.1073
     20 O          -5.8843   -0.9678   -0.5662 O.3     1  LIG1       -0.5035
     21 H          -6.4739   -1.6566   -0.1987 H       1  LIG1        0.2923
     22 C          -4.4842   -3.7787    0.1261 C.ar    1  LIG1        0.0840
     23 C          -5.7297   -4.3600    0.3792 C.ar    1  LIG1        0.0739
     24 C          -5.6058   -5.7648    0.1998 C.ar    1  LIG1        0.1573
     25 C          -4.2915   -6.0412   -0.1690 C.ar    1  LIG1        0.1076
     26 N          -3.6309   -4.8124   -0.1907 N.ar    1  LIG1       -0.3479
     27 H          -2.6593   -4.6983   -0.4296 H       1  LIG1        0.1661
     28 S          -7.1761   -3.5203    0.9668 S.3     1  LIG1       -0.1370
     29 H          -8.0440   -3.9846    0.0421 H       1  LIG1        0.1073
     30 O          -6.6516   -6.6125    0.3337 O.3     1  LIG1       -0.5035
     31 H          -6.3114   -7.4965    0.5765 H       1  LIG1        0.2923
     32 C          -3.6318   -7.2557   -0.5917 C.ar    1  LIG1        0.0835
     33 C          -3.7942   -8.5902   -0.2260 C.ar    1  LIG1        0.0732
     34 C          -2.8575   -9.3604   -0.9810 C.ar    1  LIG1        0.1478
     35 C          -2.1480   -8.5023   -1.7865 C.ar    1  LIG1        0.0453
     36 N          -2.5981   -7.2154   -1.5098 N.ar    1  LIG1       -0.3555
     37 H          -2.4884   -6.4500   -2.1572 H       1  LIG1        0.1655
     38 H          -1.3587   -8.6846   -2.4995 H       1  LIG1        0.0845
     39 S          -4.8310   -9.2047    1.0743 S.3     1  LIG1       -0.1370
     40 H          -5.4651  -10.1622    0.3628 H       1  LIG1        0.1073
     41 O          -2.7577  -10.7115   -0.8393 O.3     1  LIG1       -0.5042
     42 H          -2.0556  -11.0400   -1.4148 H       1  LIG1        0.2923
@<TRIPOS>BOND
     1    38    35    1
     2    37    36    1
     3    35    36   ar
     4    35    34   ar
     5    36    32   ar
     6    19    18    1
     7    42    41    1
     8    34    41    1
     9    34    33   ar
    10    10    11    1
    11    10     3    1
    12    32    33   ar
    13    32    25    1
    14    20    21    1
    15    20    14    1
    16    27    26    1
    17     9     8    1
    18    18    13    1
    19    33    39    1
    20    26    25   ar
    21    26    22   ar
    22    25    24   ar
    23    14    13   ar
    24    14    15   ar
    25    13    12   ar
    26    29    28    1
    27    22    15    1
    28    22    23   ar
    29     3     4   ar
    30     3     2   ar
    31    15    16   ar
    32    24    30    1
    33    24    23   ar
    34     8     2    1
    35    30    31    1
    36    40    39    1
    37    12    16   ar
    38    12     4    1
    39    23    28    1
    40    16    17    1
    41     4     5   ar
    42     2     1   ar
    43     5     1   ar
    44     5     6    1
    45     1     7    1
