@<TRIPOS>MOLECULE
mol_data/opt/b3lyp/geoms/mol2/13gf13gf13gf13gf.out
 42 45 0 0 0
SMALL
GASTEIGER

@<TRIPOS>ATOM
      1 C           1.1828   -0.3818    0.1757 C.ar    1  LIG1        0.0191
      2 C           0.8474    0.9165   -0.1460 C.ar    1  LIG1        0.0643
      3 C          -0.5791    1.0015   -0.1372 C.ar    1  LIG1        0.1566
      4 C          -1.0812   -0.2576    0.1886 C.ar    1  LIG1        0.1072
      5 N           0.0249   -1.1020    0.3305 N.ar    1  LIG1       -0.3555
      6 H          -0.0242   -1.9651    0.8499 H       1  LIG1        0.1655
      7 H           2.1546   -0.8345    0.3005 H       1  LIG1        0.0819
      8 S           1.9840    2.1870   -0.6277 S.3     1  LIG1       -0.1377
      9 H           1.4342    3.1795    0.1022 H       1  LIG1        0.1073
     10 O          -1.2396    2.1384   -0.4491 O.3     1  LIG1       -0.5035
     11 H          -2.1364    2.1066   -0.0611 H       1  LIG1        0.2923
     12 C          -2.4205   -0.7879    0.2603 C.ar    1  LIG1        0.0840
     13 C          -3.6491   -0.2170    0.5681 C.ar    1  LIG1        0.0739
     14 C          -4.6529   -1.2233    0.4281 C.ar    1  LIG1        0.1573
     15 C          -4.0299   -2.4044    0.0419 C.ar    1  LIG1        0.1077
     16 N          -2.6491   -2.1329   -0.0022 N.ar    1  LIG1       -0.3479
     17 H          -2.0630   -2.6093   -0.6748 H       1  LIG1        0.1661
     18 S          -3.9233    1.4129    1.2098 S.3     1  LIG1       -0.1370
     19 H          -4.9647    1.7321    0.4122 H       1  LIG1        0.1073
     20 O          -5.9485   -0.9738    0.7063 O.3     1  LIG1       -0.5035
     21 H          -6.5094   -1.6580    0.2859 H       1  LIG1        0.2923
     22 C          -4.5083   -3.7455   -0.1714 C.ar    1  LIG1        0.0840
     23 C          -5.7482   -4.2728   -0.5171 C.ar    1  LIG1        0.0739
     24 C          -5.6355   -5.6971   -0.5315 C.ar    1  LIG1        0.1573
     25 C          -4.3287   -6.0311   -0.2069 C.ar    1  LIG1        0.1076
     26 N          -3.6335   -4.8181   -0.0405 N.ar    1  LIG1       -0.3479
     27 H          -2.8801   -4.7535    0.6313 H       1  LIG1        0.1661
     28 S          -7.1788   -3.3657   -1.0400 S.3     1  LIG1       -0.1370
     29 H          -8.0774   -3.9863   -0.2457 H       1  LIG1        0.1073
     30 O          -6.6744   -6.4893   -0.8695 O.3     1  LIG1       -0.5035
     31 H          -6.5207   -7.3864   -0.5085 H       1  LIG1        0.2923
     32 C          -3.6161   -7.2858   -0.1583 C.ar    1  LIG1        0.0835
     33 C          -4.0101   -8.5995    0.1023 C.ar    1  LIG1        0.0732
     34 C          -2.8469   -9.4228    0.0095 C.ar    1  LIG1        0.1478
     35 C          -1.7762   -8.6198   -0.3043 C.ar    1  LIG1        0.0453
     36 N          -2.2514   -7.3144   -0.3621 N.ar    1  LIG1       -0.3555
     37 H          -1.7664   -6.5626   -0.8259 H       1  LIG1        0.1655
     38 H          -0.7345   -8.8520   -0.4637 H       1  LIG1        0.0845
     39 S          -5.6125   -9.1393    0.6330 S.3     1  LIG1       -0.1370
     40 H          -5.8340  -10.0589   -0.3329 H       1  LIG1        0.1073
     41 O          -2.8980  -10.7674    0.2226 O.3     1  LIG1       -0.5042
     42 H          -2.0090  -11.1350    0.1413 H       1  LIG1        0.2923
@<TRIPOS>BOND
     1    28    23    1
     2    28    29    1
     3    30    24    1
     4    30    31    1
     5    37    36    1
     6    17    16    1
     7     8     2    1
     8     8     9    1
     9    24    23   ar
    10    24    25   ar
    11    23    22   ar
    12    38    35    1
    13    10     3    1
    14    10    11    1
    15    36    35   ar
    16    36    32   ar
    17    40    39    1
    18    35    34   ar
    19    25    32    1
    20    25    26   ar
    21    22    26   ar
    22    22    15    1
    23    32    33   ar
    24     2     3   ar
    25     2     1   ar
    26     3     4   ar
    27    26    27    1
    28    16    15   ar
    29    16    12   ar
    30    34    33   ar
    31    34    41    1
    32    15    14   ar
    33    33    39    1
    34    42    41    1
    35     1     7    1
    36     1     5   ar
    37     4    12    1
    38     4     5   ar
    39    12    13   ar
    40    21    20    1
    41     5     6    1
    42    19    18    1
    43    14    13   ar
    44    14    20    1
    45    13    18    1
