@<TRIPOS>MOLECULE
mol_data/opt/b3lyp/geoms/mol2/13gf13gf-13gf-13gf-.out
 42 45 0 0 0
SMALL
GASTEIGER

@<TRIPOS>ATOM
      1 C           1.0255   -0.1395    1.1418 C.ar    1  LIG1        0.0191
      2 C           0.8848    0.8774    0.2253 C.ar    1  LIG1        0.0643
      3 C          -0.4664    0.8460   -0.2396 C.ar    1  LIG1        0.1566
      4 C          -1.1193   -0.2002    0.4022 C.ar    1  LIG1        0.1072
      5 N          -0.1688   -0.8278    1.2155 N.ar    1  LIG1       -0.3555
      6 H          -0.4390   -1.3234    2.0531 H       1  LIG1        0.1655
      7 H           1.8760   -0.4247    1.7419 H       1  LIG1        0.0819
      8 S           2.1514    1.9714   -0.3567 S.3     1  LIG1       -0.1377
      9 H           1.2932    2.8870   -0.8483 H       1  LIG1        0.1073
     10 O          -0.9240    1.6974   -1.1889 O.3     1  LIG1       -0.5035
     11 H          -1.8884    1.8132   -1.0687 H       1  LIG1        0.2923
     12 C          -2.4457   -0.7526    0.2516 C.ar    1  LIG1        0.0840
     13 C          -3.6874   -0.1748   -0.0298 C.ar    1  LIG1        0.0739
     14 C          -4.6670   -1.2044   -0.0072 C.ar    1  LIG1        0.1573
     15 C          -4.0246   -2.4086    0.2833 C.ar    1  LIG1        0.1077
     16 N          -2.6751   -2.0936    0.4461 N.ar    1  LIG1       -0.3479
     17 H          -1.9563   -2.7652    0.6610 H       1  LIG1        0.1661
     18 S          -4.0180    1.5542   -0.2372 S.3     1  LIG1       -0.1370
     19 H          -4.6515    1.4809   -1.4282 H       1  LIG1        0.1073
     20 O          -5.9678   -0.9735   -0.2918 O.3     1  LIG1       -0.5035
     21 H          -6.5168   -1.6795    0.1032 H       1  LIG1        0.2923
     22 C          -4.4821   -3.7745    0.3127 C.ar    1  LIG1        0.0840
     23 C          -5.7035   -4.3479    0.6340 C.ar    1  LIG1        0.0739
     24 C          -5.6008   -5.7590    0.4269 C.ar    1  LIG1        0.1573
     25 C          -4.3138   -6.0388   -0.0066 C.ar    1  LIG1        0.1076
     26 N          -3.6151   -4.8140   -0.0241 N.ar    1  LIG1       -0.3479
     27 H          -2.9345   -4.6509   -0.7559 H       1  LIG1        0.1661
     28 S          -7.0956   -3.5230    1.3593 S.3     1  LIG1       -0.1370
     29 H          -8.0441   -4.1262    0.6125 H       1  LIG1        0.1073
     30 O          -6.6292   -6.5909    0.6941 O.3     1  LIG1       -0.5035
     31 H          -6.5010   -7.4254    0.1974 H       1  LIG1        0.2923
     32 C          -3.6145   -7.2712   -0.2860 C.ar    1  LIG1        0.0835
     33 C          -4.0321   -8.5331   -0.7153 C.ar    1  LIG1        0.0732
     34 C          -2.8703   -9.3556   -0.8236 C.ar    1  LIG1        0.1478
     35 C          -1.7768   -8.6037   -0.4629 C.ar    1  LIG1        0.0453
     36 N          -2.2412   -7.3264   -0.1755 N.ar    1  LIG1       -0.3555
     37 H          -1.7152   -6.6374    0.3381 H       1  LIG1        0.1655
     38 H          -0.7282   -8.8523   -0.4080 H       1  LIG1        0.0845
     39 S          -5.6676   -8.9950   -1.2167 S.3     1  LIG1       -0.1370
     40 H          -5.8397  -10.0407   -0.3770 H       1  LIG1        0.1073
     41 O          -2.9420  -10.6537   -1.2305 O.3     1  LIG1       -0.5042
     42 H          -2.0507  -11.0221   -1.2733 H       1  LIG1        0.2923
@<TRIPOS>BOND
     1    19    18    1
     2    42    41    1
     3    41    34    1
     4    39    33    1
     5    39    40    1
     6    10    11    1
     7    10     3    1
     8     9     8    1
     9    34    33   ar
    10    34    35   ar
    11    27    26    1
    12    33    32   ar
    13    35    38    1
    14    35    36   ar
    15     8     2    1
    16    20    14    1
    17    20    21    1
    18    32    36   ar
    19    32    25    1
    20     3     2   ar
    21     3     4   ar
    22    18    13    1
    23    36    37    1
    24    13    14   ar
    25    13    12   ar
    26    26    25   ar
    27    26    22   ar
    28    14    15   ar
    29    25    24   ar
    30    31    30    1
    31     2     1   ar
    32    12     4    1
    33    12    16   ar
    34    15    22    1
    35    15    16   ar
    36    22    23   ar
    37     4     5   ar
    38    24    23   ar
    39    24    30    1
    40    16    17    1
    41    29    28    1
    42    23    28    1
    43     1     5   ar
    44     1     7    1
    45     5     6    1
