@<TRIPOS>MOLECULE
mol_data/opt/b3lyp/geoms/mol2/13gf13gf-13gf-.out
 32 34 0 0 0
SMALL
GASTEIGER

@<TRIPOS>ATOM
      1 C           1.1880   -0.3220   -0.1093 C.ar    1  LIG1        0.0191
      2 C           0.8217    0.9320    0.3347 C.ar    1  LIG1        0.0643
      3 C          -0.6065    0.9768    0.3497 C.ar    1  LIG1        0.1566
      4 C          -1.0783   -0.2597   -0.0889 C.ar    1  LIG1        0.1072
      5 N           0.0487   -1.0538   -0.3225 N.ar    1  LIG1       -0.3555
      6 H           0.0154   -1.8810   -0.8978 H       1  LIG1        0.1655
      7 H           2.1701   -0.7342   -0.2824 H       1  LIG1        0.0819
      8 S           1.9332    2.1796    0.9230 S.3     1  LIG1       -0.1377
      9 H           1.4207    3.2094    0.2171 H       1  LIG1        0.1073
     10 O          -1.2955    2.0590    0.7750 O.3     1  LIG1       -0.5035
     11 H          -2.1995    2.0323    0.4049 H       1  LIG1        0.2923
     12 C          -2.4047   -0.8171   -0.1971 C.ar    1  LIG1        0.0840
     13 C          -3.6488   -0.2535   -0.4416 C.ar    1  LIG1        0.0739
     14 C          -4.6280   -1.2929   -0.3730 C.ar    1  LIG1        0.1573
     15 C          -3.9739   -2.4847   -0.0994 C.ar    1  LIG1        0.1076
     16 N          -2.5979   -2.1871   -0.0459 N.ar    1  LIG1       -0.3479
     17 H          -2.0007   -2.6907    0.5974 H       1  LIG1        0.1661
     18 S          -3.9723    1.4188   -0.9345 S.3     1  LIG1       -0.1370
     19 H          -5.0386    1.6195   -0.1318 H       1  LIG1        0.1073
     20 O          -5.9362   -1.0526   -0.6045 O.3     1  LIG1       -0.5035
     21 H          -6.4675   -1.7639   -0.1912 H       1  LIG1        0.2923
     22 C          -4.4217   -3.8547   -0.0061 C.ar    1  LIG1        0.0835
     23 C          -5.6353   -4.4417    0.3586 C.ar    1  LIG1        0.0732
     24 C          -5.4723   -5.8571    0.2654 C.ar    1  LIG1        0.1478
     25 C          -4.1873   -6.1150   -0.1506 C.ar    1  LIG1        0.0453
     26 N          -3.5482   -4.8875   -0.2742 N.ar    1  LIG1       -0.3555
     27 H          -2.6919   -4.7468   -0.7863 H       1  LIG1        0.1655
     28 H          -3.6741   -7.0444   -0.3442 H       1  LIG1        0.0845
     29 S          -7.0642   -3.6111    0.9979 S.3     1  LIG1       -0.1370
     30 H          -7.9675   -4.0601    0.0976 H       1  LIG1        0.1073
     31 O          -6.4827   -6.7203    0.5663 O.3     1  LIG1       -0.5042
     32 H          -6.1616   -7.6264    0.4775 H       1  LIG1        0.2923
@<TRIPOS>BOND
     1    18    13    1
     2    18    19    1
     3     6     5    1
     4    27    26    1
     5    20    14    1
     6    20    21    1
     7    13    14   ar
     8    13    12   ar
     9    14    15   ar
    10    28    25    1
    11     5     1   ar
    12     5     4   ar
    13     7     1    1
    14    26    25   ar
    15    26    22   ar
    16    12     4    1
    17    12    16   ar
    18    25    24   ar
    19     1     2   ar
    20    15    16   ar
    21    15    22    1
    22     4     3   ar
    23    16    17    1
    24    22    23   ar
    25    30    29    1
    26     9     8    1
    27    24    23   ar
    28    24    31    1
    29     2     3   ar
    30     2     8    1
    31     3    10    1
    32    23    29    1
    33    11    10    1
    34    32    31    1
