@<TRIPOS>MOLECULE
mol_data/opt/b3lyp/geoms/mol2/13gf13gf-.out
 22 23 0 0 0
SMALL
GASTEIGER

@<TRIPOS>ATOM
      1 C           1.1625   -0.3697    0.2798 C.ar    1  LIG1        0.0191
      2 C           0.7958    0.9176   -0.0446 C.ar    1  LIG1        0.0643
      3 C          -0.6272    0.9362   -0.1640 C.ar    1  LIG1        0.1566
      4 C          -1.0981   -0.3480    0.0856 C.ar    1  LIG1        0.1072
      5 N           0.0248   -1.1463    0.3147 N.ar    1  LIG1       -0.3555
      6 H          -0.0296   -2.0044    0.8429 H       1  LIG1        0.1655
      7 H           2.1360   -0.7876    0.4852 H       1  LIG1        0.0819
      8 S           1.8754    2.2895   -0.3512 S.3     1  LIG1       -0.1377
      9 H           0.9192    3.2245   -0.1832 H       1  LIG1        0.1073
     10 O          -1.3110    2.0542   -0.5143 O.3     1  LIG1       -0.5035
     11 H          -2.2097    2.0023   -0.1318 H       1  LIG1        0.2923
     12 C          -2.4192   -0.9339    0.0209 C.ar    1  LIG1        0.0835
     13 C          -3.6954   -0.4275    0.2647 C.ar    1  LIG1        0.0732
     14 C          -4.6274   -1.4855    0.0370 C.ar    1  LIG1        0.1478
     15 C          -3.9224   -2.6042   -0.3393 C.ar    1  LIG1        0.0453
     16 N          -2.5752   -2.2643   -0.3072 N.ar    1  LIG1       -0.3555
     17 H          -1.8528   -2.7890   -0.7750 H       1  LIG1        0.1655
     18 H          -4.2508   -3.5983   -0.6009 H       1  LIG1        0.0845
     19 S          -4.0879    1.1737    0.9157 S.3     1  LIG1       -0.1370
     20 H          -4.9407    1.5692   -0.0556 H       1  LIG1        0.1073
     21 O          -5.9694   -1.3131    0.2015 O.3     1  LIG1       -0.5042
     22 H          -6.4186   -2.1498    0.0279 H       1  LIG1        0.2923
@<TRIPOS>BOND
     1    17    16    1
     2    18    15    1
     3    10     3    1
     4    10    11    1
     5     8     9    1
     6     8     2    1
     7    15    16   ar
     8    15    14   ar
     9    16    12   ar
    10     3     2   ar
    11     3     4   ar
    12    20    19    1
    13     2     1   ar
    14    12     4    1
    15    12    13   ar
    16    22    21    1
    17    14    21    1
    18    14    13   ar
    19     4     5   ar
    20    13    19    1
    21     1     5   ar
    22     1     7    1
    23     5     6    1
