@<TRIPOS>MOLECULE
mol_data/opt/b3lyp/geoms/mol2/13gf13gf13gf13gf-.out
 42 45 0 0 0
SMALL
GASTEIGER

@<TRIPOS>ATOM
      1 C           1.1852   -0.3806    0.0577 C.ar    1  LIG1        0.0191
      2 C           0.8459    0.9113   -0.2853 C.ar    1  LIG1        0.0643
      3 C          -0.5803    0.9972   -0.2599 C.ar    1  LIG1        0.1566
      4 C          -1.0785   -0.2550    0.0972 C.ar    1  LIG1        0.1072
      5 N           0.0292   -1.0969    0.2417 N.ar    1  LIG1       -0.3555
      6 H          -0.0136   -1.9500    0.7777 H       1  LIG1        0.1655
      7 H           2.1584   -0.8311    0.1789 H       1  LIG1        0.0819
      8 S           1.9767    2.1715   -0.8065 S.3     1  LIG1       -0.1377
      9 H           1.4355    3.1788   -0.0906 H       1  LIG1        0.1073
     10 O          -1.2445    2.1281   -0.5857 O.3     1  LIG1       -0.5035
     11 H          -2.1364    2.1043   -0.1859 H       1  LIG1        0.2923
     12 C          -2.4168   -0.7831    0.1968 C.ar    1  LIG1        0.0840
     13 C          -3.6412   -0.2057    0.5090 C.ar    1  LIG1        0.0739
     14 C          -4.6470   -1.2141    0.4019 C.ar    1  LIG1        0.1573
     15 C          -4.0293   -2.4029    0.0312 C.ar    1  LIG1        0.1077
     16 N          -2.6490   -2.1331   -0.0360 N.ar    1  LIG1       -0.3479
     17 H          -2.0722   -2.6223   -0.7074 H       1  LIG1        0.1661
     18 S          -3.9068    1.4367    1.1220 S.3     1  LIG1       -0.1370
     19 H          -4.9592    1.7400    0.3328 H       1  LIG1        0.1073
     20 O          -5.9388   -0.9585    0.6917 O.3     1  LIG1       -0.5035
     21 H          -6.5052   -1.6504    0.2917 H       1  LIG1        0.2923
     22 C          -4.5105   -3.7478   -0.1493 C.ar    1  LIG1        0.0840
     23 C          -5.7549   -4.2816   -0.4681 C.ar    1  LIG1        0.0739
     24 C          -5.6423   -5.7058   -0.4562 C.ar    1  LIG1        0.1573
     25 C          -4.3312   -6.0336   -0.1426 C.ar    1  LIG1        0.1076
     26 N          -3.6341   -4.8177   -0.0091 N.ar    1  LIG1       -0.3479
     27 H          -2.8714   -4.7401    0.6507 H       1  LIG1        0.1661
     28 S          -7.1925   -3.3846   -0.9893 S.3     1  LIG1       -0.1370
     29 H          -8.0800   -3.9867   -0.1685 H       1  LIG1        0.1073
     30 O          -6.6856   -6.5044   -0.7646 O.3     1  LIG1       -0.5035
     31 H          -6.5268   -7.3943   -0.3886 H       1  LIG1        0.2923
     32 C          -3.6179   -7.2873   -0.0793 C.ar    1  LIG1        0.0835
     33 C          -4.0082   -8.5956    0.2124 C.ar    1  LIG1        0.0732
     34 C          -2.8462   -9.4207    0.1197 C.ar    1  LIG1        0.1478
     35 C          -1.7800   -8.6241   -0.2243 C.ar    1  LIG1        0.0453
     36 N          -2.2561   -7.3201   -0.3011 N.ar    1  LIG1       -0.3555
     37 H          -1.7775   -6.5774   -0.7860 H       1  LIG1        0.1655
     38 H          -0.7406   -8.8596   -0.3935 H       1  LIG1        0.0845
     39 S          -5.6030   -9.1245    0.7754 S.3     1  LIG1       -0.1370
     40 H          -5.8372  -10.0637   -0.1685 H       1  LIG1        0.1073
     41 O          -2.8942  -10.7609    0.3598 O.3     1  LIG1       -0.5042
     42 H          -2.0065  -11.1302    0.2733 H       1  LIG1        0.2923
@<TRIPOS>BOND
     1    28    23    1
     2    28    29    1
     3     8     2    1
     4     8     9    1
     5    37    36    1
     6    30    24    1
     7    30    31    1
     8    17    16    1
     9    10     3    1
    10    10    11    1
    11    23    24   ar
    12    23    22   ar
    13    24    25   ar
    14    38    35    1
    15    36    35   ar
    16    36    32   ar
    17     2     3   ar
    18     2     1   ar
    19     3     4   ar
    20    35    34   ar
    21    40    39    1
    22    22    26   ar
    23    22    15    1
    24    25    32    1
    25    25    26   ar
    26    32    33   ar
    27    16    15   ar
    28    16    12   ar
    29    26    27    1
    30    15    14   ar
    31     1     7    1
    32     1     5   ar
    33     4    12    1
    34     4     5   ar
    35    34    33   ar
    36    34    41    1
    37    12    13   ar
    38    33    39    1
    39     5     6    1
    40    42    41    1
    41    21    20    1
    42    19    18    1
    43    14    13   ar
    44    14    20    1
    45    13    18    1
