@<TRIPOS>MOLECULE
mol_data/opt/b3lyp/geoms/mol2/13gf13gf-13gf.out
 32 34 0 0 0
SMALL
GASTEIGER

@<TRIPOS>ATOM
      1 C           1.1353   -0.2613   -0.7237 C.ar    1  LIG1        0.0191
      2 C           0.8737    0.8998   -0.0324 C.ar    1  LIG1        0.0643
      3 C          -0.5241    0.9113    0.2653 C.ar    1  LIG1        0.1566
      4 C          -1.0836   -0.2532   -0.2479 C.ar    1  LIG1        0.1072
      5 N          -0.0344   -0.9871   -0.8128 N.ar    1  LIG1       -0.3555
      6 H          -0.1930   -1.6437   -1.5633 H       1  LIG1        0.1655
      7 H           2.0560   -0.6236   -1.1547 H       1  LIG1        0.0819
      8 S           2.0553    2.1120    0.4913 S.3     1  LIG1       -0.1377
      9 H           1.1584    3.1117    0.6063 H       1  LIG1        0.1073
     10 O          -1.1049    1.9072    0.9771 O.3     1  LIG1       -0.5035
     11 H          -2.0477    1.9657    0.7215 H       1  LIG1        0.2923
     12 C          -2.4153   -0.8085   -0.1610 C.ar    1  LIG1        0.0840
     13 C          -3.6863   -0.2273   -0.1516 C.ar    1  LIG1        0.0739
     14 C          -4.6480   -1.2741   -0.1071 C.ar    1  LIG1        0.1573
     15 C          -3.9669   -2.4887   -0.0807 C.ar    1  LIG1        0.1076
     16 N          -2.6094   -2.1695   -0.1255 N.ar    1  LIG1       -0.3479
     17 H          -1.8628   -2.8452   -0.1463 H       1  LIG1        0.1661
     18 S          -4.0518    1.4991   -0.3163 S.3     1  LIG1       -0.1370
     19 H          -4.8304    1.6316    0.7799 H       1  LIG1        0.1073
     20 O          -5.9792   -1.0399   -0.0465 O.3     1  LIG1       -0.5035
     21 H          -6.4514   -1.8075   -0.4258 H       1  LIG1        0.2923
     22 C          -4.4120   -3.8533    0.0876 C.ar    1  LIG1        0.0835
     23 C          -5.5633   -4.5246   -0.3192 C.ar    1  LIG1        0.0732
     24 C          -5.4583   -5.8744    0.1364 C.ar    1  LIG1        0.1478
     25 C          -4.2660   -6.0088    0.8064 C.ar    1  LIG1        0.0453
     26 N          -3.6158   -4.7812    0.7335 N.ar    1  LIG1       -0.3555
     27 H          -2.8936   -4.5066    1.3817 H       1  LIG1        0.1655
     28 H          -3.8170   -6.8592    1.2962 H       1  LIG1        0.0845
     29 S          -6.8358   -3.8837   -1.3741 S.3     1  LIG1       -0.1370
     30 H          -7.8942   -4.2044   -0.5981 H       1  LIG1        0.1073
     31 O          -6.4288   -6.7966   -0.1165 O.3     1  LIG1       -0.5042
     32 H          -6.1628   -7.6469    0.2553 H       1  LIG1        0.2923
@<TRIPOS>BOND
     1     6     5    1
     2    29    30    1
     3    29    23    1
     4     7     1    1
     5     5     1   ar
     6     5     4   ar
     7     1     2   ar
     8    21    20    1
     9    23    22   ar
    10    23    24   ar
    11    18    13    1
    12    18    19    1
    13     4    12    1
    14     4     3   ar
    15    12    13   ar
    16    12    16   ar
    17    13    14   ar
    18    17    16    1
    19    16    15   ar
    20    31    24    1
    21    31    32    1
    22    14    15   ar
    23    14    20    1
    24    15    22    1
    25     2     3   ar
    26     2     8    1
    27    22    26   ar
    28    24    25   ar
    29     3    10    1
    30     8     9    1
    31    11    10    1
    32    26    25   ar
    33    26    27    1
    34    25    28    1
