@<TRIPOS>MOLECULE
mol_data/opt/b3lyp/geoms/mol2/13gf13gf13gf-.out
 32 34 0 0 0
SMALL
GASTEIGER

@<TRIPOS>ATOM
      1 C           1.1852   -0.3146    0.1021 C.ar    1  LIG1        0.0191
      2 C           0.8146    0.9438   -0.3255 C.ar    1  LIG1        0.0643
      3 C          -0.6137    0.9859   -0.3342 C.ar    1  LIG1        0.1566
      4 C          -1.0812   -0.2570    0.0909 C.ar    1  LIG1        0.1072
      5 N           0.0483   -1.0513    0.3106 N.ar    1  LIG1       -0.3555
      6 H           0.0191   -1.8866    0.8744 H       1  LIG1        0.1655
      7 H           2.1690   -0.7269    0.2658 H       1  LIG1        0.0819
      8 S           1.9215    2.2017   -0.9009 S.3     1  LIG1       -0.1377
      9 H           1.4097    3.2203   -0.1785 H       1  LIG1        0.1073
     10 O          -1.3067    2.0717   -0.7430 O.3     1  LIG1       -0.5035
     11 H          -2.2087    2.0391   -0.3684 H       1  LIG1        0.2923
     12 C          -2.4060   -0.8184    0.1982 C.ar    1  LIG1        0.0840
     13 C          -3.6501   -0.2602    0.4551 C.ar    1  LIG1        0.0739
     14 C          -4.6276   -1.3007    0.3785 C.ar    1  LIG1        0.1573
     15 C          -3.9724   -2.4878    0.0878 C.ar    1  LIG1        0.1076
     16 N          -2.5972   -2.1870    0.0317 N.ar    1  LIG1       -0.3479
     17 H          -2.0023   -2.6814   -0.6208 H       1  LIG1        0.1661
     18 S          -3.9745    1.4053    0.9701 S.3     1  LIG1       -0.1370
     19 H          -5.0437    1.6147    0.1734 H       1  LIG1        0.1073
     20 O          -5.9352   -1.0659    0.6189 O.3     1  LIG1       -0.5035
     21 H          -6.4670   -1.7737    0.2004 H       1  LIG1        0.2923
     22 C          -4.4179   -3.8575   -0.0203 C.ar    1  LIG1        0.0835
     23 C          -5.6322   -4.4426   -0.3855 C.ar    1  LIG1        0.0732
     24 C          -5.4658   -5.8588   -0.3105 C.ar    1  LIG1        0.1478
     25 C          -4.1782   -6.1190    0.0955 C.ar    1  LIG1        0.0453
     26 N          -3.5407   -4.8917    0.2303 N.ar    1  LIG1       -0.3555
     27 H          -2.6831   -4.7555    0.7414 H       1  LIG1        0.1655
     28 H          -3.6620   -7.0496    0.2742 H       1  LIG1        0.0845
     29 S          -7.0661   -3.6074   -1.0074 S.3     1  LIG1       -0.1370
     30 H          -7.9640   -4.0702   -0.1088 H       1  LIG1        0.1073
     31 O          -6.4760   -6.7202   -0.6171 O.3     1  LIG1       -0.5042
     32 H          -6.1538   -7.6267   -0.5374 H       1  LIG1        0.2923
@<TRIPOS>BOND
     1    29    23    1
     2    29    30    1
     3     8     2    1
     4     8     9    1
     5    10    11    1
     6    10     3    1
     7    17    16    1
     8    31    32    1
     9    31    24    1
    10    23    24   ar
    11    23    22   ar
    12     3     2   ar
    13     3     4   ar
    14     2     1   ar
    15    24    25   ar
    16    22    15    1
    17    22    26   ar
    18    16    15   ar
    19    16    12   ar
    20    15    14   ar
    21     4    12    1
    22     4     5   ar
    23    25    26   ar
    24    25    28    1
    25     1     7    1
    26     1     5   ar
    27    19    18    1
    28    12    13   ar
    29    21    20    1
    30    26    27    1
    31     5     6    1
    32    14    13   ar
    33    14    20    1
    34    13    18    1
