@<TRIPOS>MOLECULE
mol_data/opt/b3lyp/geoms/mol2/13gf13gf-13gf13gf.out
 42 45 0 0 0
SMALL
GASTEIGER

@<TRIPOS>ATOM
      1 C           0.9213   -0.0746    1.4893 C.ar    1  LIG1        0.0191
      2 C           0.8805    0.8946    0.5133 C.ar    1  LIG1        0.0643
      3 C          -0.4131    0.8339   -0.0912 C.ar    1  LIG1        0.1566
      4 C          -1.1320   -0.1814    0.5286 C.ar    1  LIG1        0.1072
      5 N          -0.2752   -0.7630    1.4699 N.ar    1  LIG1       -0.3555
      6 H          -0.6326   -1.2171    2.2983 H       1  LIG1        0.1655
      7 H           1.7021   -0.3263    2.1906 H       1  LIG1        0.0819
      8 S           2.2017    1.9658    0.0161 S.3     1  LIG1       -0.1377
      9 H           1.4004    2.8451   -0.6174 H       1  LIG1        0.1073
     10 O          -0.7669    1.6338   -1.1267 O.3     1  LIG1       -0.5035
     11 H          -1.7375    1.7574   -1.1100 H       1  LIG1        0.2923
     12 C          -2.4355   -0.7445    0.2586 C.ar    1  LIG1        0.0840
     13 C          -3.6409   -0.1790   -0.1640 C.ar    1  LIG1        0.0739
     14 C          -4.6203   -1.2090   -0.2040 C.ar    1  LIG1        0.1573
     15 C          -4.0127   -2.4018    0.1839 C.ar    1  LIG1        0.1077
     16 N          -2.6826   -2.0827    0.4624 N.ar    1  LIG1       -0.3479
     17 H          -2.0043   -2.7215    0.8453 H       1  LIG1        0.1661
     18 S          -3.9428    1.5414   -0.4660 S.3     1  LIG1       -0.1370
     19 H          -4.4760    1.4213   -1.7013 H       1  LIG1        0.1073
     20 O          -5.8881   -0.9935   -0.6223 O.3     1  LIG1       -0.5035
     21 H          -6.4735   -1.6616   -0.2123 H       1  LIG1        0.2923
     22 C          -4.4821   -3.7677    0.1950 C.ar    1  LIG1        0.0840
     23 C          -5.7248   -4.3330    0.4938 C.ar    1  LIG1        0.0739
     24 C          -5.6048   -5.7454    0.3852 C.ar    1  LIG1        0.1573
     25 C          -4.2957   -6.0426    0.0141 C.ar    1  LIG1        0.1076
     26 N          -3.6339   -4.8177   -0.0787 N.ar    1  LIG1       -0.3479
     27 H          -2.6662   -4.7175   -0.3383 H       1  LIG1        0.1661
     28 S          -7.1624   -3.4617    1.0565 S.3     1  LIG1       -0.1370
     29 H          -8.0430   -3.9715    0.1684 H       1  LIG1        0.1073
     30 O          -6.6495   -6.5834    0.5762 O.3     1  LIG1       -0.5035
     31 H          -6.3072   -7.4543    0.8596 H       1  LIG1        0.2923
     32 C          -3.6429   -7.2785   -0.3541 C.ar    1  LIG1        0.0835
     33 C          -3.8019   -8.5920    0.0819 C.ar    1  LIG1        0.0732
     34 C          -2.8763   -9.4019   -0.6449 C.ar    1  LIG1        0.1478
     35 C          -2.1768   -8.5877   -1.5029 C.ar    1  LIG1        0.0453
     36 N          -2.6215   -7.2874   -1.2869 N.ar    1  LIG1       -0.3555
     37 H          -2.5199   -6.5566   -1.9745 H       1  LIG1        0.1655
     38 H          -1.3974   -8.8079   -2.2162 H       1  LIG1        0.0845
     39 S          -4.8216   -9.1366    1.4261 S.3     1  LIG1       -0.1370
     40 H          -5.4653  -10.1294    0.7740 H       1  LIG1        0.1073
     41 O          -2.7761  -10.7440   -0.4350 O.3     1  LIG1       -0.5042
     42 H          -2.0825  -11.1031   -1.0025 H       1  LIG1        0.2923
@<TRIPOS>BOND
     1    38    35    1
     2    37    36    1
     3    19    18    1
     4    35    36   ar
     5    35    34   ar
     6    36    32   ar
     7    10    11    1
     8    10     3    1
     9    42    41    1
    10    34    41    1
    11    34    33   ar
    12    20    21    1
    13    20    14    1
    14     9     8    1
    15    18    13    1
    16    32    25    1
    17    32    33   ar
    18    27    26    1
    19    14    13   ar
    20    14    15   ar
    21    13    12   ar
    22     3     2   ar
    23     3     4   ar
    24    26    25   ar
    25    26    22   ar
    26    25    24   ar
    27     8     2    1
    28    33    39    1
    29    29    28    1
    30    15    22    1
    31    15    16   ar
    32    22    23   ar
    33    12    16   ar
    34    12     4    1
    35    24    23   ar
    36    24    30    1
    37    16    17    1
    38    23    28    1
    39     2     1   ar
    40     4     5   ar
    41    30    31    1
    42    40    39    1
    43     5     1   ar
    44     5     6    1
    45     1     7    1
