@<TRIPOS>MOLECULE
mol_data/opt/b3lyp/geoms/mol2/13gf13gf13gf-13gf-.out
 42 45 0 0 0
SMALL
GASTEIGER

@<TRIPOS>ATOM
      1 C           0.9193   -0.1127    1.5414 C.ar    1  LIG1        0.0191
      2 C           0.8778    0.8821    0.5914 C.ar    1  LIG1        0.0643
      3 C          -0.4160    0.8367   -0.0143 C.ar    1  LIG1        0.1566
      4 C          -1.1342   -0.1949    0.5787 C.ar    1  LIG1        0.1072
      5 N          -0.2770   -0.8008    1.5040 N.ar    1  LIG1       -0.3555
      6 H          -0.6339   -1.2770    2.3201 H       1  LIG1        0.1655
      7 H           1.7002   -0.3823    2.2357 H       1  LIG1        0.0819
      8 S           2.1986    1.9663    0.1223 S.3     1  LIG1       -0.1377
      9 H           1.3969    2.8623   -0.4870 H       1  LIG1        0.1073
     10 O          -0.7704    1.6635   -1.0281 O.3     1  LIG1       -0.5035
     11 H          -1.7410    1.7862   -1.0080 H       1  LIG1        0.2923
     12 C          -2.4373   -0.7515    0.2938 C.ar    1  LIG1        0.0840
     13 C          -3.6432   -0.1759   -0.1136 C.ar    1  LIG1        0.0739
     14 C          -4.6218   -1.2052   -0.1810 C.ar    1  LIG1        0.1573
     15 C          -4.0134   -2.4074    0.1751 C.ar    1  LIG1        0.1077
     16 N          -2.6835   -2.0949    0.4621 N.ar    1  LIG1       -0.3479
     17 H          -2.0045   -2.7431    0.8274 H       1  LIG1        0.1661
     18 S          -3.9461    1.5517   -0.3694 S.3     1  LIG1       -0.1370
     19 H          -4.4799    1.4644   -1.6072 H       1  LIG1        0.1073
     20 O          -5.8898   -0.9796   -0.5934 O.3     1  LIG1       -0.5035
     21 H          -6.4747   -1.6586   -0.2010 H       1  LIG1        0.2923
     22 C          -4.4819   -3.7735    0.1496 C.ar    1  LIG1        0.0840
     23 C          -5.7241   -4.3473    0.4339 C.ar    1  LIG1        0.0739
     24 C          -5.6034   -5.7562    0.2874 C.ar    1  LIG1        0.1573
     25 C          -4.2943   -6.0426   -0.0923 C.ar    1  LIG1        0.1076
     26 N          -3.6335   -4.8153   -0.1532 N.ar    1  LIG1       -0.3479
     27 H          -2.6650   -4.7080   -0.4071 H       1  LIG1        0.1661
     28 S          -7.1620   -3.4921    1.0200 S.3     1  LIG1       -0.1370
     29 H          -8.0426   -3.9785    0.1189 H       1  LIG1        0.1073
     30 O          -6.6477   -6.5995    0.4562 O.3     1  LIG1       -0.5035
     31 H          -6.3048   -7.4776    0.7158 H       1  LIG1        0.2923
     32 C          -3.6410   -7.2678   -0.4938 C.ar    1  LIG1        0.0835
     33 C          -3.7993   -8.5927   -0.0934 C.ar    1  LIG1        0.0732
     34 C          -2.8733   -9.3821   -0.8418 C.ar    1  LIG1        0.1478
     35 C          -2.1741   -8.5446   -1.6775 C.ar    1  LIG1        0.0453
     36 N          -2.6196   -7.2509   -1.4263 N.ar    1  LIG1       -0.3555
     37 H          -2.5183   -6.5016   -2.0937 H       1  LIG1        0.1655
     38 H          -1.3945   -8.7450   -2.3963 H       1  LIG1        0.0845
     39 S          -4.8188   -9.1743    1.2354 S.3     1  LIG1       -0.1370
     40 H          -5.4625  -10.1487    0.5563 H       1  LIG1        0.1073
     41 O          -2.7723  -10.7294   -0.6683 O.3     1  LIG1       -0.5042
     42 H          -2.0786  -11.0726   -1.2455 H       1  LIG1        0.2923
@<TRIPOS>BOND
     1    38    35    1
     2    37    36    1
     3    35    36   ar
     4    35    34   ar
     5    19    18    1
     6    36    32   ar
     7    42    41    1
     8    10    11    1
     9    10     3    1
    10    34    41    1
    11    34    33   ar
    12    20    21    1
    13    20    14    1
    14    32    33   ar
    15    32    25    1
    16     9     8    1
    17    27    26    1
    18    18    13    1
    19    14    13   ar
    20    14    15   ar
    21    26    25   ar
    22    26    22   ar
    23    13    12   ar
    24    33    39    1
    25    25    24   ar
    26     3     4   ar
    27     3     2   ar
    28    29    28    1
    29     8     2    1
    30    22    15    1
    31    22    23   ar
    32    15    16   ar
    33    24    23   ar
    34    24    30    1
    35    12    16   ar
    36    12     4    1
    37    23    28    1
    38    30    31    1
    39    16    17    1
    40    40    39    1
    41     4     5   ar
    42     2     1   ar
    43     5     1   ar
    44     5     6    1
    45     1     7    1
