@<TRIPOS>MOLECULE
mol_data/opt/b3lyp/geoms/mol2/13gf13gf.out
 22 23 0 0 0
SMALL
GASTEIGER

@<TRIPOS>ATOM
      1 C           1.1651   -0.3706    0.2514 C.ar    1  LIG1        0.0191
      2 C           0.7952    0.9179   -0.0649 C.ar    1  LIG1        0.0643
      3 C          -0.6289    0.9370   -0.1700 C.ar    1  LIG1        0.1566
      4 C          -1.0974   -0.3480    0.0800 C.ar    1  LIG1        0.1072
      5 N           0.0277   -1.1472    0.2951 N.ar    1  LIG1       -0.3555
      6 H          -0.0215   -2.0072    0.8206 H       1  LIG1        0.1655
      7 H           2.1406   -0.7892    0.4453 H       1  LIG1        0.0819
      8 S           1.8720    2.2905   -0.3778 S.3     1  LIG1       -0.1377
      9 H           0.9180    3.2253   -0.1968 H       1  LIG1        0.1073
     10 O          -1.3159    2.0563   -0.5094 O.3     1  LIG1       -0.5035
     11 H          -2.2111    2.0027   -0.1190 H       1  LIG1        0.2923
     12 C          -2.4190   -0.9339    0.0267 C.ar    1  LIG1        0.0835
     13 C          -3.6930   -0.4283    0.2831 C.ar    1  LIG1        0.0732
     14 C          -4.6270   -1.4860    0.0617 C.ar    1  LIG1        0.1478
     15 C          -3.9253   -2.6036   -0.3240 C.ar    1  LIG1        0.0453
     16 N          -2.5778   -2.2637   -0.3032 N.ar    1  LIG1       -0.3555
     17 H          -1.8603   -2.7863   -0.7808 H       1  LIG1        0.1655
     18 H          -4.2560   -3.5975   -0.5835 H       1  LIG1        0.0845
     19 S          -4.0799    1.1713    0.9419 S.3     1  LIG1       -0.1370
     20 H          -4.9411    1.5693   -0.0210 H       1  LIG1        0.1073
     21 O          -5.9673   -1.3144    0.2397 O.3     1  LIG1       -0.5042
     22 H          -6.4185   -2.1492    0.0621 H       1  LIG1        0.2923
@<TRIPOS>BOND
     1    17    16    1
     2    18    15    1
     3    10     3    1
     4    10    11    1
     5     8     9    1
     6     8     2    1
     7    15    16   ar
     8    15    14   ar
     9    16    12   ar
    10     3     2   ar
    11     3     4   ar
    12     2     1   ar
    13    20    19    1
    14    12     4    1
    15    12    13   ar
    16    14    21    1
    17    14    13   ar
    18    22    21    1
    19     4     5   ar
    20     1     5   ar
    21     1     7    1
    22    13    19    1
    23     5     6    1
