@<TRIPOS>MOLECULE
mol_data/opt/b3lyp/geoms/mol2/13gf13gf-13gf13gf-.out
 42 45 0 0 0
SMALL
GASTEIGER

@<TRIPOS>ATOM
      1 C           0.9128   -0.0356   -1.4115 C.ar    1  LIG1        0.0191
      2 C           0.8649    0.9169   -0.4195 C.ar    1  LIG1        0.0643
      3 C          -0.4306    0.8411    0.1793 C.ar    1  LIG1        0.1566
      4 C          -1.1435   -0.1661   -0.4602 C.ar    1  LIG1        0.1072
      5 N          -0.2813   -0.7286   -1.4080 N.ar    1  LIG1       -0.3555
      6 H          -0.6339   -1.1703   -2.2451 H       1  LIG1        0.1655
      7 H           1.6968   -0.2724   -2.1143 H       1  LIG1        0.0819
      8 S           2.1803    1.9844    0.1005 S.3     1  LIG1       -0.1377
      9 H           1.3736    2.8495    0.7465 H       1  LIG1        0.1073
     10 O          -0.7911    1.6221    1.2269 O.3     1  LIG1       -0.5035
     11 H          -1.7620    1.7426    1.2086 H       1  LIG1        0.2923
     12 C          -2.4458   -0.7385   -0.2042 C.ar    1  LIG1        0.0840
     13 C          -3.6549   -0.1845    0.2232 C.ar    1  LIG1        0.0739
     14 C          -4.6305   -1.2187    0.2427 C.ar    1  LIG1        0.1573
     15 C          -4.0170   -2.4027   -0.1622 C.ar    1  LIG1        0.1077
     16 N          -2.6870   -2.0743   -0.4304 N.ar    1  LIG1       -0.3479
     17 H          -2.0053   -2.7038   -0.8223 H       1  LIG1        0.1661
     18 S          -3.9641    1.5296    0.5519 S.3     1  LIG1       -0.1370
     19 H          -4.5025    1.3874    1.7826 H       1  LIG1        0.1073
     20 O          -5.9006   -1.0147    0.6598 O.3     1  LIG1       -0.5035
     21 H          -6.4820   -1.6785    0.2373 H       1  LIG1        0.2923
     22 C          -4.4810   -3.7700   -0.1975 C.ar    1  LIG1        0.0840
     23 C          -5.7205   -4.3352   -0.5098 C.ar    1  LIG1        0.0739
     24 C          -5.5952   -5.7487   -0.4244 C.ar    1  LIG1        0.1573
     25 C          -4.2861   -6.0469   -0.0538 C.ar    1  LIG1        0.1076
     26 N          -3.6297   -4.8212    0.0618 N.ar    1  LIG1       -0.3479
     27 H          -2.6629   -4.7215    0.3252 H       1  LIG1        0.1661
     28 S          -7.1596   -3.4604   -1.0628 S.3     1  LIG1       -0.1370
     29 H          -8.0412   -3.9883   -0.1863 H       1  LIG1        0.1073
     30 O          -6.6359   -6.5875   -0.6327 O.3     1  LIG1       -0.5035
     31 H          -6.2891   -7.4520   -0.9301 H       1  LIG1        0.2923
     32 C          -3.6296   -7.2862    0.2960 C.ar    1  LIG1        0.0835
     33 C          -3.7819   -8.5928   -0.1625 C.ar    1  LIG1        0.0732
     34 C          -2.8553   -9.4110    0.5536 C.ar    1  LIG1        0.1478
     35 C          -2.1618   -8.6084    1.4274 C.ar    1  LIG1        0.0453
     36 N          -2.6111   -7.3065    1.2316 N.ar    1  LIG1       -0.3555
     37 H          -2.5150   -6.5871    1.9318 H       1  LIG1        0.1655
     38 H          -1.3834   -8.8374    2.1390 H       1  LIG1        0.0845
     39 S          -4.7951   -9.1191   -1.5189 S.3     1  LIG1       -0.1370
     40 H          -5.4377  -10.1243   -0.8852 H       1  LIG1        0.1073
     41 O          -2.7489  -10.7490    0.3216 O.3     1  LIG1       -0.5042
     42 H          -2.0551  -11.1146    0.8847 H       1  LIG1        0.2923
@<TRIPOS>BOND
     1     6     5    1
     2     7     1    1
     3    39    40    1
     4    39    33    1
     5     1     5   ar
     6     1     2   ar
     7     5     4   ar
     8    28    23    1
     9    28    29    1
    10    31    30    1
    11    17    16    1
    12    30    24    1
    13    23    24   ar
    14    23    22   ar
    15     4    12    1
    16     4     3   ar
    17    16    12   ar
    18    16    15   ar
    19    24    25   ar
    20     2     8    1
    21     2     3   ar
    22    12    13   ar
    23    22    15    1
    24    22    26   ar
    25    33    32   ar
    26    33    34   ar
    27    15    14   ar
    28    25    26   ar
    29    25    32    1
    30    26    27    1
    31     8     9    1
    32     3    10    1
    33    13    14   ar
    34    13    18    1
    35    21    20    1
    36    14    20    1
    37    32    36   ar
    38    41    34    1
    39    41    42    1
    40    18    19    1
    41    34    35   ar
    42    11    10    1
    43    36    35   ar
    44    36    37    1
    45    35    38    1
