@<TRIPOS>MOLECULE
mol_data/opt/b3lyp/geoms/mol2/13gf13gf-13gf-13gf.out
 42 45 0 0 0
SMALL
GASTEIGER

@<TRIPOS>ATOM
      1 C           0.8895   -0.1355    1.6935 C.ar    1  LIG1        0.0191
      2 C           0.8625    0.8744    0.7591 C.ar    1  LIG1        0.0643
      3 C          -0.4210    0.8375    0.1315 C.ar    1  LIG1        0.1566
      4 C          -1.1478   -0.2040    0.6960 C.ar    1  LIG1        0.1072
      5 N          -0.3053   -0.8238    1.6256 N.ar    1  LIG1       -0.3555
      6 H          -0.6748   -1.3143    2.4274 H       1  LIG1        0.1655
      7 H           1.6592   -0.4156    2.3962 H       1  LIG1        0.0819
      8 S           2.1893    1.9676    0.3296 S.3     1  LIG1       -0.1377
      9 H           1.3971    2.8694   -0.2834 H       1  LIG1        0.1073
     10 O          -0.7597    1.6801   -0.8748 O.3     1  LIG1       -0.5035
     11 H          -1.7306    1.8026   -0.8675 H       1  LIG1        0.2923
     12 C          -2.4454   -0.7571    0.3806 C.ar    1  LIG1        0.0840
     13 C          -3.6449   -0.1760   -0.0377 C.ar    1  LIG1        0.0739
     14 C          -4.6213   -1.2050   -0.1376 C.ar    1  LIG1        0.1573
     15 C          -4.0174   -2.4122    0.2093 C.ar    1  LIG1        0.1077
     16 N          -2.6928   -2.1033    0.5232 N.ar    1  LIG1       -0.3479
     17 H          -2.0193   -2.7567    0.8893 H       1  LIG1        0.1661
     18 S          -3.9456    1.5552   -0.2702 S.3     1  LIG1       -0.1370
     19 H          -4.4552    1.4884   -1.5195 H       1  LIG1        0.1073
     20 O          -5.8825   -0.9738   -0.5672 O.3     1  LIG1       -0.5035
     21 H          -6.4730   -1.6601   -0.1964 H       1  LIG1        0.2923
     22 C          -4.4840   -3.7781    0.1537 C.ar    1  LIG1        0.0840
     23 C          -5.7302   -4.3574    0.4082 C.ar    1  LIG1        0.0739
     24 C          -5.6058   -5.7635    0.2404 C.ar    1  LIG1        0.1573
     25 C          -4.2905   -6.0428   -0.1227 C.ar    1  LIG1        0.1076
     26 N          -3.6300   -4.8141   -0.1529 N.ar    1  LIG1       -0.3479
     27 H          -2.6572   -4.7023   -0.3879 H       1  LIG1        0.1661
     28 S          -7.1780   -3.5128    0.9851 S.3     1  LIG1       -0.1370
     29 H          -8.0441   -3.9878    0.0641 H       1  LIG1        0.1073
     30 O          -6.6520   -6.6101    0.3783 O.3     1  LIG1       -0.5035
     31 H          -6.3125   -7.4924    0.6280 H       1  LIG1        0.2923
     32 C          -3.6300   -7.2605   -0.5350 C.ar    1  LIG1        0.0835
     33 C          -3.7937   -8.5923   -0.1604 C.ar    1  LIG1        0.0732
     34 C          -2.8554   -9.3681   -0.9076 C.ar    1  LIG1        0.1478
     35 C          -2.1438   -8.5159   -1.7175 C.ar    1  LIG1        0.0453
     36 N          -2.5941   -7.2270   -1.4509 N.ar    1  LIG1       -0.3555
     37 H          -2.4823   -6.4659   -2.1032 H       1  LIG1        0.1655
     38 H          -1.3526   -8.7035   -2.4270 H       1  LIG1        0.0845
     39 S          -4.8335   -9.1969    1.1422 S.3     1  LIG1       -0.1370
     40 H          -5.4658  -10.1600    0.4367 H       1  LIG1        0.1073
     41 O          -2.7564  -10.7182   -0.7560 O.3     1  LIG1       -0.5042
     42 H          -2.0518  -11.0507   -1.3263 H       1  LIG1        0.2923
@<TRIPOS>BOND
     1    38    35    1
     2    37    36    1
     3    35    36   ar
     4    35    34   ar
     5    19    18    1
     6    36    32   ar
     7    42    41    1
     8    34    41    1
     9    34    33   ar
    10    10    11    1
    11    10     3    1
    12    20    21    1
    13    20    14    1
    14    32    33   ar
    15    32    25    1
    16    27    26    1
    17     9     8    1
    18    18    13    1
    19    33    39    1
    20    26    25   ar
    21    26    22   ar
    22    14    13   ar
    23    14    15   ar
    24    25    24   ar
    25    13    12   ar
    26    29    28    1
    27     3     4   ar
    28     3     2   ar
    29    22    15    1
    30    22    23   ar
    31    15    16   ar
    32    24    30    1
    33    24    23   ar
    34     8     2    1
    35    30    31    1
    36    12    16   ar
    37    12     4    1
    38    23    28    1
    39    40    39    1
    40    16    17    1
    41     4     5   ar
    42     2     1   ar
    43     5     1   ar
    44     5     6    1
    45     1     7    1
