@<TRIPOS>MOLECULE
mol_data/opt/b3lyp/geoms/mol2/13gf.out
 12 12 0 0 0
SMALL
GASTEIGER

@<TRIPOS>ATOM
      1 C           1.0994   -0.4172   -0.0001 C.ar    1  LIG1        0.0186
      2 C           0.6884    0.9016    0.0001 C.ar    1  LIG1        0.0636
      3 C          -0.7364    0.8910    0.0003 C.ar    1  LIG1        0.1472
      4 C          -1.1571   -0.4230    0.0003 C.ar    1  LIG1        0.0448
      5 N          -0.0220   -1.2086    0.0001 N.ar    1  LIG1       -0.3630
      6 H          -0.0182   -2.2142   -0.0003 H       1  LIG1        0.1649
      7 H          -2.1486   -0.8503    0.0004 H       1  LIG1        0.0844
      8 H           2.0913   -0.8404   -0.0002 H       1  LIG1        0.0819
      9 S           1.7297    2.3419    0.0001 S.3     1  LIG1       -0.1377
     10 H           0.7111    3.2230    0.0001 H       1  LIG1        0.1073
     11 O          -1.4708    2.0471    0.0004 O.3     1  LIG1       -0.5042
     12 H          -2.4099    1.8258    0.0005 H       1  LIG1        0.2923
@<TRIPOS>BOND
     1     6     5    1
     2     8     1    1
     3     1     2   ar
     4     1     5   ar
     5     2     9    1
     6     2     3   ar
     7     9    10    1
     8     5     4   ar
     9     3     4   ar
    10     3    11    1
    11     4     7    1
    12    11    12    1
