@<TRIPOS>MOLECULE
mol_data/opt/b3lyp/geoms/mol2/13gg13gg13gg-.out
 32 34 0 0 0
SMALL
GASTEIGER

@<TRIPOS>ATOM
      1 C           0.9063   -0.2054    1.4226 C.ar    1  LIG1        0.0165
      2 C           0.9259    0.7374    0.4159 C.ar    1  LIG1        0.0359
      3 C          -0.3525    0.7021   -0.2312 C.ar    1  LIG1        0.0447
      4 C          -1.1152   -0.2682    0.4098 C.ar    1  LIG1        0.0784
      5 N          -0.3179   -0.8234    1.3979 N.ar    1  LIG1       -0.3576
      6 H          -0.6693   -1.4292    2.1236 H       1  LIG1        0.1654
      7 H           1.6641   -0.4695    2.1439 H       1  LIG1        0.0818
      8 S           2.3539    1.6916   -0.0286 S.3     1  LIG1       -0.1401
      9 H           1.7052    2.8575   -0.2312 H       1  LIG1        0.1072
     10 S          -0.7985    1.6747   -1.6452 S.3     1  LIG1       -0.1395
     11 H          -1.9741    2.1263   -1.1480 H       1  LIG1        0.1072
     12 C          -2.4567   -0.7809    0.1694 C.ar    1  LIG1        0.0789
     13 C          -3.7084   -0.1693    0.1096 C.ar    1  LIG1        0.0454
     14 C          -4.6836   -1.1901   -0.0998 C.ar    1  LIG1        0.0454
     15 C          -4.0162   -2.4071   -0.1701 C.ar    1  LIG1        0.0789
     16 N          -2.6692   -2.1304    0.0143 N.ar    1  LIG1       -0.3501
     17 H          -1.9350   -2.8205   -0.0248 H       1  LIG1        0.1661
     18 S          -4.0248    1.5518    0.4037 S.3     1  LIG1       -0.1395
     19 H          -4.7277    1.7952   -0.7253 H       1  LIG1        0.1072
     20 S          -6.4175   -0.8777   -0.2609 S.3     1  LIG1       -0.1395
     21 H          -6.7616   -2.1694   -0.4358 H       1  LIG1        0.1072
     22 C          -4.4963   -3.7569   -0.4375 C.ar    1  LIG1        0.0784
     23 C          -5.2784   -4.6268    0.3113 C.ar    1  LIG1        0.0447
     24 C          -5.4205   -5.8393   -0.4418 C.ar    1  LIG1        0.0359
     25 C          -4.7286   -5.6679   -1.6276 C.ar    1  LIG1        0.0165
     26 N          -4.1674   -4.4277   -1.6131 N.ar    1  LIG1       -0.3576
     27 H          -3.6829   -3.9955   -2.3848 H       1  LIG1        0.1654
     28 H          -4.6113   -6.3440   -2.4608 H       1  LIG1        0.0818
     29 S          -5.9071   -4.2876    1.9307 S.3     1  LIG1       -0.1395
     30 H          -6.6969   -5.3834    1.9610 H       1  LIG1        0.1072
     31 S          -6.3805   -7.2670   -0.0146 S.3     1  LIG1       -0.1401
     32 H          -5.4943   -7.8719    0.8100 H       1  LIG1        0.1072
@<TRIPOS>BOND
     1    28    25    1
     2    27    26    1
     3    10    11    1
     4    10     3    1
     5    25    26   ar
     6    25    24   ar
     7    26    22   ar
     8    19    18    1
     9    24    31    1
    10    24    23   ar
    11    22    15    1
    12    22    23   ar
    13    21    20    1
    14    20    14    1
    15     3     4   ar
    16     3     2   ar
    17     9     8    1
    18    15    14   ar
    19    15    16   ar
    20    14    13   ar
    21     8     2    1
    22    17    16    1
    23    31    32    1
    24    16    12   ar
    25    13    12   ar
    26    13    18    1
    27    12     4    1
    28    23    29    1
    29     4     5   ar
    30     2     1   ar
    31     5     1   ar
    32     5     6    1
    33     1     7    1
    34    29    30    1
