@<TRIPOS>MOLECULE
mol_data/opt/b3lyp/geoms/mol2/13gg13gg-.out
 22 23 0 0 0
SMALL
GASTEIGER

@<TRIPOS>ATOM
      1 C           1.1069   -0.2067   -0.7580 C.ar    1  LIG1        0.0165
      2 C           0.7971    0.9276   -0.0371 C.ar    1  LIG1        0.0359
      3 C          -0.5658    0.8001    0.3899 C.ar    1  LIG1        0.0447
      4 C          -1.0444   -0.4170   -0.0913 C.ar    1  LIG1        0.0784
      5 N          -0.0072   -1.0142   -0.7739 N.ar    1  LIG1       -0.3576
      6 H          -0.1157   -1.8333   -1.3514 H       1  LIG1        0.1654
      7 H           2.0214   -0.4963   -1.2520 H       1  LIG1        0.0818
      8 S           1.9190    2.2574    0.3047 S.3     1  LIG1       -0.1401
      9 H           0.9885    3.0253    0.9120 H       1  LIG1        0.1072
     10 S          -1.4179    1.9185    1.4721 S.3     1  LIG1       -0.1395
     11 H          -2.3140    2.4126    0.5876 H       1  LIG1        0.1072
     12 C          -2.3506   -1.0466    0.0279 C.ar    1  LIG1        0.0784
     13 C          -3.6092   -0.6255   -0.3745 C.ar    1  LIG1        0.0447
     14 C          -4.5461   -1.6454   -0.0018 C.ar    1  LIG1        0.0359
     15 C          -3.8259   -2.6637    0.5957 C.ar    1  LIG1        0.0165
     16 N          -2.5111   -2.3039    0.5998 N.ar    1  LIG1       -0.3576
     17 H          -1.7746   -2.7931    1.0842 H       1  LIG1        0.1654
     18 H          -4.1678   -3.6009    1.0073 H       1  LIG1        0.0818
     19 S          -3.9434    0.8767   -1.2486 S.3     1  LIG1       -0.1395
     20 H          -5.2511    0.5972   -1.4404 H       1  LIG1        0.1072
     21 S          -6.2848   -1.6861   -0.3466 S.3     1  LIG1       -0.1401
     22 H          -6.7183   -0.9508    0.7033 H       1  LIG1        0.1072
@<TRIPOS>BOND
     1    20    19    1
     2     6     5    1
     3     7     1    1
     4    19    13    1
     5     5     1   ar
     6     5     4   ar
     7     1     2   ar
     8    13    14   ar
     9    13    12   ar
    10    21    14    1
    11    21    22    1
    12     4    12    1
    13     4     3   ar
    14     2     8    1
    15     2     3   ar
    16    14    15   ar
    17    12    16   ar
    18     8     9    1
    19     3    10    1
    20    11    10    1
    21    15    16   ar
    22    15    18    1
    23    16    17    1
