@<TRIPOS>MOLECULE
mol_data/opt/b3lyp/geoms/mol2/13gg13gg13gg.out
 32 34 0 0 0
SMALL
GASTEIGER

@<TRIPOS>ATOM
      1 C           1.2209   -0.0285    0.4034 C.ar    1  LIG1        0.0165
      2 C           0.8237    0.9539   -0.4798 C.ar    1  LIG1        0.0359
      3 C          -0.5901    0.8148   -0.6719 C.ar    1  LIG1        0.0447
      4 C          -1.0111   -0.2549    0.1132 C.ar    1  LIG1        0.0784
      5 N           0.1150   -0.7658    0.7397 N.ar    1  LIG1       -0.3576
      6 H           0.0791   -1.4404    1.4877 H       1  LIG1        0.1654
      7 H           2.1973   -0.2456    0.8084 H       1  LIG1        0.0818
      8 S           1.9382    2.0625   -1.3027 S.3     1  LIG1       -0.1401
      9 H           1.1958    3.1792   -1.1491 H       1  LIG1        0.1072
     10 S          -1.5461    1.7839   -1.8094 S.3     1  LIG1       -0.1395
     11 H          -2.5875    2.0318   -0.9804 H       1  LIG1        0.1072
     12 C          -2.3169   -0.8671    0.2992 C.ar    1  LIG1        0.0789
     13 C          -3.5415   -0.3432    0.6862 C.ar    1  LIG1        0.0454
     14 C          -4.4954   -1.4126    0.6950 C.ar    1  LIG1        0.0454
     15 C          -3.8256   -2.5715    0.3150 C.ar    1  LIG1        0.0789
     16 N          -2.5031   -2.2306    0.1101 N.ar    1  LIG1       -0.3501
     17 H          -1.8684   -2.7912   -0.4403 H       1  LIG1        0.1661
     18 S          -3.8064    1.3309    1.2033 S.3     1  LIG1       -0.1395
     19 H          -5.1532    1.2524    1.1365 H       1  LIG1        0.1072
     20 S          -6.1680   -1.2773    1.2722 S.3     1  LIG1       -0.1395
     21 H          -6.7920   -1.6834    0.1415 H       1  LIG1        0.1072
     22 C          -4.3021   -3.9324    0.1349 C.ar    1  LIG1        0.0784
     23 C          -5.3235   -4.4499   -0.6492 C.ar    1  LIG1        0.0447
     24 C          -5.3563   -5.8679   -0.4357 C.ar    1  LIG1        0.0359
     25 C          -4.3390   -6.1716    0.4500 C.ar    1  LIG1        0.0165
     26 N          -3.7032   -5.0106    0.7771 N.ar    1  LIG1       -0.3576
     27 H          -3.0083   -4.9122    1.5006 H       1  LIG1        0.1654
     28 H          -4.0401   -7.1256    0.8566 H       1  LIG1        0.0818
     29 S          -6.3172   -3.5105   -1.7722 S.3     1  LIG1       -0.1395
     30 H          -7.0287   -4.5768   -2.1988 H       1  LIG1        0.1072
     31 S          -6.4081   -7.0493   -1.2371 S.3     1  LIG1       -0.1401
     32 H          -7.4762   -6.9626   -0.4107 H       1  LIG1        0.1072
@<TRIPOS>BOND
     1    30    29    1
     2    10    11    1
     3    10     3    1
     4    29    23    1
     5     8     9    1
     6     8     2    1
     7    31    24    1
     8    31    32    1
     9     3     2   ar
    10     3     4   ar
    11    23    24   ar
    12    23    22   ar
    13     2     1   ar
    14    17    16    1
    15    24    25   ar
    16    16    12   ar
    17    16    15   ar
    18     4    12    1
    19     4     5   ar
    20    22    15    1
    21    22    26   ar
    22    21    20    1
    23    12    13   ar
    24    15    14   ar
    25     1     5   ar
    26     1     7    1
    27    25    26   ar
    28    25    28    1
    29    13    14   ar
    30    13    18    1
    31    14    20    1
    32     5     6    1
    33    26    27    1
    34    19    18    1
