@<TRIPOS>MOLECULE
mol_data/opt/b3lyp/geoms/mol2/13gg13gg.out
 22 23 0 0 0
SMALL
GASTEIGER

@<TRIPOS>ATOM
      1 C           0.4027    0.6992    1.3347 C.ar    1  LIG1        0.0165
      2 C           0.6783    0.9965    0.0164 C.ar    1  LIG1        0.0359
      3 C          -0.4025    0.4750   -0.7668 C.ar    1  LIG1        0.0447
      4 C          -1.3013   -0.1405    0.1131 C.ar    1  LIG1        0.0784
      5 N          -0.7836    0.0217    1.3774 N.ar    1  LIG1       -0.3576
      6 H          -1.2414   -0.3520    2.2013 H       1  LIG1        0.1654
      7 H           0.9637    0.9221    2.2291 H       1  LIG1        0.0818
      8 S           2.0487    1.9817   -0.5258 S.3     1  LIG1       -0.1401
      9 H           2.6176    1.0723   -1.3469 H       1  LIG1        0.1072
     10 S          -0.4933    0.5034   -2.5407 S.3     1  LIG1       -0.1395
     11 H          -0.7818    1.8136   -2.7115 H       1  LIG1        0.1072
     12 C          -2.5577   -0.8378   -0.1034 C.ar    1  LIG1        0.0784
     13 C          -3.4730   -1.4260    0.7787 C.ar    1  LIG1        0.0447
     14 C          -4.5492   -1.9553   -0.0080 C.ar    1  LIG1        0.0359
     15 C          -4.2595   -1.6768   -1.3276 C.ar    1  LIG1        0.0165
     16 N          -3.0641   -1.0169   -1.3702 N.ar    1  LIG1       -0.3576
     17 H          -2.5909   -0.6727   -2.1980 H       1  LIG1        0.1654
     18 H          -4.8148   -1.9084   -2.2232 H       1  LIG1        0.0818
     19 S          -3.3094   -1.5769    2.5413 S.3     1  LIG1       -0.1395
     20 H          -4.1207   -0.5614    2.9199 H       1  LIG1        0.1072
     21 S          -5.9454   -2.9081    0.5279 S.3     1  LIG1       -0.1401
     22 H          -6.6373   -1.9213    1.1402 H       1  LIG1        0.1072
@<TRIPOS>BOND
     1    11    10    1
     2    10     3    1
     3    18    15    1
     4    17    16    1
     5    16    15   ar
     6    16    12   ar
     7     9     8    1
     8    15    14   ar
     9     3     2   ar
    10     3     4   ar
    11     8     2    1
    12    12     4    1
    13    12    13   ar
    14    14    21    1
    15    14    13   ar
    16     2     1   ar
    17     4     5   ar
    18    21    22    1
    19    13    19    1
    20     1     5   ar
    21     1     7    1
    22     5     6    1
    23    19    20    1
