@<TRIPOS>MOLECULE
mol_data/opt/b3lyp/geoms/mol2/13gg.out
 12 12 0 0 0
SMALL
GASTEIGER

@<TRIPOS>ATOM
      1 C           1.1251   -0.4350   -0.0001 C.ar    1  LIG1        0.0160
      2 C           0.7063    0.8810    0.0001 C.ar    1  LIG1        0.0352
      3 C          -0.7247    0.8683    0.0003 C.ar    1  LIG1        0.0352
      4 C          -1.1242   -0.4536    0.0003 C.ar    1  LIG1        0.0160
      5 N           0.0072   -1.2316    0.0001 N.ar    1  LIG1       -0.3651
      6 H           0.0155   -2.2380   -0.0003 H       1  LIG1        0.1648
      7 H          -2.1115   -0.8882    0.0005 H       1  LIG1        0.0818
      8 H           2.1201   -0.8525   -0.0003 H       1  LIG1        0.0818
      9 S           1.8121    2.2769    0.0000 S.3     1  LIG1       -0.1401
     10 H           0.8608    3.2295    0.0000 H       1  LIG1        0.1072
     11 S          -1.7400    2.3288    0.0007 S.3     1  LIG1       -0.1401
     12 H          -2.9247    1.6896    0.0007 H       1  LIG1        0.1072
@<TRIPOS>BOND
     1     8     1    1
     2     6     5    1
     3     1     2   ar
     4     1     5   ar
     5    10     9    1
     6     9     2    1
     7     2     3   ar
     8     5     4   ar
     9     4     3   ar
    10     4     7    1
    11     3    11    1
    12    12    11    1
