@<TRIPOS>MOLECULE
mol_data/opt/b3lyp/geoms/mol2/13gh13gh-13gh13gh-.out
 46 49 0 0 0
SMALL
GASTEIGER

@<TRIPOS>ATOM
      1 C           0.5742   -0.0112    1.8592 C.ar    1  LIG1        0.0173
      2 C           0.7610    0.8923    0.8348 C.ar    1  LIG1        0.0434
      3 C          -0.4032    0.8550   -0.0071 C.ar    1  LIG1        0.0650
      4 C          -1.2740   -0.0867    0.5395 C.ar    1  LIG1        0.0860
      5 N          -0.6310   -0.6256    1.6679 N.ar    1  LIG1       -0.3570
      6 H          -1.1393   -1.0856    2.4085 H       1  LIG1        0.1655
      7 H           1.2111   -0.2463    2.6983 H       1  LIG1        0.0819
      8 S           2.2466    1.8066    0.5174 S.3     1  LIG1       -0.1394
      9 H           1.7821    3.0458    0.7983 H       1  LIG1        0.1072
     10 N          -0.5644    1.6600   -1.1210 N.pl3   1  LIG1       -0.3554
     11 H           0.2843    1.8071   -1.6528 H       1  LIG1        0.1424
     12 H          -1.3811    1.4718   -1.6844 H       1  LIG1        0.1424
     13 C          -2.5250   -0.6718    0.1012 C.ar    1  LIG1        0.0804
     14 C          -3.6847   -0.1666   -0.5055 C.ar    1  LIG1        0.0529
     15 C          -4.6326   -1.2328   -0.6155 C.ar    1  LIG1        0.0657
     16 C          -4.0488   -2.3730   -0.0760 C.ar    1  LIG1        0.0865
     17 N          -2.7703   -2.0004    0.3465 N.ar    1  LIG1       -0.3494
     18 H          -2.1020   -2.6271    0.7654 H       1  LIG1        0.1661
     19 S          -3.9729    1.4664   -1.1258 S.3     1  LIG1       -0.1388
     20 H          -4.3639    2.0914    0.0095 H       1  LIG1        0.1072
     21 N          -5.9203   -1.1160   -1.1261 N.pl3   1  LIG1       -0.3554
     22 H          -6.0353   -0.3192   -1.7404 H       1  LIG1        0.1424
     23 H          -6.2919   -1.9686   -1.5246 H       1  LIG1        0.1424
     24 C          -4.5329   -3.7341    0.0189 C.ar    1  LIG1        0.0804
     25 C          -5.7296   -4.2596    0.4983 C.ar    1  LIG1        0.0529
     26 C          -5.6792   -5.6825    0.3799 C.ar    1  LIG1        0.0657
     27 C          -4.4374   -6.0148   -0.1636 C.ar    1  LIG1        0.0865
     28 N          -3.7689   -4.8136   -0.3857 N.ar    1  LIG1       -0.3494
     29 H          -2.8183   -4.7480   -0.7126 H       1  LIG1        0.1661
     30 S          -7.0893   -3.3534    1.1902 S.3     1  LIG1       -0.1388
     31 H          -7.4453   -4.3497    2.0322 H       1  LIG1        0.1072
     32 N          -6.7094   -6.5189    0.8245 N.pl3   1  LIG1       -0.3554
     33 H          -7.5960   -6.3424    0.3631 H       1  LIG1        0.1424
     34 H          -6.4678   -7.5023    0.8099 H       1  LIG1        0.1424
     35 C          -3.8399   -7.2562   -0.6158 C.ar    1  LIG1        0.0799
     36 C          -3.8194   -8.5669   -0.1271 C.ar    1  LIG1        0.0522
     37 C          -3.0177   -9.3639   -1.0141 C.ar    1  LIG1        0.0561
     38 C          -2.5707   -8.5290   -2.0150 C.ar    1  LIG1        0.0241
     39 N          -3.0509   -7.2542   -1.7453 N.ar    1  LIG1       -0.3570
     40 H          -3.0858   -6.5130   -2.4275 H       1  LIG1        0.1655
     41 H          -1.9283   -8.7210   -2.8604 H       1  LIG1        0.0826
     42 S          -4.6335   -9.2115    1.3071 S.3     1  LIG1       -0.1388
     43 H          -3.7238   -8.9073    2.2627 H       1  LIG1        0.1072
     44 N          -2.6903  -10.7067   -0.8049 N.pl3   1  LIG1       -0.3560
     45 H          -3.3492  -11.1650   -0.1855 H       1  LIG1        0.1424
     46 H          -2.5753  -11.2362   -1.6598 H       1  LIG1        0.1424
@<TRIPOS>BOND
     1    41    38    1
     2    40    39    1
     3    38    39   ar
     4    38    37   ar
     5    39    35   ar
     6    22    21    1
     7    12    10    1
     8    46    44    1
     9    11    10    1
    10    23    21    1
    11    21    15    1
    12    19    14    1
    13    19    20    1
    14    10     3    1
    15    37    44    1
    16    37    36   ar
    17    44    45    1
    18    29    28    1
    19    35    27    1
    20    35    36   ar
    21    15    14   ar
    22    15    16   ar
    23    14    13   ar
    24    28    27   ar
    25    28    24   ar
    26    27    26   ar
    27    36    42    1
    28    16    24    1
    29    16    17   ar
    30     3     4   ar
    31     3     2   ar
    32    24    25   ar
    33    13    17   ar
    34    13     4    1
    35    17    18    1
    36    33    32    1
    37    26    25   ar
    38    26    32    1
    39    25    30    1
    40     8     9    1
    41     8     2    1
    42     4     5   ar
    43    34    32    1
    44     2     1   ar
    45    30    31    1
    46    42    43    1
    47     5     1   ar
    48     5     6    1
    49     1     7    1
