@<TRIPOS>MOLECULE
mol_data/opt/b3lyp/geoms/mol2/13gh13gh-13gh-.out
 35 37 0 0 0
SMALL
GASTEIGER

@<TRIPOS>ATOM
      1 C           0.8678   -0.0818    1.2499 C.ar    1  LIG1        0.0173
      2 C           0.8161    0.8946    0.2733 C.ar    1  LIG1        0.0434
      3 C          -0.4933    0.8618   -0.3112 C.ar    1  LIG1        0.0650
      4 C          -1.2089   -0.1371    0.3408 C.ar    1  LIG1        0.0860
      5 N          -0.3365   -0.7210    1.2697 N.ar    1  LIG1       -0.3570
      6 H          -0.6528   -1.3166    2.0192 H       1  LIG1        0.1655
      7 H           1.6737   -0.3513    1.9153 H       1  LIG1        0.0819
      8 S           2.1794    1.8849   -0.2779 S.3     1  LIG1       -0.1394
      9 H           1.7845    3.0775    0.2249 H       1  LIG1        0.1072
     10 N          -0.9186    1.7066   -1.3294 N.pl3   1  LIG1       -0.3554
     11 H          -0.1750    1.9535   -1.9726 H       1  LIG1        0.1424
     12 H          -1.7503    1.3898   -1.8101 H       1  LIG1        0.1424
     13 C          -2.5296   -0.6953    0.1170 C.ar    1  LIG1        0.0804
     14 C          -3.7995   -0.1207   -0.0083 C.ar    1  LIG1        0.0529
     15 C          -4.7496   -1.1735   -0.1958 C.ar    1  LIG1        0.0657
     16 C          -4.0529   -2.3768   -0.1645 C.ar    1  LIG1        0.0865
     17 N          -2.7071   -2.0530    0.0177 N.ar    1  LIG1       -0.3494
     18 H          -1.9591   -2.7274    0.0476 H       1  LIG1        0.1661
     19 S          -4.1984    1.6056    0.0326 S.3     1  LIG1       -0.1388
     20 H          -4.7426    1.6591    1.2707 H       1  LIG1        0.1072
     21 N          -6.1221   -0.9880   -0.3239 N.pl3   1  LIG1       -0.3554
     22 H          -6.3580   -0.0990   -0.7498 H       1  LIG1        0.1424
     23 H          -6.6015   -1.7620   -0.7661 H       1  LIG1        0.1424
     24 C          -4.4867   -3.7467   -0.3681 C.ar    1  LIG1        0.0799
     25 C          -5.4989   -4.5094    0.2172 C.ar    1  LIG1        0.0522
     26 C          -5.5026   -5.8008   -0.4072 C.ar    1  LIG1        0.0561
     27 C          -4.4884   -5.8008   -1.3425 C.ar    1  LIG1        0.0241
     28 N          -3.8712   -4.5599   -1.2951 N.ar    1  LIG1       -0.3570
     29 H          -3.2515   -4.2080   -2.0076 H       1  LIG1        0.1655
     30 H          -4.1366   -6.5806   -2.0006 H       1  LIG1        0.0826
     31 S          -6.5897   -4.0054    1.5212 S.3     1  LIG1       -0.1388
     32 H          -6.0993   -4.8025    2.4992 H       1  LIG1        0.1072
     33 N          -6.3249   -6.8643   -0.0169 N.pl3   1  LIG1       -0.3560
     34 H          -7.1998   -6.5320    0.3759 H       1  LIG1        0.1424
     35 H          -6.5031   -7.5291   -0.7596 H       1  LIG1        0.1424
@<TRIPOS>BOND
     1    29    28    1
     2    30    27    1
     3    11    10    1
     4    12    10    1
     5    27    28   ar
     6    27    26   ar
     7    10     3    1
     8    28    24   ar
     9    23    21    1
    10    35    33    1
    11    22    21    1
    12    26    33    1
    13    26    25   ar
    14    24    16    1
    15    24    25   ar
    16    21    15    1
    17     3     2   ar
    18     3     4   ar
    19     8     9    1
    20     8     2    1
    21    15    16   ar
    22    15    14   ar
    23    16    17   ar
    24    33    34    1
    25    14    19    1
    26    14    13   ar
    27    17    18    1
    28    17    13   ar
    29    19    20    1
    30    13     4    1
    31    25    31    1
    32     2     1   ar
    33     4     5   ar
    34     1     5   ar
    35     1     7    1
    36     5     6    1
    37    31    32    1
