@<TRIPOS>MOLECULE
mol_data/opt/b3lyp/geoms/mol2/13gh13gh13gh-13gh-.out
 46 49 0 0 0
SMALL
GASTEIGER

@<TRIPOS>ATOM
      1 C           0.5756   -0.0192    1.8310 C.ar    1  LIG1        0.0173
      2 C           0.7637    0.8872    0.8095 C.ar    1  LIG1        0.0434
      3 C          -0.4001    0.8534   -0.0331 C.ar    1  LIG1        0.0650
      4 C          -1.2720   -0.0892    0.5102 C.ar    1  LIG1        0.0860
      5 N          -0.6300   -0.6322    1.6372 N.ar    1  LIG1       -0.3570
      6 H          -1.1390   -1.0938    2.3762 H       1  LIG1        0.1655
      7 H           1.2120   -0.2574    2.6697 H       1  LIG1        0.0819
      8 S           2.2501    1.8014    0.4956 S.3     1  LIG1       -0.1394
      9 H           1.7863    3.0401    0.7801 H       1  LIG1        0.1072
     10 N          -0.5602    1.6620   -1.1447 N.pl3   1  LIG1       -0.3554
     11 H           0.2891    1.8100   -1.6755 H       1  LIG1        0.1424
     12 H          -1.3766    1.4760   -1.7092 H       1  LIG1        0.1424
     13 C          -2.5232   -0.6721    0.0693 C.ar    1  LIG1        0.0804
     14 C          -3.6820   -0.1643   -0.5368 C.ar    1  LIG1        0.0529
     15 C          -4.6306   -1.2295   -0.6505 C.ar    1  LIG1        0.0657
     16 C          -4.0481   -2.3716   -0.1138 C.ar    1  LIG1        0.0865
     17 N          -2.7696   -2.0013    0.3107 N.ar    1  LIG1       -0.3494
     18 H          -2.1022   -2.6296    0.7285 H       1  LIG1        0.1661
     19 S          -3.9685    1.4707   -1.1525 S.3     1  LIG1       -0.1388
     20 H          -4.3600    2.0926   -0.0157 H       1  LIG1        0.1072
     21 N          -5.9178   -1.1102   -1.1618 N.pl3   1  LIG1       -0.3554
     22 H          -6.0317   -0.3119   -1.7743 H       1  LIG1        0.1424
     23 H          -6.2900   -1.9615   -1.5624 H       1  LIG1        0.1424
     24 C          -4.5333   -3.7326   -0.0231 C.ar    1  LIG1        0.0804
     25 C          -5.7309   -4.2584    0.4540 C.ar    1  LIG1        0.0529
     26 C          -5.6814   -5.6810    0.3319 C.ar    1  LIG1        0.0657
     27 C          -4.4395   -6.0129   -0.2114 C.ar    1  LIG1        0.0865
     28 N          -3.7698   -4.8116   -0.4297 N.ar    1  LIG1       -0.3494
     29 H          -2.8191   -4.7459   -0.7564 H       1  LIG1        0.1661
     30 S          -7.0903   -3.3530    1.1473 S.3     1  LIG1       -0.1388
     31 H          -7.4478   -4.3514    1.9863 H       1  LIG1        0.1072
     32 N          -6.7127   -6.5179    0.7735 N.pl3   1  LIG1       -0.3554
     33 H          -7.5986   -6.3397    0.3116 H       1  LIG1        0.1424
     34 H          -6.4717   -7.5013    0.7567 H       1  LIG1        0.1424
     35 C          -3.8426   -7.2535   -0.6665 C.ar    1  LIG1        0.0799
     36 C          -3.8234   -8.5655   -0.1812 C.ar    1  LIG1        0.0522
     37 C          -3.0218   -9.3608   -1.0696 C.ar    1  LIG1        0.0561
     38 C          -2.5736   -8.5237   -2.0682 C.ar    1  LIG1        0.0241
     39 N          -3.0530   -7.2492   -1.7955 N.ar    1  LIG1       -0.3570
     40 H          -3.0869   -6.5063   -2.4758 H       1  LIG1        0.1655
     41 H          -1.9308   -8.7141   -2.9136 H       1  LIG1        0.0826
     42 S          -4.6388   -9.2132    1.2511 S.3     1  LIG1       -0.1388
     43 H          -3.7296   -8.9116    2.2080 H       1  LIG1        0.1072
     44 N          -2.6955  -10.7045   -0.8638 N.pl3   1  LIG1       -0.3560
     45 H          -3.3549  -11.1637   -0.2454 H       1  LIG1        0.1424
     46 H          -2.5811  -11.2320   -1.7199 H       1  LIG1        0.1424
@<TRIPOS>BOND
     1    41    38    1
     2    40    39    1
     3    38    39   ar
     4    38    37   ar
     5    39    35   ar
     6    22    21    1
     7    46    44    1
     8    12    10    1
     9    11    10    1
    10    23    21    1
    11    21    15    1
    12    19    14    1
    13    19    20    1
    14    10     3    1
    15    37    44    1
    16    37    36   ar
    17    44    45    1
    18    29    28    1
    19    35    27    1
    20    35    36   ar
    21    15    14   ar
    22    15    16   ar
    23    14    13   ar
    24    28    27   ar
    25    28    24   ar
    26    27    26   ar
    27    36    42    1
    28    16    24    1
    29    16    17   ar
    30     3     4   ar
    31     3     2   ar
    32    24    25   ar
    33    13    17   ar
    34    13     4    1
    35    17    18    1
    36    33    32    1
    37    26    25   ar
    38    26    32    1
    39    25    30    1
    40     8     9    1
    41     8     2    1
    42     4     5   ar
    43    34    32    1
    44     2     1   ar
    45    30    31    1
    46    42    43    1
    47     5     1   ar
    48     5     6    1
    49     1     7    1
