@<TRIPOS>MOLECULE
mol_data/opt/b3lyp/geoms/mol2/13gh13gh13gh-.out
 35 37 0 0 0
SMALL
GASTEIGER

@<TRIPOS>ATOM
      1 C           0.8687   -0.0937    1.2521 C.ar    1  LIG1        0.0173
      2 C           0.8169    0.8909    0.2838 C.ar    1  LIG1        0.0434
      3 C          -0.4926    0.8628   -0.3009 C.ar    1  LIG1        0.0650
      4 C          -1.2080   -0.1415    0.3428 C.ar    1  LIG1        0.0860
      5 N          -0.3355   -0.7332    1.2666 N.ar    1  LIG1       -0.3570
      6 H          -0.6516   -1.3352    2.0110 H       1  LIG1        0.1655
      7 H           1.6747   -0.3689    1.9151 H       1  LIG1        0.0819
      8 S           2.1801    1.8858   -0.2593 S.3     1  LIG1       -0.1394
      9 H           1.7854    3.0740    0.2539 H       1  LIG1        0.1072
     10 N          -0.9182    1.7160   -1.3120 N.pl3   1  LIG1       -0.3554
     11 H          -0.1745    1.9690   -1.9527 H       1  LIG1        0.1424
     12 H          -1.7492    1.4022   -1.7959 H       1  LIG1        0.1424
     13 C          -2.5289   -0.6973    0.1145 C.ar    1  LIG1        0.0804
     14 C          -3.7986   -0.1211   -0.0045 C.ar    1  LIG1        0.0529
     15 C          -4.7492   -1.1717   -0.2020 C.ar    1  LIG1        0.0657
     16 C          -4.0529   -2.3754   -0.1829 C.ar    1  LIG1        0.0865
     17 N          -2.7070   -2.0539    0.0018 N.ar    1  LIG1       -0.3494
     18 H          -1.9592   -2.7290    0.0252 H       1  LIG1        0.1661
     19 S          -4.1967    1.6049    0.0536 S.3     1  LIG1       -0.1388
     20 H          -4.7444    1.6451    1.2906 H       1  LIG1        0.1072
     21 N          -6.1217   -0.9843   -0.3278 N.pl3   1  LIG1       -0.3554
     22 H          -6.3573   -0.0914   -0.7457 H       1  LIG1        0.1424
     23 H          -6.6017   -1.7540   -0.7767 H       1  LIG1        0.1424
     24 C          -4.4874   -3.7432   -0.3997 C.ar    1  LIG1        0.0799
     25 C          -5.4998   -4.5111    0.1782 C.ar    1  LIG1        0.0522
     26 C          -5.5040   -5.7964   -0.4587 C.ar    1  LIG1        0.0561
     27 C          -4.4900   -5.7876   -1.3942 C.ar    1  LIG1        0.0241
     28 N          -3.8723   -4.5474   -1.3347 N.ar    1  LIG1       -0.3570
     29 H          -3.2525   -4.1888   -2.0438 H       1  LIG1        0.1655
     30 H          -4.1386   -6.5611   -2.0599 H       1  LIG1        0.0826
     31 S          -6.5902   -4.0196    1.4873 S.3     1  LIG1       -0.1388
     32 H          -6.0997   -4.8261    2.4574 H       1  LIG1        0.1072
     33 N          -6.3267   -6.8633   -0.0788 N.pl3   1  LIG1       -0.3560
     34 H          -7.2014   -6.5346    0.3172 H       1  LIG1        0.1424
     35 H          -6.5049   -7.5210   -0.8278 H       1  LIG1        0.1424
@<TRIPOS>BOND
     1    30    27    1
     2    29    28    1
     3    11    10    1
     4    12    10    1
     5    27    28   ar
     6    27    26   ar
     7    28    24   ar
     8    10     3    1
     9    35    33    1
    10    23    21    1
    11    22    21    1
    12    26    33    1
    13    26    25   ar
    14    24    16    1
    15    24    25   ar
    16    21    15    1
    17     3     2   ar
    18     3     4   ar
    19     8     9    1
    20     8     2    1
    21    15    16   ar
    22    15    14   ar
    23    16    17   ar
    24    33    34    1
    25    14    19    1
    26    14    13   ar
    27    17    18    1
    28    17    13   ar
    29    19    20    1
    30    13     4    1
    31    25    31    1
    32     2     1   ar
    33     4     5   ar
    34     1     5   ar
    35     1     7    1
    36     5     6    1
    37    31    32    1
