@<TRIPOS>MOLECULE
mol_data/opt/b3lyp/geoms/mol2/13gh13gh-13gh-13gh-.out
 46 49 0 0 0
SMALL
GASTEIGER

@<TRIPOS>ATOM
      1 C           0.6040   -0.0197    1.8075 C.ar    1  LIG1        0.0173
      2 C           0.7816    0.8830    0.7808 C.ar    1  LIG1        0.0434
      3 C          -0.3922    0.8485   -0.0478 C.ar    1  LIG1        0.0650
      4 C          -1.2593   -0.0906    0.5090 C.ar    1  LIG1        0.0860
      5 N          -0.6049   -0.6309    1.6301 N.ar    1  LIG1       -0.3570
      6 H          -1.1057   -1.0900    2.3763 H       1  LIG1        0.1655
      7 H           1.2498   -0.2560    2.6395 H       1  LIG1        0.0819
      8 S           2.2658    1.7934    0.4463 S.3     1  LIG1       -0.1394
      9 H           1.8074    3.0340    0.7312 H       1  LIG1        0.1072
     10 N          -0.5639    1.6537   -1.1601 N.pl3   1  LIG1       -0.3554
     11 H           0.2793    1.7990   -1.7011 H       1  LIG1        0.1424
     12 H          -1.3871    1.4671   -1.7145 H       1  LIG1        0.1424
     13 C          -2.5164   -0.6730    0.0846 C.ar    1  LIG1        0.0804
     14 C          -3.6816   -0.1650   -0.5090 C.ar    1  LIG1        0.0529
     15 C          -4.6330   -1.2292   -0.6088 C.ar    1  LIG1        0.0657
     16 C          -4.0458   -2.3708   -0.0760 C.ar    1  LIG1        0.0865
     17 N          -2.7619   -2.0011    0.3325 N.ar    1  LIG1       -0.3494
     18 H          -2.0902   -2.6294    0.7432 H       1  LIG1        0.1661
     19 S          -3.9729    1.4686   -1.1257 S.3     1  LIG1       -0.1388
     20 H          -4.3492    2.0945    0.0140 H       1  LIG1        0.1072
     21 N          -5.9261   -1.1093   -1.1049 N.pl3   1  LIG1       -0.3554
     22 H          -6.0460   -0.3127   -1.7184 H       1  LIG1        0.1424
     23 H          -6.3044   -1.9612   -1.4984 H       1  LIG1        0.1424
     24 C          -4.5319   -3.7308    0.0242 C.ar    1  LIG1        0.0804
     25 C          -5.7241   -4.2537    0.5175 C.ar    1  LIG1        0.0529
     26 C          -5.6786   -5.6766    0.3980 C.ar    1  LIG1        0.0657
     27 C          -4.4441   -6.0117   -0.1602 C.ar    1  LIG1        0.0865
     28 N          -3.7754   -4.8120   -0.3897 N.ar    1  LIG1       -0.3494
     29 H          -2.8286   -4.7485   -0.7279 H       1  LIG1        0.1661
     30 S          -7.0736   -3.3444    1.2256 S.3     1  LIG1       -0.1388
     31 H          -7.4218   -4.3398    2.0720 H       1  LIG1        0.1072
     32 N          -6.7055   -6.5108    0.8543 N.pl3   1  LIG1       -0.3554
     33 H          -7.5971   -6.3320    0.4037 H       1  LIG1        0.1424
     34 H          -6.4664   -7.4947    0.8370 H       1  LIG1        0.1424
     35 C          -3.8550   -7.2544   -0.6201 C.ar    1  LIG1        0.0799
     36 C          -3.8323   -8.5654   -0.1325 C.ar    1  LIG1        0.0522
     37 C          -3.0431   -9.3639   -1.0292 C.ar    1  LIG1        0.0561
     38 C          -2.6056   -8.5296   -2.0348 C.ar    1  LIG1        0.0241
     39 N          -3.0793   -7.2537   -1.7587 N.ar    1  LIG1       -0.3570
     40 H          -3.1205   -6.5121   -2.4402 H       1  LIG1        0.1655
     41 H          -1.9735   -8.7228   -2.8876 H       1  LIG1        0.0826
     42 S          -4.6309   -9.2087    1.3109 S.3     1  LIG1       -0.1388
     43 H          -3.7092   -8.9071    2.2558 H       1  LIG1        0.1072
     44 N          -2.7168  -10.7078   -0.8248 N.pl3   1  LIG1       -0.3560
     45 H          -3.3689  -11.1644   -0.1969 H       1  LIG1        0.1424
     46 H          -2.6148  -11.2374   -1.6813 H       1  LIG1        0.1424
@<TRIPOS>BOND
     1    41    38    1
     2    40    39    1
     3    38    39   ar
     4    38    37   ar
     5    39    35   ar
     6    22    21    1
     7    12    10    1
     8    11    10    1
     9    46    44    1
    10    23    21    1
    11    10     3    1
    12    19    14    1
    13    19    20    1
    14    21    15    1
    15    37    44    1
    16    37    36   ar
    17    44    45    1
    18    29    28    1
    19    35    27    1
    20    35    36   ar
    21    15    14   ar
    22    15    16   ar
    23    14    13   ar
    24    28    27   ar
    25    28    24   ar
    26    27    26   ar
    27    36    42    1
    28    16    24    1
    29    16    17   ar
    30     3     4   ar
    31     3     2   ar
    32    24    25   ar
    33    13    17   ar
    34    13     4    1
    35    17    18    1
    36    26    25   ar
    37    26    32    1
    38    33    32    1
    39     8     9    1
    40     8     2    1
    41     4     5   ar
    42    25    30    1
    43     2     1   ar
    44    34    32    1
    45    30    31    1
    46    42    43    1
    47     5     1   ar
    48     5     6    1
    49     1     7    1
