@<TRIPOS>MOLECULE
mol_data/opt/b3lyp/geoms/mol2/13gh13gh-13gh.out
 35 37 0 0 0
SMALL
GASTEIGER

@<TRIPOS>ATOM
      1 C           0.9048   -0.2769    1.0324 C.ar    1  LIG1        0.0173
      2 C           0.8191    0.8622    0.2604 C.ar    1  LIG1        0.0434
      3 C          -0.5235    0.9566   -0.2434 C.ar    1  LIG1        0.0650
      4 C          -1.2226   -0.1469    0.2443 C.ar    1  LIG1        0.0860
      5 N          -0.3087   -0.9029    0.9990 N.ar    1  LIG1       -0.3570
      6 H          -0.6068   -1.5702    1.6946 H       1  LIG1        0.1655
      7 H           1.7379   -0.6697    1.5952 H       1  LIG1        0.0819
      8 S           2.1705    1.9254   -0.1724 S.3     1  LIG1       -0.1394
      9 H           1.7941    3.0211    0.5262 H       1  LIG1        0.1072
     10 N          -0.9670    2.0005   -1.0368 N.pl3   1  LIG1       -0.3554
     11 H          -0.2842    2.3290   -1.7082 H       1  LIG1        0.1424
     12 H          -1.9016    1.9046   -1.4070 H       1  LIG1        0.1424
     13 C          -2.5453   -0.6880    0.0035 C.ar    1  LIG1        0.0804
     14 C          -3.8217   -0.1274   -0.1551 C.ar    1  LIG1        0.0529
     15 C          -4.7664   -1.1949   -0.2866 C.ar    1  LIG1        0.0657
     16 C          -4.0632   -2.3905   -0.2031 C.ar    1  LIG1        0.0865
     17 N          -2.7201   -2.0488   -0.0258 N.ar    1  LIG1       -0.3494
     18 H          -1.9664   -2.7167    0.0026 H       1  LIG1        0.1661
     19 S          -4.2589    1.5847   -0.2613 S.3     1  LIG1       -0.1388
     20 H          -4.3700    1.8892    1.0529 H       1  LIG1        0.1072
     21 N          -6.1402   -1.0348   -0.4228 N.pl3   1  LIG1       -0.3554
     22 H          -6.3997   -0.1421   -0.8239 H       1  LIG1        0.1424
     23 H          -6.6051   -1.8115   -0.8747 H       1  LIG1        0.1424
     24 C          -4.4878   -3.7698   -0.3497 C.ar    1  LIG1        0.0799
     25 C          -5.4967   -4.5109    0.2670 C.ar    1  LIG1        0.0522
     26 C          -5.4975   -5.8263   -0.3048 C.ar    1  LIG1        0.0561
     27 C          -4.4837   -5.8621   -1.2396 C.ar    1  LIG1        0.0241
     28 N          -3.8686   -4.6189   -1.2429 N.ar    1  LIG1       -0.3570
     29 H          -3.2597   -4.2923   -1.9765 H       1  LIG1        0.1655
     30 H          -4.1298   -6.6680   -1.8644 H       1  LIG1        0.0826
     31 S          -6.5842   -3.9566    1.5535 S.3     1  LIG1       -0.1388
     32 H          -6.1325   -4.7677    2.5385 H       1  LIG1        0.1072
     33 N          -6.3168   -6.8749    0.1313 N.pl3   1  LIG1       -0.3560
     34 H          -7.2007   -6.5296    0.4916 H       1  LIG1        0.1424
     35 H          -6.4788   -7.5795   -0.5778 H       1  LIG1        0.1424
@<TRIPOS>BOND
     1    29    28    1
     2    30    27    1
     3    11    10    1
     4    12    10    1
     5    28    27   ar
     6    28    24   ar
     7    27    26   ar
     8    10     3    1
     9    23    21    1
    10    22    21    1
    11    35    33    1
    12    21    15    1
    13    24    16    1
    14    24    25   ar
    15    26    33    1
    16    26    25   ar
    17    15    16   ar
    18    15    14   ar
    19    19    14    1
    20    19    20    1
    21     3     4   ar
    22     3     2   ar
    23    16    17   ar
    24     8     2    1
    25     8     9    1
    26    14    13   ar
    27    17    18    1
    28    17    13   ar
    29    13     4    1
    30    33    34    1
    31     4     5   ar
    32     2     1   ar
    33    25    31    1
    34     5     1   ar
    35     5     6    1
    36     1     7    1
    37    31    32    1
