@<TRIPOS>MOLECULE
mol_data/opt/b3lyp/geoms/mol2/13gh13gh13gh13gh.out
 46 49 0 0 0
SMALL
GASTEIGER

@<TRIPOS>ATOM
      1 C           0.5648   -0.0158    1.8562 C.ar    1  LIG1        0.0173
      2 C           0.7613    0.8863    0.8324 C.ar    1  LIG1        0.0434
      3 C          -0.3967    0.8506   -0.0183 C.ar    1  LIG1        0.0650
      4 C          -1.2736   -0.0886    0.5227 C.ar    1  LIG1        0.0860
      5 N          -0.6402   -0.6280    1.6564 N.ar    1  LIG1       -0.3570
      6 H          -1.1554   -1.0850    2.3941 H       1  LIG1        0.1655
      7 H           1.1948   -0.2512    2.7004 H       1  LIG1        0.0819
      8 S           2.2512    1.7968    0.5250 S.3     1  LIG1       -0.1394
      9 H           1.7875    3.0374    0.8011 H       1  LIG1        0.1072
     10 N          -0.5478    1.6549   -1.1341 N.pl3   1  LIG1       -0.3554
     11 H           0.3053    1.8001   -1.6594 H       1  LIG1        0.1424
     12 H          -1.3606    1.4679   -1.7036 H       1  LIG1        0.1424
     13 C          -2.5221   -0.6722    0.0750 C.ar    1  LIG1        0.0804
     14 C          -3.6760   -0.1657   -0.5416 C.ar    1  LIG1        0.0529
     15 C          -4.6247   -1.2305   -0.6580 C.ar    1  LIG1        0.0657
     16 C          -4.0472   -2.3710   -0.1126 C.ar    1  LIG1        0.0865
     17 N          -2.7714   -2.0002    0.3196 N.ar    1  LIG1       -0.3494
     18 H          -2.1080   -2.6271    0.7457 H       1  LIG1        0.1661
     19 S          -3.9565    1.4671   -1.1659 S.3     1  LIG1       -0.1388
     20 H          -4.3560    2.0938   -0.0345 H       1  LIG1        0.1072
     21 N          -5.9081   -1.1122   -1.1793 N.pl3   1  LIG1       -0.3554
     22 H          -6.0165   -0.3167   -1.7964 H       1  LIG1        0.1424
     23 H          -6.2782   -1.9650   -1.5786 H       1  LIG1        0.1424
     24 C          -4.5342   -3.7312   -0.0203 C.ar    1  LIG1        0.0804
     25 C          -5.7360   -4.2542    0.4492 C.ar    1  LIG1        0.0529
     26 C          -5.6869   -5.6772    0.3331 C.ar    1  LIG1        0.0657
     27 C          -4.4410   -6.0123   -0.1992 C.ar    1  LIG1        0.0865
     28 N          -3.7686   -4.8125   -0.4168 N.ar    1  LIG1       -0.3494
     29 H          -2.8151   -4.7489   -0.7358 H       1  LIG1        0.1661
     30 S          -7.1000   -3.3449    1.1286 S.3     1  LIG1       -0.1388
     31 H          -7.4653   -4.3400    1.9680 H       1  LIG1        0.1072
     32 N          -6.7225   -6.5114    0.7696 N.pl3   1  LIG1       -0.3554
     33 H          -7.6045   -6.3343    0.2998 H       1  LIG1        0.1424
     34 H          -6.4823   -7.4951    0.7589 H       1  LIG1        0.1424
     35 C          -3.8415   -7.2553   -0.6444 C.ar    1  LIG1        0.0799
     36 C          -3.8275   -8.5654   -0.1539 C.ar    1  LIG1        0.0522
     37 C          -3.0191   -9.3647   -1.0326 C.ar    1  LIG1        0.0561
     38 C          -2.5617   -8.5318   -2.0305 C.ar    1  LIG1        0.0241
     39 N          -3.0425   -7.2560   -1.7668 N.ar    1  LIG1       -0.3570
     40 H          -3.0697   -6.5155   -2.4501 H       1  LIG1        0.1655
     41 H          -1.9121   -8.7260   -2.8698 H       1  LIG1        0.0826
     42 S          -4.6554   -9.2069    1.2738 S.3     1  LIG1       -0.1388
     43 H          -3.7535   -8.9035    2.2370 H       1  LIG1        0.1072
     44 N          -2.6957  -10.7079   -0.8190 N.pl3   1  LIG1       -0.3560
     45 H          -3.3602  -11.1638   -0.2036 H       1  LIG1        0.1424
     46 H          -2.5761  -11.2390   -1.6722 H       1  LIG1        0.1424
@<TRIPOS>BOND
     1    41    38    1
     2    40    39    1
     3    38    39   ar
     4    38    37   ar
     5    22    21    1
     6    39    35   ar
     7    12    10    1
     8    46    44    1
     9    11    10    1
    10    23    21    1
    11    21    15    1
    12    19    14    1
    13    19    20    1
    14    10     3    1
    15    37    44    1
    16    37    36   ar
    17    44    45    1
    18    29    28    1
    19    15    14   ar
    20    15    16   ar
    21    35    27    1
    22    35    36   ar
    23    14    13   ar
    24    28    27   ar
    25    28    24   ar
    26    27    26   ar
    27    36    42    1
    28    16    24    1
    29    16    17   ar
    30    24    25   ar
    31     3     4   ar
    32     3     2   ar
    33    13    17   ar
    34    13     4    1
    35    33    32    1
    36    17    18    1
    37    26    25   ar
    38    26    32    1
    39    25    30    1
    40     4     5   ar
    41     8     9    1
    42     8     2    1
    43    34    32    1
    44     2     1   ar
    45    30    31    1
    46    42    43    1
    47     5     1   ar
    48     5     6    1
    49     1     7    1
