@<TRIPOS>MOLECULE
mol_data/opt/b3lyp/geoms/mol2/13gh13gh-.out
 24 25 0 0 0
SMALL
GASTEIGER

@<TRIPOS>ATOM
      1 C           1.0723   -0.2900    0.3557 C.ar    1  LIG1        0.0173
      2 C           0.7646    0.9517   -0.1611 C.ar    1  LIG1        0.0434
      3 C          -0.6543    1.0013   -0.3799 C.ar    1  LIG1        0.0650
      4 C          -1.1735   -0.2301    0.0174 C.ar    1  LIG1        0.0860
      5 N          -0.0841   -1.0108    0.4359 N.ar    1  LIG1       -0.3570
      6 H          -0.1965   -1.8327    1.0094 H       1  LIG1        0.1655
      7 H           2.0240   -0.6932    0.6664 H       1  LIG1        0.0819
      8 S           1.9353    2.1968   -0.6323 S.3     1  LIG1       -0.1394
      9 H           1.6408    3.1180    0.3139 H       1  LIG1        0.1072
     10 N          -1.3142    2.1172   -0.8689 N.pl3   1  LIG1       -0.3554
     11 H          -0.8004    2.6148   -1.5859 H       1  LIG1        0.1424
     12 H          -2.2915    1.9826   -1.0856 H       1  LIG1        0.1424
     13 C          -2.4848   -0.8426   -0.0627 C.ar    1  LIG1        0.0799
     14 C          -3.7943   -0.3826    0.1159 C.ar    1  LIG1        0.0522
     15 C          -4.6875   -1.4937   -0.0680 C.ar    1  LIG1        0.0561
     16 C          -3.9109   -2.5954   -0.3525 C.ar    1  LIG1        0.0241
     17 N          -2.5820   -2.1928   -0.3174 N.ar    1  LIG1       -0.3570
     18 H          -1.8217   -2.7218   -0.7144 H       1  LIG1        0.1655
     19 H          -4.1827   -3.6245   -0.5293 H       1  LIG1        0.0826
     20 S          -4.3397    1.2638    0.4737 S.3     1  LIG1       -0.1388
     21 H          -4.1593    1.2949    1.8151 H       1  LIG1        0.1072
     22 N          -6.0731   -1.4453    0.1190 N.pl3   1  LIG1       -0.3560
     23 H          -6.4253   -0.4956    0.0713 H       1  LIG1        0.1424
     24 H          -6.5892   -2.0487   -0.5087 H       1  LIG1        0.1424
@<TRIPOS>BOND
     1    11    10    1
     2    12    10    1
     3    10     3    1
     4    18    17    1
     5     8     2    1
     6     8     9    1
     7    19    16    1
     8    24    22    1
     9     3     2   ar
    10     3     4   ar
    11    16    17   ar
    12    16    15   ar
    13    17    13   ar
    14     2     1   ar
    15    15    14   ar
    16    15    22    1
    17    13     4    1
    18    13    14   ar
    19     4     5   ar
    20    23    22    1
    21    14    20    1
    22     1     5   ar
    23     1     7    1
    24     5     6    1
    25    20    21    1
