@<TRIPOS>MOLECULE
mol_data/opt/b3lyp/geoms/mol2/13gh13gh-13gh-13gh.out
 46 49 0 0 0
SMALL
GASTEIGER

@<TRIPOS>ATOM
      1 C           0.5743    0.0033    1.8213 C.ar    1  LIG1        0.0173
      2 C           0.7612    0.8987    0.7898 C.ar    1  LIG1        0.0434
      3 C          -0.4033    0.8552   -0.0514 C.ar    1  LIG1        0.0650
      4 C          -1.2744   -0.0817    0.5029 C.ar    1  LIG1        0.0860
      5 N          -0.6312   -0.6121    1.6353 N.ar    1  LIG1       -0.3570
      6 H          -1.1395   -1.0655    2.3798 H       1  LIG1        0.1655
      7 H           1.2114   -0.2252    2.6621 H       1  LIG1        0.0819
      8 S           2.2472    1.8094    0.4644 S.3     1  LIG1       -0.1394
      9 H           1.7840    3.0511    0.7363 H       1  LIG1        0.1072
     10 N          -0.5647    1.6516   -1.1715 N.pl3   1  LIG1       -0.3554
     11 H           0.2840    1.7945   -1.7046 H       1  LIG1        0.1424
     12 H          -1.3815    1.4589   -1.7334 H       1  LIG1        0.1424
     13 C          -2.5254   -0.6703    0.0692 C.ar    1  LIG1        0.0804
     14 C          -3.6850   -0.1699   -0.5416 C.ar    1  LIG1        0.0529
     15 C          -4.6329   -1.2370   -0.6433 C.ar    1  LIG1        0.0657
     16 C          -4.0492   -2.3728   -0.0947 C.ar    1  LIG1        0.0865
     17 N          -2.7707   -1.9969    0.3249 N.ar    1  LIG1       -0.3494
     18 H          -2.1027   -2.6201    0.7495 H       1  LIG1        0.1661
     19 S          -3.9730    1.4581   -1.1753 S.3     1  LIG1       -0.1388
     20 H          -4.3638    2.0924   -0.0452 H       1  LIG1        0.1072
     21 N          -5.9205   -1.1240   -1.1549 N.pl3   1  LIG1       -0.3554
     22 H          -6.0351   -0.3331   -1.7768 H       1  LIG1        0.1424
     23 H          -6.2930   -1.9801   -1.5448 H       1  LIG1        0.1424
     24 C          -4.5332   -3.7332    0.0111 C.ar    1  LIG1        0.0804
     25 C          -5.7298   -4.2550    0.4947 C.ar    1  LIG1        0.0529
     26 C          -5.6794   -5.6787    0.3875 C.ar    1  LIG1        0.0657
     27 C          -4.4377   -6.0153   -0.1534 C.ar    1  LIG1        0.0865
     28 N          -3.7692   -4.8159   -0.3851 N.ar    1  LIG1       -0.3494
     29 H          -2.8185   -4.7528   -0.7121 H       1  LIG1        0.1661
     30 S          -7.0897   -3.3433    1.1795 S.3     1  LIG1       -0.1388
     31 H          -7.4464   -4.3335    2.0283 H       1  LIG1        0.1072
     32 N          -6.7097   -6.5116    0.8386 N.pl3   1  LIG1       -0.3554
     33 H          -7.5960   -6.3394    0.3749 H       1  LIG1        0.1424
     34 H          -6.4678   -7.4950    0.8327 H       1  LIG1        0.1424
     35 C          -3.8401   -7.2603   -0.5957 C.ar    1  LIG1        0.0799
     36 C          -3.8196   -8.5670   -0.0965 C.ar    1  LIG1        0.0522
     37 C          -3.0180   -9.3711   -0.9771 C.ar    1  LIG1        0.0561
     38 C          -2.5711   -8.5442   -1.9848 C.ar    1  LIG1        0.0241
     39 N          -3.0514   -7.2674   -1.7253 N.ar    1  LIG1       -0.3570
     40 H          -3.0855   -6.5313   -2.4130 H       1  LIG1        0.1655
     41 H          -1.9286   -8.7431   -2.8285 H       1  LIG1        0.0826
     42 S          -4.6334   -9.1999    1.3430 S.3     1  LIG1       -0.1388
     43 H          -3.7237   -8.8877    2.2960 H       1  LIG1        0.1072
     44 N          -2.6906  -10.7123   -0.7574 N.pl3   1  LIG1       -0.3560
     45 H          -3.3489  -11.1652   -0.1334 H       1  LIG1        0.1424
     46 H          -2.5771  -11.2488   -1.6081 H       1  LIG1        0.1424
@<TRIPOS>BOND
     1    41    38    1
     2    40    39    1
     3    38    39   ar
     4    38    37   ar
     5    22    21    1
     6    12    10    1
     7    39    35   ar
     8    11    10    1
     9    46    44    1
    10    23    21    1
    11    19    14    1
    12    19    20    1
    13    10     3    1
    14    21    15    1
    15    37    44    1
    16    37    36   ar
    17    44    45    1
    18    29    28    1
    19    15    14   ar
    20    15    16   ar
    21    35    27    1
    22    35    36   ar
    23    14    13   ar
    24    28    27   ar
    25    28    24   ar
    26    27    26   ar
    27    36    42    1
    28    16    24    1
    29    16    17   ar
    30     3     4   ar
    31     3     2   ar
    32    24    25   ar
    33    13    17   ar
    34    13     4    1
    35    17    18    1
    36    33    32    1
    37    26    25   ar
    38    26    32    1
    39     8     9    1
    40     8     2    1
    41    25    30    1
    42     4     5   ar
    43     2     1   ar
    44    34    32    1
    45    30    31    1
    46    42    43    1
    47     5     1   ar
    48     5     6    1
    49     1     7    1
