@<TRIPOS>MOLECULE
mol_data/opt/b3lyp/geoms/mol2/13gh13gh13gh.out
 35 37 0 0 0
SMALL
GASTEIGER

@<TRIPOS>ATOM
      1 C           0.8952   -0.2842    1.0630 C.ar    1  LIG1        0.0173
      2 C           0.8170    0.8588    0.2958 C.ar    1  LIG1        0.0434
      3 C          -0.5211    0.9564   -0.2197 C.ar    1  LIG1        0.0650
      4 C          -1.2251   -0.1492    0.2565 C.ar    1  LIG1        0.0860
      5 N          -0.3183   -0.9094    1.0156 N.ar    1  LIG1       -0.3570
      6 H          -0.6230   -1.5795    1.7056 H       1  LIG1        0.1655
      7 H           1.7230   -0.6800    1.6314 H       1  LIG1        0.0819
      8 S           2.1727    1.9233   -0.1197 S.3     1  LIG1       -0.1394
      9 H           1.7911    3.0155    0.5815 H       1  LIG1        0.1072
     10 N          -0.9568    2.0041   -1.0119 N.pl3   1  LIG1       -0.3554
     11 H          -0.2676    2.3369   -1.6745 H       1  LIG1        0.1424
     12 H          -1.8881    1.9111   -1.3909 H       1  LIG1        0.1424
     13 C          -2.5457   -0.6885    0.0007 C.ar    1  LIG1        0.0804
     14 C          -3.8202   -0.1264   -0.1673 C.ar    1  LIG1        0.0529
     15 C          -4.7642   -1.1929   -0.3124 C.ar    1  LIG1        0.0657
     16 C          -4.0624   -2.3892   -0.2281 C.ar    1  LIG1        0.0865
     17 N          -2.7208   -2.0490   -0.0367 N.ar    1  LIG1       -0.3494
     18 H          -1.9678   -2.7175   -0.0037 H       1  LIG1        0.1661
     19 S          -4.2557    1.5863   -0.2691 S.3     1  LIG1       -0.1388
     20 H          -4.3785    1.8844    1.0456 H       1  LIG1        0.1072
     21 N          -6.1366   -1.0314   -0.4609 N.pl3   1  LIG1       -0.3554
     22 H          -6.3919   -0.1368   -0.8606 H       1  LIG1        0.1424
     23 H          -6.5977   -1.8059   -0.9203 H       1  LIG1        0.1424
     24 C          -4.4862   -3.7676   -0.3853 C.ar    1  LIG1        0.0799
     25 C          -5.5012   -4.5112    0.2180 C.ar    1  LIG1        0.0522
     26 C          -5.4972   -5.8238   -0.3602 C.ar    1  LIG1        0.0561
     27 C          -4.4745   -5.8555   -1.2855 C.ar    1  LIG1        0.0241
     28 N          -3.8587   -4.6126   -1.2766 N.ar    1  LIG1       -0.3570
     29 H          -3.2431   -4.2826   -2.0030 H       1  LIG1        0.1655
     30 H          -4.1148   -6.6585   -1.9105 H       1  LIG1        0.0826
     31 S          -6.6009   -3.9627    1.4967 S.3     1  LIG1       -0.1388
     32 H          -6.1581   -4.7774    2.4827 H       1  LIG1        0.1072
     33 N          -6.3211   -6.8741    0.0627 N.pl3   1  LIG1       -0.3560
     34 H          -7.2082   -6.5303    0.4165 H       1  LIG1        0.1424
     35 H          -6.4765   -7.5752   -0.6512 H       1  LIG1        0.1424
@<TRIPOS>BOND
     1    29    28    1
     2    30    27    1
     3    11    10    1
     4    12    10    1
     5    27    28   ar
     6    27    26   ar
     7    28    24   ar
     8    10     3    1
     9    23    21    1
    10    22    21    1
    11    35    33    1
    12    21    15    1
    13    24    16    1
    14    24    25   ar
    15    26    33    1
    16    26    25   ar
    17    15    16   ar
    18    15    14   ar
    19    19    14    1
    20    19    20    1
    21    16    17   ar
    22     3     4   ar
    23     3     2   ar
    24    14    13   ar
    25     8     2    1
    26     8     9    1
    27    17    18    1
    28    17    13   ar
    29    13     4    1
    30    33    34    1
    31    25    31    1
    32     4     5   ar
    33     2     1   ar
    34     5     1   ar
    35     5     6    1
    36     1     7    1
    37    31    32    1
