@<TRIPOS>MOLECULE
mol_data/opt/b3lyp/geoms/mol2/13gh13gh.out
 24 25 0 0 0
SMALL
GASTEIGER

@<TRIPOS>ATOM
      1 C           1.0556   -0.2935    0.4634 C.ar    1  LIG1        0.0173
      2 C           0.7599    0.9635   -0.0224 C.ar    1  LIG1        0.0434
      3 C          -0.6509    1.0154   -0.2876 C.ar    1  LIG1        0.0650
      4 C          -1.1775   -0.2303    0.0506 C.ar    1  LIG1        0.0860
      5 N          -0.0995   -1.0205    0.4805 N.ar    1  LIG1       -0.3570
      6 H          -0.2274   -1.8622    1.0209 H       1  LIG1        0.1655
      7 H           1.9981   -0.7036    0.7930 H       1  LIG1        0.0819
      8 S           1.9404    2.2279   -0.4117 S.3     1  LIG1       -0.1394
      9 H           1.6117    3.1148    0.5557 H       1  LIG1        0.1072
     10 N          -1.2990    2.1446   -0.7615 N.pl3   1  LIG1       -0.3554
     11 H          -0.7630    2.6683   -1.4428 H       1  LIG1        0.1424
     12 H          -2.2675    2.0139   -1.0163 H       1  LIG1        0.1424
     13 C          -2.4827   -0.8441   -0.0940 C.ar    1  LIG1        0.0799
     14 C          -3.7994   -0.3946    0.0555 C.ar    1  LIG1        0.0522
     15 C          -4.6810   -1.5019   -0.1955 C.ar    1  LIG1        0.0561
     16 C          -3.8904   -2.5910   -0.4899 C.ar    1  LIG1        0.0241
     17 N          -2.5652   -2.1853   -0.3966 N.ar    1  LIG1       -0.3570
     18 H          -1.7896   -2.6983   -0.7850 H       1  LIG1        0.1655
     19 H          -4.1515   -3.6145   -0.7100 H       1  LIG1        0.0826
     20 S          -4.3636    1.2369    0.4488 S.3     1  LIG1       -0.1388
     21 H          -4.2298    1.2239    1.7960 H       1  LIG1        0.1072
     22 N          -6.0723   -1.4642   -0.0538 N.pl3   1  LIG1       -0.3560
     23 H          -6.4268   -0.5146   -0.0834 H       1  LIG1        0.1424
     24 H          -6.5641   -2.0489   -0.7177 H       1  LIG1        0.1424
@<TRIPOS>BOND
     1    11    10    1
     2    12    10    1
     3    18    17    1
     4    10     3    1
     5    24    22    1
     6    19    16    1
     7    16    17   ar
     8    16    15   ar
     9     8     2    1
    10     8     9    1
    11    17    13   ar
    12     3     2   ar
    13     3     4   ar
    14    15    22    1
    15    15    14   ar
    16    13     4    1
    17    13    14   ar
    18    23    22    1
    19     2     1   ar
    20     4     5   ar
    21    14    20    1
    22    20    21    1
    23     1     5   ar
    24     1     7    1
    25     5     6    1
