@<TRIPOS>MOLECULE
mol_data/opt/b3lyp/geoms/mol2/13gh13gh13gh13gh-.out
 46 49 0 0 0
SMALL
GASTEIGER

@<TRIPOS>ATOM
      1 C           0.5478    0.0076    1.8465 C.ar    1  LIG1        0.0173
      2 C           0.7464    0.9031    0.8173 C.ar    1  LIG1        0.0434
      3 C          -0.4077    0.8583   -0.0382 C.ar    1  LIG1        0.0650
      4 C          -1.2844   -0.0797    0.5054 C.ar    1  LIG1        0.0860
      5 N          -0.6546   -0.6093    1.6456 N.ar    1  LIG1       -0.3570
      6 H          -1.1715   -1.0635    2.3837 H       1  LIG1        0.1655
      7 H           1.1749   -0.2204    2.6949 H       1  LIG1        0.0819
      8 S           2.2350    1.8159    0.5105 S.3     1  LIG1       -0.1394
      9 H           1.7663    3.0570    0.7757 H       1  LIG1        0.1072
     10 N          -0.5561    1.6544   -1.1603 N.pl3   1  LIG1       -0.3554
     11 H           0.2989    1.7978   -1.6831 H       1  LIG1        0.1424
     12 H          -1.3658    1.4610   -1.7320 H       1  LIG1        0.1424
     13 C          -2.5296   -0.6693    0.0566 C.ar    1  LIG1        0.0804
     14 C          -3.6821   -0.1699   -0.5682 C.ar    1  LIG1        0.0529
     15 C          -4.6276   -1.2379   -0.6814 C.ar    1  LIG1        0.0657
     16 C          -4.0496   -2.3733   -0.1259 C.ar    1  LIG1        0.0865
     17 N          -2.7767   -1.9962    0.3094 N.ar    1  LIG1       -0.3494
     18 H          -2.1130   -2.6189    0.7411 H       1  LIG1        0.1661
     19 S          -3.9641    1.4579   -1.2046 S.3     1  LIG1       -0.1388
     20 H          -4.3695    2.0913   -0.0791 H       1  LIG1        0.1072
     21 N          -5.9092   -1.1262   -1.2086 N.pl3   1  LIG1       -0.3554
     22 H          -6.0172   -0.3349   -1.8310 H       1  LIG1        0.1424
     23 H          -6.2756   -1.9825   -1.6039 H       1  LIG1        0.1424
     24 C          -4.5338   -3.7340   -0.0260 C.ar    1  LIG1        0.0804
     25 C          -5.7358   -4.2566    0.4431 C.ar    1  LIG1        0.0529
     26 C          -5.6830   -5.6803    0.3368 C.ar    1  LIG1        0.0657
     27 C          -4.4345   -6.0160   -0.1891 C.ar    1  LIG1        0.0865
     28 N          -3.7642   -4.8161   -0.4127 N.ar    1  LIG1       -0.3494
     29 H          -2.8099   -4.7523   -0.7289 H       1  LIG1        0.1661
     30 S          -7.1043   -3.3460    1.1114 S.3     1  LIG1       -0.1388
     31 H          -7.4701   -4.3361    1.9566 H       1  LIG1        0.1072
     32 N          -6.7179   -6.5140    0.7756 N.pl3   1  LIG1       -0.3554
     33 H          -7.5989   -6.3422    0.3019 H       1  LIG1        0.1424
     34 H          -6.4754   -7.4973    0.7722 H       1  LIG1        0.1424
     35 C          -3.8307   -7.2605   -0.6242 C.ar    1  LIG1        0.0799
     36 C          -3.8153   -8.5673   -0.1250 C.ar    1  LIG1        0.0522
     37 C          -3.0025   -9.3706   -0.9959 C.ar    1  LIG1        0.0561
     38 C          -2.5441   -8.5434   -1.9980 C.ar    1  LIG1        0.0241
     39 N          -3.0284   -7.2668   -1.7442 N.ar    1  LIG1       -0.3570
     40 H          -3.0552   -6.5310   -2.4324 H       1  LIG1        0.1655
     41 H          -1.8913   -8.7416   -2.8339 H       1  LIG1        0.0826
     42 S          -4.6462   -9.2011    1.3045 S.3     1  LIG1       -0.1388
     43 H          -3.7482   -8.8887    2.2685 H       1  LIG1        0.1072
     44 N          -2.6768  -10.7116   -0.7723 N.pl3   1  LIG1       -0.3560
     45 H          -3.3427  -11.1653   -0.1569 H       1  LIG1        0.1424
     46 H          -2.5518  -11.2478   -1.6215 H       1  LIG1        0.1424
@<TRIPOS>BOND
     1    41    38    1
     2    40    39    1
     3    38    39   ar
     4    38    37   ar
     5    22    21    1
     6    39    35   ar
     7    12    10    1
     8    11    10    1
     9    46    44    1
    10    23    21    1
    11    21    15    1
    12    19    14    1
    13    19    20    1
    14    10     3    1
    15    37    44    1
    16    37    36   ar
    17    44    45    1
    18    29    28    1
    19    15    14   ar
    20    15    16   ar
    21    35    27    1
    22    35    36   ar
    23    14    13   ar
    24    28    27   ar
    25    28    24   ar
    26    27    26   ar
    27    16    24    1
    28    16    17   ar
    29    36    42    1
    30     3     4   ar
    31     3     2   ar
    32    24    25   ar
    33    13    17   ar
    34    13     4    1
    35    33    32    1
    36    17    18    1
    37    26    25   ar
    38    26    32    1
    39    25    30    1
    40     4     5   ar
    41     8     9    1
    42     8     2    1
    43    34    32    1
    44     2     1   ar
    45    30    31    1
    46    42    43    1
    47     5     1   ar
    48     5     6    1
    49     1     7    1
