@<TRIPOS>MOLECULE
mol_data/opt/b3lyp/geoms/mol2/13gi13gi-13gi-13gi-.out
 50 53 0 0 0
SMALL
GASTEIGER

@<TRIPOS>ATOM
      1 C           0.2587    0.2765   -2.4545 C.ar    1  LIG1        0.0157
      2 C           0.6629    0.8697   -1.2748 C.ar    1  LIG1        0.0256
      3 C          -0.3439    0.6271   -0.2832 C.ar    1  LIG1       -0.0106
      4 C          -1.3451   -0.1018   -0.9085 C.ar    1  LIG1        0.0680
      5 N          -0.9448   -0.3287   -2.2216 N.ar    1  LIG1       -0.3583
      6 H          -1.5471   -0.7118   -2.9334 H       1  LIG1        0.1654
      7 H           0.7414    0.2440   -3.4193 H       1  LIG1        0.0818
      8 S           2.2413    1.6534   -1.0408 S.3     1  LIG1       -0.1409
      9 H           1.8184    2.9333   -0.9337 H       1  LIG1        0.1072
     10 C          -0.2935    1.0428    1.1540 C.3     1  LIG1       -0.0366
     11 H          -0.9905    0.4548    1.7573 H       1  LIG1        0.0279
     12 H          -0.5622    2.0978    1.2817 H       1  LIG1        0.0279
     13 H           0.7154    0.9125    1.5585 H       1  LIG1        0.0279
     14 C          -2.5913   -0.6680   -0.4117 C.ar    1  LIG1        0.0772
     15 C          -3.6917   -0.1142    0.2396 C.ar    1  LIG1        0.0351
     16 C          -4.6540   -1.1468    0.4711 C.ar    1  LIG1       -0.0099
     17 C          -4.1274   -2.3129   -0.0680 C.ar    1  LIG1        0.0685
     18 N          -2.8775   -2.0055   -0.5826 N.ar    1  LIG1       -0.3508
     19 H          -2.2611   -2.6661   -1.0303 H       1  LIG1        0.1660
     20 S          -3.8345    1.5869    0.7349 S.3     1  LIG1       -0.1403
     21 H          -4.8863    1.9185   -0.0467 H       1  LIG1        0.1072
     22 C          -5.9643   -0.9946    1.1788 C.3     1  LIG1       -0.0366
     23 H          -6.3490   -1.9649    1.5043 H       1  LIG1        0.0279
     24 H          -6.7272   -0.5422    0.5341 H       1  LIG1        0.0279
     25 H          -5.8558   -0.3490    2.0562 H       1  LIG1        0.0279
     26 C          -4.6263   -3.6805   -0.0999 C.ar    1  LIG1        0.0772
     27 C          -5.8048   -4.2466   -0.5815 C.ar    1  LIG1        0.0351
     28 C          -5.7537   -5.6602   -0.3711 C.ar    1  LIG1       -0.0099
     29 C          -4.5259   -5.9324    0.2180 C.ar    1  LIG1        0.0685
     30 N          -3.8664   -4.7250    0.3833 N.ar    1  LIG1       -0.3508
     31 H          -2.9615   -4.6217    0.8158 H       1  LIG1        0.1660
     32 S          -7.1552   -3.3347   -1.2912 S.3     1  LIG1       -0.1403
     33 H          -7.1351   -3.9029   -2.5173 H       1  LIG1        0.1072
     34 C          -6.8299   -6.6459   -0.7037 C.3     1  LIG1       -0.0366
     35 H          -6.6876   -7.5801   -0.1538 H       1  LIG1        0.0279
     36 H          -6.8404   -6.8960   -1.7712 H       1  LIG1        0.0279
     37 H          -7.8153   -6.2397   -0.4538 H       1  LIG1        0.0279
     38 C          -3.9299   -7.1726    0.6941 C.ar    1  LIG1        0.0768
     39 C          -3.6816   -8.3976    0.0813 C.ar    1  LIG1        0.0344
     40 C          -3.0596   -9.2659    1.0387 C.ar    1  LIG1       -0.0193
     41 C          -2.9350   -8.5366    2.2003 C.ar    1  LIG1        0.0062
     42 N          -3.4479   -7.2779    1.9859 N.ar    1  LIG1       -0.3584
     43 H          -3.6376   -6.6011    2.7087 H       1  LIG1        0.1654
     44 H          -2.5208   -8.8171    3.1578 H       1  LIG1        0.0810
     45 S          -4.0921   -8.8065   -1.5989 S.3     1  LIG1       -0.1403
     46 H          -2.8342   -8.9860   -2.0614 H       1  LIG1        0.1072
     47 C          -2.6083  -10.6757    0.8087 C.3     1  LIG1       -0.0372
     48 H          -2.2729  -11.1375    1.7418 H       1  LIG1        0.0278
     49 H          -1.7755  -10.7284    0.0967 H       1  LIG1        0.0278
     50 H          -3.4176  -11.2874    0.3960 H       1  LIG1        0.0278
@<TRIPOS>BOND
     1     7     1    1
     2     6     5    1
     3    33    32    1
     4     1     5   ar
     5     1     2   ar
     6     5     4   ar
     7    46    45    1
     8    36    34    1
     9    45    39    1
    10    32    27    1
    11     2     8    1
    12     2     3   ar
    13     8     9    1
    14    19    18    1
    15     4    14    1
    16     4     3   ar
    17    34    37    1
    18    34    28    1
    19    34    35    1
    20    18    14   ar
    21    18    17   ar
    22    27    28   ar
    23    27    26   ar
    24    14    15   ar
    25    28    29   ar
    26     3    10    1
    27    26    17    1
    28    26    30   ar
    29    17    16   ar
    30    21    20    1
    31    39    38   ar
    32    39    40   ar
    33    49    47    1
    34    29    30   ar
    35    29    38    1
    36    15    16   ar
    37    15    20    1
    38    30    31    1
    39    50    47    1
    40    16    22    1
    41    24    22    1
    42    38    42   ar
    43    47    40    1
    44    47    48    1
    45    40    41   ar
    46    10    12    1
    47    10    13    1
    48    10    11    1
    49    22    23    1
    50    22    25    1
    51    42    41   ar
    52    42    43    1
    53    41    44    1
