@<TRIPOS>MOLECULE
mol_data/opt/b3lyp/geoms/mol2/13gi13gi.out
 26 27 0 0 0
SMALL
GASTEIGER

@<TRIPOS>ATOM
      1 C           1.0677   -0.2703   -0.7137 C.ar    1  LIG1        0.0157
      2 C           0.7956    0.9631   -0.1549 C.ar    1  LIG1        0.0256
      3 C          -0.5812    0.9806    0.2447 C.ar    1  LIG1       -0.0106
      4 C          -1.1085   -0.2543   -0.1054 C.ar    1  LIG1        0.0680
      5 N          -0.0812   -1.0092   -0.6614 N.ar    1  LIG1       -0.3583
      6 H          -0.2211   -1.8985   -1.1145 H       1  LIG1        0.1654
      7 H           1.9843   -0.6601   -1.1293 H       1  LIG1        0.0818
      8 S           2.0200    2.2191    0.1333 S.3     1  LIG1       -0.1409
      9 H           1.5944    3.1282   -0.7727 H       1  LIG1        0.1072
     10 C          -1.2897    2.0987    0.9439 C.3     1  LIG1       -0.0366
     11 H          -2.1961    1.7394    1.4388 H       1  LIG1        0.0279
     12 H          -1.5908    2.8892    0.2465 H       1  LIG1        0.0279
     13 H          -0.6395    2.5573    1.6957 H       1  LIG1        0.0279
     14 C          -2.4330   -0.8323    0.0716 C.ar    1  LIG1        0.0767
     15 C          -3.7089   -0.3991   -0.2788 C.ar    1  LIG1        0.0344
     16 C          -4.6565   -1.3876    0.1488 C.ar    1  LIG1       -0.0193
     17 C          -3.9263   -2.3991    0.7319 C.ar    1  LIG1        0.0062
     18 N          -2.5920   -2.0665    0.6733 N.ar    1  LIG1       -0.3584
     19 H          -1.8535   -2.5432    1.1667 H       1  LIG1        0.1654
     20 H          -4.2536   -3.3266    1.1789 H       1  LIG1        0.0810
     21 S          -4.0842    1.1320   -1.0992 S.3     1  LIG1       -0.1403
     22 H          -4.5579    0.6152   -2.2556 H       1  LIG1        0.1072
     23 C          -6.1429   -1.3412   -0.0328 C.3     1  LIG1       -0.0372
     24 H          -6.6287   -2.1671    0.4945 H       1  LIG1        0.0278
     25 H          -6.4291   -1.4105   -1.0896 H       1  LIG1        0.0278
     26 H          -6.5581   -0.4015    0.3467 H       1  LIG1        0.0278
@<TRIPOS>BOND
     1    22    21    1
     2     7     1    1
     3     6     5    1
     4    21    15    1
     5    25    23    1
     6     9     8    1
     7     1     5   ar
     8     1     2   ar
     9     5     4   ar
    10    15    14   ar
    11    15    16   ar
    12     2     8    1
    13     2     3   ar
    14     4    14    1
    15     4     3   ar
    16    23    16    1
    17    23    26    1
    18    23    24    1
    19    14    18   ar
    20    16    17   ar
    21     3    10    1
    22    12    10    1
    23    18    17   ar
    24    18    19    1
    25    17    20    1
    26    10    11    1
    27    10    13    1
