@<TRIPOS>MOLECULE
mol_data/opt/b3lyp/geoms/mol2/13gi.out
 14 14 0 0 0
SMALL
GASTEIGER

@<TRIPOS>ATOM
      1 C           1.1172   -0.3646    0.0116 C.ar    1  LIG1        0.0152
      2 C           0.6558    0.9357    0.0813 C.ar    1  LIG1        0.0250
      3 C          -0.7799    0.8976    0.0861 C.ar    1  LIG1       -0.0200
      4 C          -1.1284   -0.4332    0.0090 C.ar    1  LIG1        0.0056
      5 N           0.0249   -1.1877   -0.0314 N.ar    1  LIG1       -0.3658
      6 H           0.0584   -2.1929   -0.0779 H       1  LIG1        0.1648
      7 H          -2.1026   -0.8994   -0.0173 H       1  LIG1        0.0810
      8 H           2.1264   -0.7467   -0.0041 H       1  LIG1        0.0818
      9 S           1.6986    2.3640    0.2630 S.3     1  LIG1       -0.1409
     10 H           1.5834    2.8681   -0.9872 H       1  LIG1        0.1072
     11 C          -1.7114    2.0693    0.1543 C.3     1  LIG1       -0.0373
     12 H          -2.7496    1.7404    0.2574 H       1  LIG1        0.0278
     13 H          -1.6494    2.6932   -0.7456 H       1  LIG1        0.0278
     14 H          -1.4734    2.7167    1.0050 H       1  LIG1        0.0278
@<TRIPOS>BOND
     1    10     9    1
     2    13    11    1
     3     6     5    1
     4     5     4   ar
     5     5     1   ar
     6     7     4    1
     7     8     1    1
     8     4     3   ar
     9     1     2   ar
    10     2     3   ar
    11     2     9    1
    12     3    11    1
    13    11    12    1
    14    11    14    1
