@<TRIPOS>MOLECULE
mol_data/opt/b3lyp/geoms/mol2/13gi13gi13gi13gi.out
 50 53 0 0 0
SMALL
GASTEIGER

@<TRIPOS>ATOM
      1 C           0.2782    0.2908   -2.4219 C.ar    1  LIG1        0.0157
      2 C           0.6733    0.8769   -1.2356 C.ar    1  LIG1        0.0256
      3 C          -0.3411    0.6285   -0.2533 C.ar    1  LIG1       -0.0106
      4 C          -1.3374   -0.0966   -0.8906 C.ar    1  LIG1        0.0680
      5 N          -0.9269   -0.3158   -2.2018 N.ar    1  LIG1       -0.3583
      6 H          -1.5237   -0.6944   -2.9206 H       1  LIG1        0.1654
      7 H           0.7684    0.2640   -3.3831 H       1  LIG1        0.0818
      8 S           2.2499    1.6591   -0.9847 S.3     1  LIG1       -0.1409
      9 H           1.8262    2.9383   -0.8732 H       1  LIG1        0.1072
     10 C          -0.3017    1.0356    1.1867 C.3     1  LIG1       -0.0366
     11 H          -1.0040    0.4448    1.7810 H       1  LIG1        0.0279
     12 H          -0.5706    2.0901    1.3184 H       1  LIG1        0.0279
     13 H           0.7037    0.9021    1.5985 H       1  LIG1        0.0279
     14 C          -2.5874   -0.6657   -0.4068 C.ar    1  LIG1        0.0772
     15 C          -3.6928   -0.1156    0.2392 C.ar    1  LIG1        0.0351
     16 C          -4.6570   -1.1493    0.4572 C.ar    1  LIG1       -0.0099
     17 C          -4.1262   -2.3123   -0.0844 C.ar    1  LIG1        0.0685
     18 N          -2.8723   -2.0022   -0.5875 N.ar    1  LIG1       -0.3508
     19 H          -2.2526   -2.6602   -1.0345 H       1  LIG1        0.1660
     20 S          -3.8393    1.5827    0.7432 S.3     1  LIG1       -0.1403
     21 H          -4.8854    1.9189   -0.0442 H       1  LIG1        0.1072
     22 C          -5.9727   -1.0010    1.1555 C.3     1  LIG1       -0.0366
     23 H          -6.3602   -1.9732    1.4722 H       1  LIG1        0.0279
     24 H          -6.7304   -0.5446    0.5076 H       1  LIG1        0.0279
     25 H          -5.8709   -0.3606    2.0376 H       1  LIG1        0.0279
     26 C          -4.6251   -3.6796   -0.1281 C.ar    1  LIG1        0.0772
     27 C          -5.7998   -4.2426   -0.6224 C.ar    1  LIG1        0.0351
     28 C          -5.7509   -5.6573   -0.4196 C.ar    1  LIG1       -0.0099
     29 C          -4.5279   -5.9333    0.1777 C.ar    1  LIG1        0.0685
     30 N          -3.8694   -4.7272    0.3552 N.ar    1  LIG1       -0.3508
     31 H          -2.9679   -4.6266    0.7955 H       1  LIG1        0.1660
     32 S          -7.1443   -3.3261   -1.3375 S.3     1  LIG1       -0.1403
     33 H          -7.1155   -3.8883   -2.5663 H       1  LIG1        0.1072
     34 C          -6.8247   -6.6408   -0.7666 C.3     1  LIG1       -0.0366
     35 H          -6.6870   -7.5782   -0.2209 H       1  LIG1        0.0279
     36 H          -6.8267   -6.8846   -1.8356 H       1  LIG1        0.0279
     37 H          -7.8119   -6.2357   -0.5222 H       1  LIG1        0.0279
     38 C          -3.9360   -7.1765    0.6512 C.ar    1  LIG1        0.0768
     39 C          -3.6834   -8.3981    0.0332 C.ar    1  LIG1        0.0344
     40 C          -3.0694   -9.2722    0.9902 C.ar    1  LIG1       -0.0193
     41 C          -2.9536   -8.5499    2.1571 C.ar    1  LIG1        0.0062
     42 N          -3.4643   -7.2897    1.9461 N.ar    1  LIG1       -0.3584
     43 H          -3.6590   -6.6169    2.6713 H       1  LIG1        0.1654
     44 H          -2.5471   -8.8362    3.1162 H       1  LIG1        0.0810
     45 S          -4.0808   -8.7969   -1.6527 S.3     1  LIG1       -0.1403
     46 H          -2.8192   -8.9734   -2.1064 H       1  LIG1        0.1072
     47 C          -2.6169  -10.6809    0.7556 C.3     1  LIG1       -0.0372
     48 H          -2.2894  -11.1484    1.6886 H       1  LIG1        0.0278
     49 H          -1.7784  -10.7299    0.0500 H       1  LIG1        0.0278
     50 H          -3.4232  -11.2897    0.3327 H       1  LIG1        0.0278
@<TRIPOS>BOND
     1     7     1    1
     2     6     5    1
     3    33    32    1
     4     1     5   ar
     5     1     2   ar
     6     5     4   ar
     7    46    45    1
     8    36    34    1
     9    45    39    1
    10    32    27    1
    11     2     8    1
    12     2     3   ar
    13    19    18    1
    14     8     9    1
    15     4    14    1
    16     4     3   ar
    17    34    37    1
    18    34    28    1
    19    34    35    1
    20    27    28   ar
    21    27    26   ar
    22    18    14   ar
    23    18    17   ar
    24    28    29   ar
    25    14    15   ar
    26     3    10    1
    27    26    17    1
    28    26    30   ar
    29    17    16   ar
    30    21    20    1
    31    39    38   ar
    32    39    40   ar
    33    49    47    1
    34    29    30   ar
    35    29    38    1
    36    15    16   ar
    37    15    20    1
    38    50    47    1
    39    30    31    1
    40    16    22    1
    41    24    22    1
    42    38    42   ar
    43    47    40    1
    44    47    48    1
    45    40    41   ar
    46    22    23    1
    47    22    25    1
    48    10    12    1
    49    10    13    1
    50    10    11    1
    51    42    41   ar
    52    42    43    1
    53    41    44    1
