@<TRIPOS>MOLECULE
mol_data/opt/b3lyp/geoms/mol2/13gi13gi-13gi-.out
 38 40 0 0 0
SMALL
GASTEIGER

@<TRIPOS>ATOM
      1 C           0.8551   -0.1158   -1.4558 C.ar    1  LIG1        0.0157
      2 C           0.8263    0.8674   -0.4865 C.ar    1  LIG1        0.0256
      3 C          -0.4588    0.8335    0.1485 C.ar    1  LIG1       -0.0106
      4 C          -1.1808   -0.1726   -0.4771 C.ar    1  LIG1        0.0680
      5 N          -0.3522   -0.7569   -1.4300 N.ar    1  LIG1       -0.3583
      6 H          -0.6719   -1.4162   -2.1222 H       1  LIG1        0.1654
      7 H           1.6402   -0.3955   -2.1415 H       1  LIG1        0.0818
      8 S           2.2249    1.8704   -0.0410 S.3     1  LIG1       -0.1409
      9 H           1.7805    3.0575   -0.5116 H       1  LIG1        0.1072
     10 C          -0.9069    1.6884    1.2927 C.3     1  LIG1       -0.0366
     11 H          -1.7660    1.2433    1.8019 H       1  LIG1        0.0279
     12 H          -1.2080    2.6885    0.9598 H       1  LIG1        0.0279
     13 H          -0.0978    1.8166    2.0189 H       1  LIG1        0.0279
     14 C          -2.5208   -0.6944   -0.2486 C.ar    1  LIG1        0.0772
     15 C          -3.7780   -0.0945   -0.2117 C.ar    1  LIG1        0.0351
     16 C          -4.7606   -1.1048    0.0318 C.ar    1  LIG1       -0.0099
     17 C          -4.0805   -2.3125    0.1150 C.ar    1  LIG1        0.0685
     18 N          -2.7306   -2.0415   -0.0442 N.ar    1  LIG1       -0.3508
     19 H          -1.9975   -2.7324   -0.0043 H       1  LIG1        0.1660
     20 S          -4.0822    1.6471   -0.3935 S.3     1  LIG1       -0.1403
     21 H          -4.8237    1.5877   -1.5221 H       1  LIG1        0.1072
     22 C          -6.2336   -0.8887    0.1873 C.3     1  LIG1       -0.0366
     23 H          -6.7029   -1.7383    0.6909 H       1  LIG1        0.0279
     24 H          -6.7342   -0.7677   -0.7808 H       1  LIG1        0.0279
     25 H          -6.4302    0.0159    0.7715 H       1  LIG1        0.0279
     26 C          -4.5378   -3.6689    0.3810 C.ar    1  LIG1        0.0768
     27 C          -5.4998   -4.4763   -0.2193 C.ar    1  LIG1        0.0344
     28 C          -5.5247   -5.7372    0.4639 C.ar    1  LIG1       -0.0193
     29 C          -4.5656   -5.6634    1.4495 C.ar    1  LIG1        0.0062
     30 N          -3.9684   -4.4251    1.3892 N.ar    1  LIG1       -0.3584
     31 H          -3.3579   -4.0434    2.0948 H       1  LIG1        0.1654
     32 H          -4.2639   -6.3958    2.1841 H       1  LIG1        0.0810
     33 S          -6.5299   -4.0004   -1.5870 S.3     1  LIG1       -0.1403
     34 H          -6.0740   -4.9006   -2.4871 H       1  LIG1        0.1072
     35 C          -6.4008   -6.9102    0.1470 C.3     1  LIG1       -0.0372
     36 H          -6.2943   -7.6948    0.9015 H       1  LIG1        0.0278
     37 H          -6.1571   -7.3536   -0.8264 H       1  LIG1        0.0278
     38 H          -7.4549   -6.6159    0.1061 H       1  LIG1        0.0278
@<TRIPOS>BOND
     1    34    33    1
     2     7     1    1
     3     6     5    1
     4    33    27    1
     5    21    20    1
     6     1     5   ar
     7     1     2   ar
     8     5     4   ar
     9    37    35    1
    10    24    22    1
    11     9     8    1
    12     2     8    1
    13     2     3   ar
    14     4    14    1
    15     4     3   ar
    16    20    15    1
    17    14    15   ar
    18    14    18   ar
    19    27    26   ar
    20    27    28   ar
    21    15    16   ar
    22    18    19    1
    23    18    17   ar
    24    16    17   ar
    25    16    22    1
    26    38    35    1
    27    17    26    1
    28    35    28    1
    29    35    36    1
    30     3    10    1
    31    22    23    1
    32    22    25    1
    33    26    30   ar
    34    28    29   ar
    35    12    10    1
    36    10    11    1
    37    10    13    1
    38    30    29   ar
    39    30    31    1
    40    29    32    1
