@<TRIPOS>MOLECULE
mol_data/opt/b3lyp/geoms/mol2/13gi13gi-.out
 26 27 0 0 0
SMALL
GASTEIGER

@<TRIPOS>ATOM
      1 C           1.0720   -0.2735   -0.6963 C.ar    1  LIG1        0.0157
      2 C           0.7966    0.9621   -0.1441 C.ar    1  LIG1        0.0256
      3 C          -0.5826    0.9814    0.2470 C.ar    1  LIG1       -0.0106
      4 C          -1.1080   -0.2548   -0.1015 C.ar    1  LIG1        0.0680
      5 N          -0.0774   -1.0121   -0.6481 N.ar    1  LIG1       -0.3583
      6 H          -0.2147   -1.9029   -1.0989 H       1  LIG1        0.1654
      7 H           1.9910   -0.6651   -1.1046 H       1  LIG1        0.0818
      8 S           2.0194    2.2190    0.1467 S.3     1  LIG1       -0.1409
      9 H           1.5986    3.1252   -0.7645 H       1  LIG1        0.1072
     10 C          -1.2951    2.1024    0.9374 C.3     1  LIG1       -0.0366
     11 H          -2.2052    1.7454    1.4272 H       1  LIG1        0.0279
     12 H          -1.5908    2.8908    0.2353 H       1  LIG1        0.0279
     13 H          -0.6498    2.5631    1.6922 H       1  LIG1        0.0279
     14 C          -2.4336   -0.8319    0.0695 C.ar    1  LIG1        0.0767
     15 C          -3.7073   -0.4001   -0.2906 C.ar    1  LIG1        0.0344
     16 C          -4.6576   -1.3868    0.1351 C.ar    1  LIG1       -0.0193
     17 C          -3.9310   -2.3960    0.7270 C.ar    1  LIG1        0.0062
     18 N          -2.5964   -2.0636    0.6753 N.ar    1  LIG1       -0.3584
     19 H          -1.8610   -2.5384    1.1751 H       1  LIG1        0.1654
     20 H          -4.2612   -3.3216    1.1757 H       1  LIG1        0.0810
     21 S          -4.0775    1.1278   -1.1196 S.3     1  LIG1       -0.1403
     22 H          -4.5420    0.6064   -2.2776 H       1  LIG1        0.1072
     23 C          -6.1428   -1.3410   -0.0559 C.3     1  LIG1       -0.0372
     24 H          -6.6318   -2.1662    0.4698 H       1  LIG1        0.0278
     25 H          -6.4223   -1.4122   -1.1143 H       1  LIG1        0.0278
     26 H          -6.5606   -0.4008    0.3193 H       1  LIG1        0.0278
@<TRIPOS>BOND
     1    22    21    1
     2    21    15    1
     3    25    23    1
     4     7     1    1
     5     6     5    1
     6     9     8    1
     7     1     5   ar
     8     1     2   ar
     9     5     4   ar
    10    15    14   ar
    11    15    16   ar
    12     2     8    1
    13     2     3   ar
    14     4    14    1
    15     4     3   ar
    16    23    16    1
    17    23    26    1
    18    23    24    1
    19    14    18   ar
    20    16    17   ar
    21    12    10    1
    22     3    10    1
    23    18    17   ar
    24    18    19    1
    25    17    20    1
    26    10    11    1
    27    10    13    1
