@<TRIPOS>MOLECULE
mol_data/opt/b3lyp/geoms/mol2/13gi13gi13gi-13gi-.out
 50 53 0 0 0
SMALL
GASTEIGER

@<TRIPOS>ATOM
      1 C           0.2504    0.3083   -2.4452 C.ar    1  LIG1        0.0157
      2 C           0.6574    0.8872   -1.2592 C.ar    1  LIG1        0.0256
      3 C          -0.3469    0.6320   -0.2682 C.ar    1  LIG1       -0.0106
      4 C          -1.3493   -0.0896   -0.8999 C.ar    1  LIG1        0.0680
      5 N          -0.9522   -0.3002   -2.2167 N.ar    1  LIG1       -0.3583
      6 H          -1.5560   -0.6748   -2.9316 H       1  LIG1        0.1654
      7 H           0.7308    0.2880   -3.4115 H       1  LIG1        0.0818
      8 S           2.2360    1.6687   -1.0196 S.3     1  LIG1       -0.1409
      9 H           1.8128    2.9469   -0.8954 H       1  LIG1        0.1072
     10 C          -0.2930    1.0300    1.1738 C.3     1  LIG1       -0.0366
     11 H          -0.9881    0.4342    1.7717 H       1  LIG1        0.0279
     12 H          -0.5622    2.0832    1.3151 H       1  LIG1        0.0279
     13 H           0.7170    0.8955    1.5742 H       1  LIG1        0.0279
     14 C          -2.5940   -0.6625   -0.4071 C.ar    1  LIG1        0.0772
     15 C          -3.6932   -0.1174    0.2536 C.ar    1  LIG1        0.0351
     16 C          -4.6544   -1.1533    0.4747 C.ar    1  LIG1       -0.0099
     17 C          -4.1283   -2.3124   -0.0797 C.ar    1  LIG1        0.0685
     18 N          -2.8798   -1.9981   -0.5936 N.ar    1  LIG1       -0.3508
     19 H          -2.2642   -2.6527   -1.0508 H       1  LIG1        0.1660
     20 S          -3.8357    1.5774    0.7701 S.3     1  LIG1       -0.1403
     21 H          -4.8890    1.9184   -0.0056 H       1  LIG1        0.1072
     22 C          -5.9630   -1.0105    1.1874 C.3     1  LIG1       -0.0366
     23 H          -6.3464   -1.9849    1.5021 H       1  LIG1        0.0279
     24 H          -6.7277   -0.5508    0.5502 H       1  LIG1        0.0279
     25 H          -5.8527   -0.3755    2.0723 H       1  LIG1        0.0279
     26 C          -4.6266   -3.6798   -0.1271 C.ar    1  LIG1        0.0772
     27 C          -5.8061   -4.2406   -0.6125 C.ar    1  LIG1        0.0351
     28 C          -5.7538   -5.6566   -0.4196 C.ar    1  LIG1       -0.0099
     29 C          -4.5242   -5.9354    0.1628 C.ar    1  LIG1        0.0685
     30 N          -3.8648   -4.7298    0.3410 N.ar    1  LIG1       -0.3508
     31 H          -2.9588   -4.6313    0.7725 H       1  LIG1        0.1660
     32 S          -7.1588   -3.3208   -1.3073 S.3     1  LIG1       -0.1403
     33 H          -7.1418   -3.8740   -2.5403 H       1  LIG1        0.1072
     34 C          -6.8303   -6.6388   -0.7614 C.3     1  LIG1       -0.0366
     35 H          -6.6858   -7.5797   -0.2236 H       1  LIG1        0.0279
     36 H          -6.8437   -6.8755   -1.8320 H       1  LIG1        0.0279
     37 H          -7.8152   -6.2364   -0.5037 H       1  LIG1        0.0279
     38 C          -3.9262   -7.1811    0.6218 C.ar    1  LIG1        0.0768
     39 C          -3.6788   -8.3982   -0.0069 C.ar    1  LIG1        0.0344
     40 C          -3.0538   -9.2780    0.9377 C.ar    1  LIG1       -0.0193
     41 C          -2.9266   -8.5633    2.1081 C.ar    1  LIG1        0.0062
     42 N          -3.4407   -7.3023    1.9109 N.ar    1  LIG1       -0.3584
     43 H          -3.6289   -6.6348    2.6426 H       1  LIG1        0.1654
     44 H          -2.5097   -8.8555    3.0609 H       1  LIG1        0.0810
     45 S          -4.0935   -8.7862   -1.6911 S.3     1  LIG1       -0.1403
     46 H          -2.8367   -8.9593   -2.1591 H       1  LIG1        0.1072
     47 C          -2.6023  -10.6846    0.6890 C.3     1  LIG1       -0.0372
     48 H          -2.2643  -11.1578    1.6153 H       1  LIG1        0.0278
     49 H          -1.7714  -10.7279   -0.0258 H       1  LIG1        0.0278
     50 H          -3.4124  -11.2915    0.2708 H       1  LIG1        0.0278
@<TRIPOS>BOND
     1     7     1    1
     2     6     5    1
     3    33    32    1
     4     1     5   ar
     5     1     2   ar
     6     5     4   ar
     7    46    45    1
     8    36    34    1
     9    45    39    1
    10    32    27    1
    11     2     8    1
    12     2     3   ar
    13    19    18    1
    14     8     9    1
    15     4    14    1
    16     4     3   ar
    17    34    37    1
    18    34    28    1
    19    34    35    1
    20    27    28   ar
    21    27    26   ar
    22    18    14   ar
    23    18    17   ar
    24    28    29   ar
    25    14    15   ar
    26     3    10    1
    27    26    17    1
    28    26    30   ar
    29    17    16   ar
    30    49    47    1
    31    39    38   ar
    32    39    40   ar
    33    21    20    1
    34    29    30   ar
    35    29    38    1
    36    15    16   ar
    37    15    20    1
    38    50    47    1
    39    30    31    1
    40    16    22    1
    41    24    22    1
    42    38    42   ar
    43    47    40    1
    44    47    48    1
    45    40    41   ar
    46    10    12    1
    47    10    13    1
    48    10    11    1
    49    22    23    1
    50    22    25    1
    51    42    41   ar
    52    42    43    1
    53    41    44    1
