@<TRIPOS>MOLECULE
mol_data/opt/b3lyp/geoms/mol2/13gi13gi13gi13gi-.out
 50 53 0 0 0
SMALL
GASTEIGER

@<TRIPOS>ATOM
      1 C           0.2704    0.2817   -2.4492 C.ar    1  LIG1        0.0157
      2 C           0.6674    0.8744   -1.2667 C.ar    1  LIG1        0.0256
      3 C          -0.3449    0.6301   -0.2811 C.ar    1  LIG1       -0.0106
      4 C          -1.3419   -0.0991   -0.9127 C.ar    1  LIG1        0.0680
      5 N          -0.9338   -0.3248   -2.2236 N.ar    1  LIG1       -0.3583
      6 H          -1.5318   -0.7072   -2.9393 H       1  LIG1        0.1654
      7 H           0.7587    0.2502   -3.4112 H       1  LIG1        0.0818
      8 S           2.2436    1.6594   -1.0230 S.3     1  LIG1       -0.1409
      9 H           1.8191    2.9391   -0.9198 H       1  LIG1        0.1072
     10 C          -0.3030    1.0447    1.1567 C.3     1  LIG1       -0.0366
     11 H          -1.0030    0.4558    1.7556 H       1  LIG1        0.0279
     12 H          -0.5733    2.0994    1.2836 H       1  LIG1        0.0279
     13 H           0.7036    0.9149    1.5670 H       1  LIG1        0.0279
     14 C          -2.5902   -0.6669   -0.4233 C.ar    1  LIG1        0.0772
     15 C          -3.6942   -0.1149    0.2235 C.ar    1  LIG1        0.0351
     16 C          -4.6570   -1.1483    0.4484 C.ar    1  LIG1       -0.0099
     17 C          -4.1271   -2.3132   -0.0899 C.ar    1  LIG1        0.0685
     18 N          -2.8748   -2.0043   -0.5979 N.ar    1  LIG1       -0.3508
     19 H          -2.2556   -2.6639   -1.0431 H       1  LIG1        0.1660
     20 S          -3.8406    1.5855    0.7203 S.3     1  LIG1       -0.1403
     21 H          -4.8913    1.9162   -0.0631 H       1  LIG1        0.1072
     22 C          -5.9711   -0.9980    1.1495 C.3     1  LIG1       -0.0366
     23 H          -6.3565   -1.9690    1.4722 H       1  LIG1        0.0279
     24 H          -6.7311   -0.5460    0.5011 H       1  LIG1        0.0279
     25 H          -5.8679   -0.3529    2.0279 H       1  LIG1        0.0279
     26 C          -4.6251   -3.6810   -0.1264 C.ar    1  LIG1        0.0772
     27 C          -5.8007   -4.2469   -0.6153 C.ar    1  LIG1        0.0351
     28 C          -5.7503   -5.6607   -0.4065 C.ar    1  LIG1       -0.0099
     29 C          -4.5257   -5.9333    0.1889 C.ar    1  LIG1        0.0685
     30 N          -3.8675   -4.7260    0.3594 N.ar    1  LIG1       -0.3508
     31 H          -2.9650   -4.6229    0.7970 H       1  LIG1        0.1660
     32 S          -7.1475   -3.3344   -1.3312 S.3     1  LIG1       -0.1403
     33 H          -7.1203   -3.9009   -2.5580 H       1  LIG1        0.1072
     34 C          -6.8242   -6.6465   -0.7467 C.3     1  LIG1       -0.0366
     35 H          -6.6853   -7.5809   -0.1962 H       1  LIG1        0.0279
     36 H          -6.8275   -6.8961   -1.8144 H       1  LIG1        0.0279
     37 H          -7.8113   -6.2406   -0.5032 H       1  LIG1        0.0279
     38 C          -3.9320   -7.1740    0.6666 C.ar    1  LIG1        0.0768
     39 C          -3.6799   -8.3981    0.0534 C.ar    1  LIG1        0.0344
     40 C          -3.0633   -9.2676    1.0129 C.ar    1  LIG1       -0.0193
     41 C          -2.9455   -8.5402    2.1763 C.ar    1  LIG1        0.0062
     42 N          -3.4574   -7.2812    1.9610 N.ar    1  LIG1       -0.3584
     43 H          -3.6511   -6.6055    2.6837 H       1  LIG1        0.1654
     44 H          -2.5366   -8.8220    3.1357 H       1  LIG1        0.0810
     45 S          -4.0810   -8.8043   -1.6298 S.3     1  LIG1       -0.1403
     46 H          -2.8206   -8.9842   -2.0852 H       1  LIG1        0.1072
     47 C          -2.6105  -10.6771    0.7834 C.3     1  LIG1       -0.0372
     48 H          -2.2807  -11.1403    1.7178 H       1  LIG1        0.0278
     49 H          -1.7734  -10.7286    0.0763 H       1  LIG1        0.0278
     50 H          -3.4172  -11.2882    0.3649 H       1  LIG1        0.0278
@<TRIPOS>BOND
     1     7     1    1
     2     6     5    1
     3    33    32    1
     4     1     5   ar
     5     1     2   ar
     6     5     4   ar
     7    46    45    1
     8    36    34    1
     9    45    39    1
    10    32    27    1
    11     2     8    1
    12     2     3   ar
    13    19    18    1
    14     8     9    1
    15     4    14    1
    16     4     3   ar
    17    34    37    1
    18    34    28    1
    19    34    35    1
    20    27    28   ar
    21    27    26   ar
    22    18    14   ar
    23    18    17   ar
    24    14    15   ar
    25    28    29   ar
    26     3    10    1
    27    26    17    1
    28    26    30   ar
    29    17    16   ar
    30    21    20    1
    31    39    38   ar
    32    39    40   ar
    33    49    47    1
    34    29    30   ar
    35    29    38    1
    36    15    16   ar
    37    15    20    1
    38    30    31    1
    39    50    47    1
    40    16    22    1
    41    24    22    1
    42    38    42   ar
    43    47    40    1
    44    47    48    1
    45    40    41   ar
    46    22    23    1
    47    22    25    1
    48    10    12    1
    49    10    13    1
    50    10    11    1
    51    42    41   ar
    52    42    43    1
    53    41    44    1
