@<TRIPOS>MOLECULE
mol_data/opt/b3lyp/geoms/mol2/13gi13gi-13gi13gi-.out
 50 53 0 0 0
SMALL
GASTEIGER

@<TRIPOS>ATOM
      1 C           0.2780    0.2659   -2.4329 C.ar    1  LIG1        0.0157
      2 C           0.6733    0.8638   -1.2525 C.ar    1  LIG1        0.0256
      3 C          -0.3411    0.6254   -0.2677 C.ar    1  LIG1       -0.0106
      4 C          -1.3376   -0.1059   -0.8977 C.ar    1  LIG1        0.0680
      5 N          -0.9273   -0.3382   -2.2067 N.ar    1  LIG1       -0.3583
      6 H          -1.5242   -0.7241   -2.9215 H       1  LIG1        0.1654
      7 H           0.7681    0.2294   -3.3939 H       1  LIG1        0.0818
      8 S           2.2500    1.6483   -1.0097 S.3     1  LIG1       -0.1409
      9 H           1.8265    2.9287   -0.9112 H       1  LIG1        0.1072
     10 C          -0.3016    1.0470    1.1681 C.3     1  LIG1       -0.0366
     11 H          -1.0037    0.4619    1.7684 H       1  LIG1        0.0279
     12 H          -0.5707    2.1027    1.2893 H       1  LIG1        0.0279
     13 H           0.7039    0.9178    1.5810 H       1  LIG1        0.0279
     14 C          -2.5877   -0.6698   -0.4081 C.ar    1  LIG1        0.0772
     15 C          -3.6930   -0.1131    0.2323 C.ar    1  LIG1        0.0351
     16 C          -4.6573   -1.1445    0.4608 C.ar    1  LIG1       -0.0099
     17 C          -4.1266   -2.3130   -0.0690 C.ar    1  LIG1        0.0685
     18 N          -2.8727   -2.0081   -0.5753 N.ar    1  LIG1       -0.3508
     19 H          -2.2530   -2.6707   -1.0154 H       1  LIG1        0.1660
     20 S          -3.8393    1.5902    0.7191 S.3     1  LIG1       -0.1403
     21 H          -4.8859    1.9182   -0.0711 H       1  LIG1        0.1072
     22 C          -5.9730   -0.9890    1.1577 C.3     1  LIG1       -0.0366
     23 H          -6.3604   -1.9579    1.4844 H       1  LIG1        0.0279
     24 H          -6.7307   -0.5393    0.5052 H       1  LIG1        0.0279
     25 H          -5.8710   -0.3397    2.0331 H       1  LIG1        0.0279
     26 C          -4.6255   -3.6807   -0.0989 C.ar    1  LIG1        0.0772
     27 C          -5.8004   -4.2487   -0.5870 C.ar    1  LIG1        0.0351
     28 C          -5.7512   -5.6614   -0.3702 C.ar    1  LIG1       -0.0099
     29 C          -4.5279   -5.9312    0.2293 C.ar    1  LIG1        0.0685
     30 N          -3.8694   -4.7233    0.3944 N.ar    1  LIG1       -0.3508
     31 H          -2.9678   -4.6183    0.8334 H       1  LIG1        0.1660
     32 S          -7.1453   -3.3397   -1.3108 S.3     1  LIG1       -0.1403
     33 H          -7.1164   -3.9137   -2.5340 H       1  LIG1        0.1072
     34 C          -6.8250   -6.6484   -0.7068 C.3     1  LIG1       -0.0366
     35 H          -6.6868   -7.5803   -0.1520 H       1  LIG1        0.0279
     36 H          -6.8274   -6.9029   -1.7734 H       1  LIG1        0.0279
     37 H          -7.8122   -6.2411   -0.4661 H       1  LIG1        0.0279
     38 C          -3.9356   -7.1696    0.7149 C.ar    1  LIG1        0.0768
     39 C          -3.6827   -8.3971    0.1090 C.ar    1  LIG1        0.0344
     40 C          -3.0683   -9.2615    1.0746 C.ar    1  LIG1       -0.0193
     41 C          -2.9525   -8.5276    2.2342 C.ar    1  LIG1        0.0062
     42 N          -3.4635   -7.2697    2.0108 N.ar    1  LIG1       -0.3584
     43 H          -3.6586   -6.5900    2.7294 H       1  LIG1        0.1654
     44 H          -2.5456   -8.8043    3.1960 H       1  LIG1        0.0810
     45 S          -4.0805   -8.8127   -1.5726 S.3     1  LIG1       -0.1403
     46 H          -2.8191   -8.9937   -2.0249 H       1  LIG1        0.1072
     47 C          -2.6154  -10.6724    0.8539 C.3     1  LIG1       -0.0372
     48 H          -2.2870  -11.1303    1.7912 H       1  LIG1        0.0278
     49 H          -1.7774  -10.7281    0.1482 H       1  LIG1        0.0278
     50 H          -3.4217  -11.2857    0.4377 H       1  LIG1        0.0278
@<TRIPOS>BOND
     1     7     1    1
     2     6     5    1
     3    33    32    1
     4     1     5   ar
     5     1     2   ar
     6     5     4   ar
     7    46    45    1
     8    36    34    1
     9    45    39    1
    10    32    27    1
    11     2     8    1
    12     2     3   ar
    13    19    18    1
    14     8     9    1
    15     4    14    1
    16     4     3   ar
    17    34    37    1
    18    34    28    1
    19    34    35    1
    20    27    28   ar
    21    27    26   ar
    22    18    14   ar
    23    18    17   ar
    24    14    15   ar
    25    28    29   ar
    26     3    10    1
    27    26    17    1
    28    26    30   ar
    29    21    20    1
    30    17    16   ar
    31    39    38   ar
    32    39    40   ar
    33    49    47    1
    34    29    30   ar
    35    29    38    1
    36    15    16   ar
    37    15    20    1
    38    30    31    1
    39    50    47    1
    40    16    22    1
    41    24    22    1
    42    38    42   ar
    43    47    40    1
    44    47    48    1
    45    40    41   ar
    46    22    23    1
    47    22    25    1
    48    10    12    1
    49    10    13    1
    50    10    11    1
    51    42    41   ar
    52    42    43    1
    53    41    44    1
