@<TRIPOS>MOLECULE
mol_data/opt/b3lyp/geoms/mol2/13gi13gi13gi-13gi.out
 50 53 0 0 0
SMALL
GASTEIGER

@<TRIPOS>ATOM
      1 C           0.2579    0.3068   -2.4354 C.ar    1  LIG1        0.0157
      2 C           0.6618    0.8861   -1.2486 C.ar    1  LIG1        0.0256
      3 C          -0.3451    0.6314   -0.2601 C.ar    1  LIG1       -0.0106
      4 C          -1.3460   -0.0903   -0.8942 C.ar    1  LIG1        0.0680
      5 N          -0.9454   -0.3015   -2.2098 N.ar    1  LIG1       -0.3583
      6 H          -1.5474   -0.6764   -2.9262 H       1  LIG1        0.1654
      7 H           0.7408    0.2859   -3.4004 H       1  LIG1        0.0818
      8 S           2.2398    1.6676   -1.0051 S.3     1  LIG1       -0.1409
      9 H           1.8163    2.9459   -0.8827 H       1  LIG1        0.1072
     10 C          -0.2950    1.0300    1.1818 C.3     1  LIG1       -0.0366
     11 H          -0.9919    0.4348    1.7781 H       1  LIG1        0.0279
     12 H          -0.5642    2.0834    1.3219 H       1  LIG1        0.0279
     13 H           0.7138    0.8954    1.5850 H       1  LIG1        0.0279
     14 C          -2.5920   -0.6629   -0.4044 C.ar    1  LIG1        0.0772
     15 C          -3.6928   -0.1173    0.2533 C.ar    1  LIG1        0.0351
     16 C          -4.6548   -1.1529    0.4722 C.ar    1  LIG1       -0.0099
     17 C          -4.1277   -2.3123   -0.0807 C.ar    1  LIG1        0.0685
     18 N          -2.8777   -1.9984   -0.5913 N.ar    1  LIG1       -0.3508
     19 H          -2.2611   -2.6533   -1.0470 H       1  LIG1        0.1660
     20 S          -3.8363    1.5777    0.7689 S.3     1  LIG1       -0.1403
     21 H          -4.8879    1.9185   -0.0092 H       1  LIG1        0.1072
     22 C          -5.9653   -1.0096    1.1813 C.3     1  LIG1       -0.0366
     23 H          -6.3497   -1.9839    1.4952 H       1  LIG1        0.0279
     24 H          -6.7282   -0.5499    0.5419 H       1  LIG1        0.0279
     25 H          -5.8572   -0.3744    2.0664 H       1  LIG1        0.0279
     26 C          -4.6261   -3.6796   -0.1289 C.ar    1  LIG1        0.0772
     27 C          -5.8045   -4.2402   -0.6171 C.ar    1  LIG1        0.0351
     28 C          -5.7532   -5.6561   -0.4235 C.ar    1  LIG1       -0.0099
     29 C          -4.5252   -5.9351    0.1621 C.ar    1  LIG1        0.0685
     30 N          -3.8659   -4.7297    0.3416 N.ar    1  LIG1       -0.3508
     31 H          -2.9611   -4.6313    0.7755 H       1  LIG1        0.1660
     32 S          -7.1551   -3.3201   -1.3158 S.3     1  LIG1       -0.1403
     33 H          -7.1351   -3.8737   -2.5485 H       1  LIG1        0.1072
     34 C          -6.8291   -6.6381   -0.7680 C.3     1  LIG1       -0.0366
     35 H          -6.6863   -7.5788   -0.2295 H       1  LIG1        0.0279
     36 H          -6.8396   -6.8751   -1.8385 H       1  LIG1        0.0279
     37 H          -7.8146   -6.2353   -0.5131 H       1  LIG1        0.0279
     38 C          -3.9289   -7.1808    0.6231 C.ar    1  LIG1        0.0768
     39 C          -3.6802   -8.3982   -0.0046 C.ar    1  LIG1        0.0344
     40 C          -3.0581   -9.2779    0.9420 C.ar    1  LIG1       -0.0193
     41 C          -2.9337   -8.5629    2.1125 C.ar    1  LIG1        0.0062
     42 N          -3.4469   -7.3018    1.9135 N.ar    1  LIG1       -0.3584
     43 H          -3.6366   -6.6340    2.6445 H       1  LIG1        0.1654
     44 H          -2.5194   -8.8550    3.0665 H       1  LIG1        0.0810
     45 S          -4.0906   -8.7865   -1.6898 S.3     1  LIG1       -0.1403
     46 H          -2.8327   -8.9601   -2.1544 H       1  LIG1        0.1072
     47 C          -2.6065  -10.6848    0.6949 C.3     1  LIG1       -0.0372
     48 H          -2.2712  -11.1579    1.6223 H       1  LIG1        0.0278
     49 H          -1.7736  -10.7287   -0.0176 H       1  LIG1        0.0278
     50 H          -3.4156  -11.2915    0.2746 H       1  LIG1        0.0278
@<TRIPOS>BOND
     1     7     1    1
     2     6     5    1
     3    33    32    1
     4     1     5   ar
     5     1     2   ar
     6     5     4   ar
     7    46    45    1
     8    36    34    1
     9    45    39    1
    10    32    27    1
    11     2     8    1
    12     2     3   ar
    13    19    18    1
    14     8     9    1
    15     4    14    1
    16     4     3   ar
    17    34    37    1
    18    34    28    1
    19    34    35    1
    20    27    28   ar
    21    27    26   ar
    22    18    14   ar
    23    18    17   ar
    24    28    29   ar
    25    14    15   ar
    26     3    10    1
    27    26    17    1
    28    26    30   ar
    29    17    16   ar
    30    49    47    1
    31    21    20    1
    32    39    38   ar
    33    39    40   ar
    34    29    30   ar
    35    29    38    1
    36    15    16   ar
    37    15    20    1
    38    50    47    1
    39    30    31    1
    40    16    22    1
    41    24    22    1
    42    38    42   ar
    43    47    40    1
    44    47    48    1
    45    40    41   ar
    46    22    23    1
    47    22    25    1
    48    10    12    1
    49    10    13    1
    50    10    11    1
    51    42    41   ar
    52    42    43    1
    53    41    44    1
