@<TRIPOS>MOLECULE
mol_data/opt/b3lyp/geoms/mol2/13gi13gi13gi-.out
 38 40 0 0 0
SMALL
GASTEIGER

@<TRIPOS>ATOM
      1 C           0.8466   -0.0941   -1.4693 C.ar    1  LIG1        0.0157
      2 C           0.8213    0.8776   -0.4884 C.ar    1  LIG1        0.0256
      3 C          -0.4606    0.8344    0.1525 C.ar    1  LIG1       -0.0106
      4 C          -1.1844   -0.1653   -0.4813 C.ar    1  LIG1        0.0680
      5 N          -0.3597   -0.7371   -1.4450 N.ar    1  LIG1       -0.3583
      6 H          -0.6819   -1.3888   -2.1433 H       1  LIG1        0.1654
      7 H           1.6288   -0.3648   -2.1619 H       1  LIG1        0.0818
      8 S           2.2208    1.8769   -0.0378 S.3     1  LIG1       -0.1409
      9 H           1.7726    3.0691   -0.4917 H       1  LIG1        0.1072
     10 C          -0.9041    1.6752    1.3090 C.3     1  LIG1       -0.0366
     11 H          -1.7605    1.2232    1.8168 H       1  LIG1        0.0279
     12 H          -1.2076    2.6789    0.9895 H       1  LIG1        0.0279
     13 H          -0.0918    1.7954    2.0329 H       1  LIG1        0.0279
     14 C          -2.5227   -0.6911   -0.2526 C.ar    1  LIG1        0.0772
     15 C          -3.7803   -0.0928   -0.2028 C.ar    1  LIG1        0.0351
     16 C          -4.7609   -1.1069    0.0333 C.ar    1  LIG1       -0.0099
     17 C          -4.0793   -2.3149    0.0990 C.ar    1  LIG1        0.0685
     18 N          -2.7304   -2.0407   -0.0632 N.ar    1  LIG1       -0.3508
     19 H          -1.9965   -2.7314   -0.0356 H       1  LIG1        0.1660
     20 S          -4.0864    1.6507   -0.3621 S.3     1  LIG1       -0.1403
     21 H          -4.8353    1.6041   -1.4864 H       1  LIG1        0.1072
     22 C          -6.2333   -0.8941    0.1984 C.3     1  LIG1       -0.0366
     23 H          -6.6993   -1.7498    0.6945 H       1  LIG1        0.0279
     24 H          -6.7386   -0.7627   -0.7658 H       1  LIG1        0.0279
     25 H          -6.4279    0.0037    0.7939 H       1  LIG1        0.0279
     26 C          -4.5342   -3.6746    0.3509 C.ar    1  LIG1        0.0768
     27 C          -5.4988   -4.4754   -0.2543 C.ar    1  LIG1        0.0344
     28 C          -5.5194   -5.7445    0.4137 C.ar    1  LIG1       -0.0193
     29 C          -4.5553   -5.6819    1.3952 C.ar    1  LIG1        0.0062
     30 N          -3.9592   -4.4426    1.3469 N.ar    1  LIG1       -0.3584
     31 H          -3.3455   -4.0690    2.0540 H       1  LIG1        0.1654
     32 H          -4.2495   -6.4230    2.1194 H       1  LIG1        0.0810
     33 S          -6.5359   -3.9838   -1.6113 S.3     1  LIG1       -0.1403
     34 H          -6.0813   -4.8704   -2.5254 H       1  LIG1        0.1072
     35 C          -6.3964   -6.9142    0.0871 C.3     1  LIG1       -0.0372
     36 H          -6.2846   -7.7083    0.8309 H       1  LIG1        0.0278
     37 H          -6.1582   -7.3447   -0.8934 H       1  LIG1        0.0278
     38 H          -7.4511   -6.6204    0.0564 H       1  LIG1        0.0278
@<TRIPOS>BOND
     1    34    33    1
     2     7     1    1
     3     6     5    1
     4    33    27    1
     5    21    20    1
     6     1     5   ar
     7     1     2   ar
     8     5     4   ar
     9    37    35    1
    10    24    22    1
    11     9     8    1
    12     2     8    1
    13     2     3   ar
    14     4    14    1
    15     4     3   ar
    16    20    15    1
    17    27    26   ar
    18    27    28   ar
    19    14    15   ar
    20    14    18   ar
    21    15    16   ar
    22    18    19    1
    23    18    17   ar
    24    16    17   ar
    25    16    22    1
    26    38    35    1
    27    35    28    1
    28    35    36    1
    29    17    26    1
    30     3    10    1
    31    22    23    1
    32    22    25    1
    33    26    30   ar
    34    28    29   ar
    35    12    10    1
    36    10    11    1
    37    10    13    1
    38    30    29   ar
    39    30    31    1
    40    29    32    1
