@<TRIPOS>MOLECULE
mol_data/opt/b3lyp/geoms/mol2/13gi13gi-13gi.out
 38 40 0 0 0
SMALL
GASTEIGER

@<TRIPOS>ATOM
      1 C           0.8576   -0.1145   -1.4496 C.ar    1  LIG1        0.0157
      2 C           0.8266    0.8688   -0.4806 C.ar    1  LIG1        0.0256
      3 C          -0.4596    0.8344    0.1522 C.ar    1  LIG1       -0.0106
      4 C          -1.1801   -0.1721   -0.4746 C.ar    1  LIG1        0.0680
      5 N          -0.3495   -0.7562   -1.4258 N.ar    1  LIG1       -0.3583
      6 H          -0.6676   -1.4155   -2.1187 H       1  LIG1        0.1654
      7 H           1.6441   -0.3940   -2.1338 H       1  LIG1        0.0818
      8 S           2.2239    1.8726   -0.0327 S.3     1  LIG1       -0.1409
      9 H           1.7804    3.0592   -0.5053 H       1  LIG1        0.1072
     10 C          -0.9099    1.6890    1.2959 C.3     1  LIG1       -0.0366
     11 H          -1.7691    1.2430    1.8041 H       1  LIG1        0.0279
     12 H          -1.2116    2.6888    0.9627 H       1  LIG1        0.0279
     13 H          -0.1017    1.8180    2.0230 H       1  LIG1        0.0279
     14 C          -2.5202   -0.6943   -0.2484 C.ar    1  LIG1        0.0772
     15 C          -3.7774   -0.0944   -0.2118 C.ar    1  LIG1        0.0351
     16 C          -4.7603   -1.1052    0.0292 C.ar    1  LIG1       -0.0099
     17 C          -4.0803   -2.3130    0.1112 C.ar    1  LIG1        0.0685
     18 N          -2.7302   -2.0418   -0.0463 N.ar    1  LIG1       -0.3508
     19 H          -1.9971   -2.7326   -0.0061 H       1  LIG1        0.1660
     20 S          -4.0816    1.6473   -0.3921 S.3     1  LIG1       -0.1403
     21 H          -4.8232    1.5887   -1.5207 H       1  LIG1        0.1072
     22 C          -6.2336   -0.8896    0.1830 C.3     1  LIG1       -0.0366
     23 H          -6.7032   -1.7396    0.6854 H       1  LIG1        0.0279
     24 H          -6.7329   -0.7680   -0.7856 H       1  LIG1        0.0279
     25 H          -6.4311    0.0146    0.7676 H       1  LIG1        0.0279
     26 C          -4.5380   -3.6697    0.3751 C.ar    1  LIG1        0.0768
     27 C          -5.4988   -4.4764   -0.2280 C.ar    1  LIG1        0.0344
     28 C          -5.5252   -5.7380    0.4538 C.ar    1  LIG1       -0.0193
     29 C          -4.5680   -5.6653    1.4414 C.ar    1  LIG1        0.0062
     30 N          -3.9707   -4.4269    1.3836 N.ar    1  LIG1       -0.3584
     31 H          -3.3618   -4.0460    2.0911 H       1  LIG1        0.1654
     32 H          -4.2679   -6.3984    2.1759 H       1  LIG1        0.0810
     33 S          -6.5262   -3.9987   -1.5972 S.3     1  LIG1       -0.1403
     34 H          -6.0697   -4.8989   -2.4970 H       1  LIG1        0.1072
     35 C          -6.4007   -6.9107    0.1339 C.3     1  LIG1       -0.0372
     36 H          -6.2963   -7.6958    0.8881 H       1  LIG1        0.0278
     37 H          -6.1546   -7.3533   -0.8393 H       1  LIG1        0.0278
     38 H          -7.4547   -6.6161    0.0906 H       1  LIG1        0.0278
@<TRIPOS>BOND
     1    34    33    1
     2     7     1    1
     3     6     5    1
     4    33    27    1
     5    21    20    1
     6     1     5   ar
     7     1     2   ar
     8     5     4   ar
     9    37    35    1
    10    24    22    1
    11     9     8    1
    12     2     8    1
    13     2     3   ar
    14     4    14    1
    15     4     3   ar
    16    20    15    1
    17    14    15   ar
    18    14    18   ar
    19    27    26   ar
    20    27    28   ar
    21    15    16   ar
    22    18    19    1
    23    18    17   ar
    24    16    17   ar
    25    16    22    1
    26    38    35    1
    27    17    26    1
    28    35    28    1
    29    35    36    1
    30     3    10    1
    31    22    23    1
    32    22    25    1
    33    26    30   ar
    34    28    29   ar
    35    12    10    1
    36    10    11    1
    37    10    13    1
    38    30    29   ar
    39    30    31    1
    40    29    32    1
