@<TRIPOS>MOLECULE
mol_data/opt/b3lyp/geoms/mol2/13gi13gi-13gi13gi.out
 50 53 0 0 0
SMALL
GASTEIGER

@<TRIPOS>ATOM
      1 C           0.2853    0.2638   -2.4241 C.ar    1  LIG1        0.0157
      2 C           0.6775    0.8624   -1.2431 C.ar    1  LIG1        0.0256
      3 C          -0.3396    0.6248   -0.2608 C.ar    1  LIG1       -0.0106
      4 C          -1.3345   -0.1068   -0.8930 C.ar    1  LIG1        0.0680
      5 N          -0.9207   -0.3400   -2.2007 N.ar    1  LIG1       -0.3583
      6 H          -1.5157   -0.7262   -2.9169 H       1  LIG1        0.1654
      7 H           0.7779    0.2266   -3.3837 H       1  LIG1        0.0818
      8 S           2.2537    1.6468   -0.9965 S.3     1  LIG1       -0.1409
      9 H           1.8301    2.9273   -0.9000 H       1  LIG1        0.1072
     10 C          -0.3038    1.0471    1.1748 C.3     1  LIG1       -0.0366
     11 H          -1.0076    0.4626    1.7736 H       1  LIG1        0.0279
     12 H          -0.5729    2.1030    1.2947 H       1  LIG1        0.0279
     13 H           0.7007    0.9179    1.5905 H       1  LIG1        0.0279
     14 C          -2.5859   -0.6702   -0.4064 C.ar    1  LIG1        0.0772
     15 C          -3.6929   -0.1129    0.2307 C.ar    1  LIG1        0.0351
     16 C          -4.6579   -1.1440    0.4574 C.ar    1  LIG1       -0.0099
     17 C          -4.1260   -2.3129   -0.0702 C.ar    1  LIG1        0.0685
     18 N          -2.8707   -2.0085   -0.5734 N.ar    1  LIG1       -0.3508
     19 H          -2.2500   -2.6715   -1.0115 H       1  LIG1        0.1660
     20 S          -3.8402    1.5908    0.7160 S.3     1  LIG1       -0.1403
     21 H          -4.8848    1.9183   -0.0768 H       1  LIG1        0.1072
     22 C          -5.9753   -0.9878    1.1508 C.3     1  LIG1       -0.0366
     23 H          -6.3638   -1.9564    1.4771 H       1  LIG1        0.0279
     24 H          -6.7313   -0.5383    0.4960 H       1  LIG1        0.0279
     25 H          -5.8756   -0.3379    2.0261 H       1  LIG1        0.0279
     26 C          -4.6251   -3.6805   -0.1005 C.ar    1  LIG1        0.0772
     27 C          -5.7990   -4.2485   -0.5912 C.ar    1  LIG1        0.0351
     28 C          -5.7507   -5.6610   -0.3733 C.ar    1  LIG1       -0.0099
     29 C          -4.5290   -5.9309    0.2293 C.ar    1  LIG1        0.0685
     30 N          -3.8705   -4.7230    0.3952 N.ar    1  LIG1       -0.3508
     31 H          -2.9700   -4.6179    0.8365 H       1  LIG1        0.1660
     32 S          -7.1418   -3.3396   -1.3189 S.3     1  LIG1       -0.1403
     33 H          -7.1100   -3.9144   -2.5417 H       1  LIG1        0.1072
     34 C          -6.8239   -6.6480   -0.7120 C.3     1  LIG1       -0.0366
     35 H          -6.6873   -7.5796   -0.1563 H       1  LIG1        0.0279
     36 H          -6.8237   -6.9031   -1.7784 H       1  LIG1        0.0279
     37 H          -7.8116   -6.2403   -0.4740 H       1  LIG1        0.0279
     38 C          -3.9381   -7.1691    0.7171 C.ar    1  LIG1        0.0768
     39 C          -3.6841   -8.3970    0.1126 C.ar    1  LIG1        0.0344
     40 C          -3.0722   -9.2610    1.0802 C.ar    1  LIG1       -0.0193
     41 C          -2.9592   -8.5265    2.2397 C.ar    1  LIG1        0.0062
     42 N          -3.4694   -7.2686    2.0143 N.ar    1  LIG1       -0.3584
     43 H          -3.6659   -6.5884    2.7319 H       1  LIG1        0.1654
     44 H          -2.5548   -8.8027    3.2026 H       1  LIG1        0.0810
     45 S          -4.0778   -8.8135   -1.5698 S.3     1  LIG1       -0.1403
     46 H          -2.8153   -8.9950   -2.0189 H       1  LIG1        0.1072
     47 C          -2.6191  -10.6721    0.8614 C.3     1  LIG1       -0.0372
     48 H          -2.2932  -11.1296    1.7998 H       1  LIG1        0.0278
     49 H          -1.7794  -10.7284    0.1578 H       1  LIG1        0.0278
     50 H          -3.4246  -11.2854    0.4436 H       1  LIG1        0.0278
@<TRIPOS>BOND
     1     7     1    1
     2     6     5    1
     3    33    32    1
     4     1     5   ar
     5     1     2   ar
     6     5     4   ar
     7    46    45    1
     8    36    34    1
     9    45    39    1
    10    32    27    1
    11     2     8    1
    12     2     3   ar
    13    19    18    1
    14     8     9    1
    15     4    14    1
    16     4     3   ar
    17    34    37    1
    18    34    28    1
    19    34    35    1
    20    27    28   ar
    21    27    26   ar
    22    18    14   ar
    23    18    17   ar
    24    14    15   ar
    25    28    29   ar
    26     3    10    1
    27    26    17    1
    28    26    30   ar
    29    21    20    1
    30    17    16   ar
    31    39    38   ar
    32    39    40   ar
    33    49    47    1
    34    29    30   ar
    35    29    38    1
    36    15    16   ar
    37    15    20    1
    38    30    31    1
    39    50    47    1
    40    16    22    1
    41    24    22    1
    42    38    42   ar
    43    47    40    1
    44    47    48    1
    45    40    41   ar
    46    22    23    1
    47    22    25    1
    48    10    12    1
    49    10    13    1
    50    10    11    1
    51    42    41   ar
    52    42    43    1
    53    41    44    1
