@<TRIPOS>MOLECULE
mol_data/opt/b3lyp/geoms/mol2/13gi13gi13gi.out
 38 40 0 0 0
SMALL
GASTEIGER

@<TRIPOS>ATOM
      1 C           0.8465   -0.0908   -1.4679 C.ar    1  LIG1        0.0157
      2 C           0.8201    0.8801   -0.4864 C.ar    1  LIG1        0.0256
      3 C          -0.4621    0.8359    0.1538 C.ar    1  LIG1       -0.0106
      4 C          -1.1851   -0.1637   -0.4812 C.ar    1  LIG1        0.0680
      5 N          -0.3595   -0.7345   -1.4448 N.ar    1  LIG1       -0.3583
      6 H          -0.6809   -1.3858   -2.1438 H       1  LIG1        0.1654
      7 H           1.6293   -0.3605   -2.1602 H       1  LIG1        0.0818
      8 S           2.2187    1.8801   -0.0343 S.3     1  LIG1       -0.1409
      9 H           1.7700    3.0723   -0.4876 H       1  LIG1        0.1072
     10 C          -0.9068    1.6755    1.3106 C.3     1  LIG1       -0.0366
     11 H          -1.7633    1.2228    1.8174 H       1  LIG1        0.0279
     12 H          -1.2105    2.6794    0.9917 H       1  LIG1        0.0279
     13 H          -0.0951    1.7956    2.0352 H       1  LIG1        0.0279
     14 C          -2.5232   -0.6905   -0.2537 C.ar    1  LIG1        0.0772
     15 C          -3.7811   -0.0929   -0.2041 C.ar    1  LIG1        0.0351
     16 C          -4.7613   -1.1077    0.0306 C.ar    1  LIG1       -0.0099
     17 C          -4.0791   -2.3154    0.0957 C.ar    1  LIG1        0.0685
     18 N          -2.7303   -2.0403   -0.0654 N.ar    1  LIG1       -0.3508
     19 H          -1.9960   -2.7307   -0.0379 H       1  LIG1        0.1660
     20 S          -4.0881    1.6505   -0.3623 S.3     1  LIG1       -0.1403
     21 H          -4.8362    1.6043   -1.4872 H       1  LIG1        0.1072
     22 C          -6.2340   -0.8958    0.1949 C.3     1  LIG1       -0.0366
     23 H          -6.6998   -1.7521    0.6900 H       1  LIG1        0.0279
     24 H          -6.7387   -0.7637   -0.7695 H       1  LIG1        0.0279
     25 H          -6.4294    0.0014    0.7910 H       1  LIG1        0.0279
     26 C          -4.5334   -3.6756    0.3464 C.ar    1  LIG1        0.0768
     27 C          -5.4973   -4.4764   -0.2599 C.ar    1  LIG1        0.0344
     28 C          -5.5176   -5.7460    0.4072 C.ar    1  LIG1       -0.0193
     29 C          -4.5541   -5.6836    1.3893 C.ar    1  LIG1        0.0062
     30 N          -3.9586   -4.4439    1.3421 N.ar    1  LIG1       -0.3584
     31 H          -3.3453   -4.0706    2.0498 H       1  LIG1        0.1654
     32 H          -4.2482   -6.4250    2.1130 H       1  LIG1        0.0810
     33 S          -6.5339   -3.9844   -1.6171 S.3     1  LIG1       -0.1403
     34 H          -6.0783   -4.8701   -2.5316 H       1  LIG1        0.1072
     35 C          -6.3938   -6.9159    0.0793 C.3     1  LIG1       -0.0372
     36 H          -6.2820   -7.7105    0.8225 H       1  LIG1        0.0278
     37 H          -6.1548   -7.3456   -0.9014 H       1  LIG1        0.0278
     38 H          -7.4486   -6.6227    0.0482 H       1  LIG1        0.0278
@<TRIPOS>BOND
     1    34    33    1
     2     7     1    1
     3     6     5    1
     4    33    27    1
     5    21    20    1
     6     1     5   ar
     7     1     2   ar
     8     5     4   ar
     9    37    35    1
    10    24    22    1
    11     9     8    1
    12     2     8    1
    13     2     3   ar
    14     4    14    1
    15     4     3   ar
    16    20    15    1
    17    27    26   ar
    18    27    28   ar
    19    14    15   ar
    20    14    18   ar
    21    15    16   ar
    22    18    19    1
    23    18    17   ar
    24    16    17   ar
    25    16    22    1
    26    38    35    1
    27    35    28    1
    28    35    36    1
    29    17    26    1
    30     3    10    1
    31    22    23    1
    32    22    25    1
    33    26    30   ar
    34    28    29   ar
    35    12    10    1
    36    10    11    1
    37    10    13    1
    38    30    29   ar
    39    30    31    1
    40    29    32    1
