@<TRIPOS>MOLECULE
mol_data/opt/b3lyp/geoms/mol2/13gi13gi-13gi-13gi.out
 50 53 0 0 0
SMALL
GASTEIGER

@<TRIPOS>ATOM
      1 C           0.2648    0.2729   -2.4478 C.ar    1  LIG1        0.0157
      2 C           0.6661    0.8682   -1.2682 C.ar    1  LIG1        0.0256
      3 C          -0.3430    0.6273   -0.2785 C.ar    1  LIG1       -0.0106
      4 C          -1.3427   -0.1027   -0.9050 C.ar    1  LIG1        0.0680
      5 N          -0.9392   -0.3321   -2.2166 N.ar    1  LIG1       -0.3583
      6 H          -1.5401   -0.7155   -2.9294 H       1  LIG1        0.1654
      7 H           0.7497    0.2388   -3.4115 H       1  LIG1        0.0818
      8 S           2.2440    1.6526   -1.0319 S.3     1  LIG1       -0.1409
      9 H           1.8206    2.9326   -0.9282 H       1  LIG1        0.1072
     10 C          -0.2957    1.0453    1.1580 C.3     1  LIG1       -0.0366
     11 H          -0.9932    0.4576    1.7610 H       1  LIG1        0.0279
     12 H          -0.5660    2.1002    1.2834 H       1  LIG1        0.0279
     13 H           0.7125    0.9169    1.5647 H       1  LIG1        0.0279
     14 C          -2.5897   -0.6684   -0.4099 C.ar    1  LIG1        0.0772
     15 C          -3.6911   -0.1141    0.2394 C.ar    1  LIG1        0.0351
     16 C          -4.6540   -1.1463    0.4700 C.ar    1  LIG1       -0.0099
     17 C          -4.1268   -2.3128   -0.0677 C.ar    1  LIG1        0.0685
     18 N          -2.8760   -2.0060   -0.5806 N.ar    1  LIG1       -0.3508
     19 H          -2.2589   -2.6670   -1.0266 H       1  LIG1        0.1660
     20 S          -3.8345    1.5875    0.7332 S.3     1  LIG1       -0.1403
     21 H          -4.8861    1.9181   -0.0491 H       1  LIG1        0.1072
     22 C          -5.9653   -0.9932    1.1754 C.3     1  LIG1       -0.0366
     23 H          -6.3508   -1.9632    1.5012 H       1  LIG1        0.0279
     24 H          -6.7270   -0.5413    0.5290 H       1  LIG1        0.0279
     25 H          -5.8581   -0.3468    2.0524 H       1  LIG1        0.0279
     26 C          -4.6259   -3.6803   -0.0995 C.ar    1  LIG1        0.0772
     27 C          -5.8043   -4.2462   -0.5819 C.ar    1  LIG1        0.0351
     28 C          -5.7539   -5.6596   -0.3707 C.ar    1  LIG1       -0.0099
     29 C          -4.5268   -5.9320    0.2195 C.ar    1  LIG1        0.0685
     30 N          -3.8668   -4.7249    0.3845 N.ar    1  LIG1       -0.3508
     31 H          -2.9627   -4.6216    0.8189 H       1  LIG1        0.1660
     32 S          -7.1537   -3.3344   -1.2939 S.3     1  LIG1       -0.1403
     33 H          -7.1303   -3.9013   -2.5205 H       1  LIG1        0.1072
     34 C          -6.8298   -6.6453   -0.7045 C.3     1  LIG1       -0.0366
     35 H          -6.6885   -7.5793   -0.1540 H       1  LIG1        0.0279
     36 H          -6.8386   -6.8958   -1.7720 H       1  LIG1        0.0279
     37 H          -7.8155   -6.2389   -0.4565 H       1  LIG1        0.0279
     38 C          -3.9317   -7.1725    0.6965 C.ar    1  LIG1        0.0768
     39 C          -3.6822   -8.3971    0.0835 C.ar    1  LIG1        0.0344
     40 C          -3.0624   -9.2661    1.0415 C.ar    1  LIG1       -0.0193
     41 C          -2.9401   -8.5375    2.2039 C.ar    1  LIG1        0.0062
     42 N          -3.4525   -7.2786    1.9892 N.ar    1  LIG1       -0.3584
     43 H          -3.6431   -6.6021    2.7120 H       1  LIG1        0.1654
     44 H          -2.5277   -8.8185    3.1620 H       1  LIG1        0.0810
     45 S          -4.0902   -8.8049   -1.5977 S.3     1  LIG1       -0.1403
     46 H          -2.8317   -8.9878   -2.0573 H       1  LIG1        0.1072
     47 C          -2.6108  -10.6758    0.8118 C.3     1  LIG1       -0.0372
     48 H          -2.2779  -11.1383    1.7453 H       1  LIG1        0.0278
     49 H          -1.7763  -10.7283    0.1017 H       1  LIG1        0.0278
     50 H          -3.4193  -11.2870    0.3967 H       1  LIG1        0.0278
@<TRIPOS>BOND
     1     7     1    1
     2     6     5    1
     3    33    32    1
     4     1     5   ar
     5     1     2   ar
     6     5     4   ar
     7    46    45    1
     8    36    34    1
     9    45    39    1
    10    32    27    1
    11     2     8    1
    12     2     3   ar
    13     8     9    1
    14    19    18    1
    15     4    14    1
    16     4     3   ar
    17    34    37    1
    18    34    28    1
    19    34    35    1
    20    27    28   ar
    21    27    26   ar
    22    18    14   ar
    23    18    17   ar
    24    14    15   ar
    25    28    29   ar
    26     3    10    1
    27    26    17    1
    28    26    30   ar
    29    17    16   ar
    30    21    20    1
    31    39    38   ar
    32    39    40   ar
    33    49    47    1
    34    29    30   ar
    35    29    38    1
    36    15    16   ar
    37    15    20    1
    38    30    31    1
    39    50    47    1
    40    16    22    1
    41    24    22    1
    42    38    42   ar
    43    47    40    1
    44    47    48    1
    45    40    41   ar
    46    10    12    1
    47    10    13    1
    48    10    11    1
    49    22    23    1
    50    22    25    1
    51    42    41   ar
    52    42    43    1
    53    41    44    1
