@<TRIPOS>MOLECULE
mol_data/opt/b3lyp/geoms/mol2/13gl13gl13gl-.out
 41 43 0 0 0
SMALL
GASTEIGER

@<TRIPOS>ATOM
      1 C           1.3445   -0.3760    0.8322 C.ar    1  LIG1        0.0191
      2 C           1.1860    0.7967    0.1169 C.ar    1  LIG1        0.0645
      3 C          -0.2139    0.9161   -0.1832 C.ar    1  LIG1        0.1598
      4 C          -0.8620   -0.1823    0.3660 C.ar    1  LIG1        0.1074
      5 N           0.1219   -0.9715    0.9566 N.ar    1  LIG1       -0.3555
      6 H          -0.0826   -1.7360    1.5812 H       1  LIG1        0.1655
      7 H           2.2408   -0.8148    1.2432 H       1  LIG1        0.0819
      8 S           2.5405    1.7885   -0.4666 S.3     1  LIG1       -0.1377
      9 H           2.5282    2.7481    0.4871 H       1  LIG1        0.1073
     10 O          -0.8488    1.8316   -0.9662 O.3     1  LIG1       -0.4918
     11 C          -0.7000    3.2070   -0.5955 C.3     1  LIG1        0.0789
     12 H          -1.3780    3.7655   -1.2433 H       1  LIG1        0.0660
     13 H          -0.9888    3.3623    0.4500 H       1  LIG1        0.0660
     14 H           0.3240    3.5550   -0.7572 H       1  LIG1        0.0660
     15 C          -2.2444   -0.6146    0.3181 C.ar    1  LIG1        0.0840
     16 C          -3.4444    0.0521    0.5424 C.ar    1  LIG1        0.0741
     17 C          -4.4949   -0.9001    0.4054 C.ar    1  LIG1        0.1605
     18 C          -3.9352   -2.1363    0.1097 C.ar    1  LIG1        0.1079
     19 N          -2.5674   -1.9345    0.0490 N.ar    1  LIG1       -0.3479
     20 H          -1.8916   -2.6552   -0.1492 H       1  LIG1        0.1661
     21 S          -3.6429    1.7692    0.9257 S.3     1  LIG1       -0.1370
     22 H          -4.6541    1.5914    1.8019 H       1  LIG1        0.1073
     23 O          -5.8272   -0.6520    0.5903 O.3     1  LIG1       -0.4918
     24 C          -6.4994   -0.1530   -0.5738 C.3     1  LIG1        0.0789
     25 H          -7.5346    0.0260   -0.2772 H       1  LIG1        0.0660
     26 H          -6.0473    0.7831   -0.9198 H       1  LIG1        0.0660
     27 H          -6.4748   -0.8914   -1.3839 H       1  LIG1        0.0660
     28 C          -4.5408   -3.4246   -0.1510 C.ar    1  LIG1        0.0835
     29 C          -5.5988   -4.0905    0.4551 C.ar    1  LIG1        0.0734
     30 C          -5.7482   -5.3451   -0.2183 C.ar    1  LIG1        0.1511
     31 C          -4.7868   -5.4229   -1.2011 C.ar    1  LIG1        0.0455
     32 N          -4.0455   -4.2636   -1.1421 N.ar    1  LIG1       -0.3555
     33 H          -3.4409   -3.9435   -1.8825 H       1  LIG1        0.1655
     34 H          -4.5672   -6.2129   -1.9023 H       1  LIG1        0.0845
     35 S          -6.5493   -3.5440    1.8471 S.3     1  LIG1       -0.1370
     36 H          -6.7654   -4.7911    2.3194 H       1  LIG1        0.1073
     37 O          -6.6261   -6.3374    0.1284 O.3     1  LIG1       -0.4925
     38 C          -7.9495   -6.1511   -0.3860 C.3     1  LIG1        0.0789
     39 H          -8.5440   -6.9915   -0.0215 H       1  LIG1        0.0660
     40 H          -8.3884   -5.2115   -0.0314 H       1  LIG1        0.0660
     41 H          -7.9468   -6.1543   -1.4832 H       1  LIG1        0.0660
@<TRIPOS>BOND
     1    34    31    1
     2    33    32    1
     3    41    38    1
     4    27    24    1
     5    12    11    1
     6    31    32   ar
     7    31    30   ar
     8    32    28   ar
     9    10    11    1
    10    10     3    1
    11    26    24    1
    12    14    11    1
    13    11    13    1
    14    24    25    1
    15    24    23    1
    16     8     2    1
    17     8     9    1
    18    38    40    1
    19    38    39    1
    20    38    37    1
    21    30    37    1
    22    30    29   ar
    23     3     2   ar
    24     3     4   ar
    25    28    18    1
    26    28    29   ar
    27    20    19    1
    28    19    18   ar
    29    19    15   ar
    30    18    17   ar
    31     2     1   ar
    32    15     4    1
    33    15    16   ar
    34     4     5   ar
    35    17    16   ar
    36    17    23    1
    37    29    35    1
    38    16    21    1
    39     1     5   ar
    40     1     7    1
    41    21    22    1
    42     5     6    1
    43    35    36    1
