@<TRIPOS>MOLECULE
mol_data/opt/b3lyp/geoms/mol2/13gl13gl.out
 28 29 0 0 0
SMALL
GASTEIGER

@<TRIPOS>ATOM
      1 C           1.2924   -0.4801    0.2842 C.ar    1  LIG1        0.0191
      2 C           1.0714    0.8097   -0.1628 C.ar    1  LIG1        0.0645
      3 C          -0.3489    0.9619   -0.3138 C.ar    1  LIG1        0.1598
      4 C          -0.9467   -0.2364    0.0547 C.ar    1  LIG1        0.1074
      5 N           0.0847   -1.1084    0.3903 N.ar    1  LIG1       -0.3555
      6 H          -0.0671   -1.9960    0.8430 H       1  LIG1        0.1655
      7 H           2.2210   -0.9775    0.5189 H       1  LIG1        0.0819
      8 S           2.3666    1.9265   -0.6447 S.3     1  LIG1       -0.1377
      9 H           2.4348    2.6722    0.4822 H       1  LIG1        0.1073
     10 O          -1.0445    2.0090   -0.8386 O.3     1  LIG1       -0.4918
     11 C          -0.8866    3.2730   -0.1843 C.3     1  LIG1        0.0789
     12 H          -1.6075    3.9444   -0.6542 H       1  LIG1        0.0660
     13 H          -1.1136    3.1889    0.8842 H       1  LIG1        0.0660
     14 H           0.1223    3.6720   -0.3235 H       1  LIG1        0.0660
     15 C          -2.3253   -0.6847    0.0374 C.ar    1  LIG1        0.0835
     16 C          -3.5141   -0.0896    0.4401 C.ar    1  LIG1        0.0734
     17 C          -4.5652   -1.0305    0.1964 C.ar    1  LIG1        0.1511
     18 C          -4.0033   -2.1704   -0.3334 C.ar    1  LIG1        0.0455
     19 N          -2.6444   -1.9584   -0.4109 N.ar    1  LIG1       -0.3555
     20 H          -2.0127   -2.5219   -0.9579 H       1  LIG1        0.1655
     21 H          -4.4599   -3.1022   -0.6281 H       1  LIG1        0.0845
     22 S          -3.7024    1.5171    1.1595 S.3     1  LIG1       -0.1370
     23 H          -4.6088    1.1463    2.0893 H       1  LIG1        0.1073
     24 O          -5.8826   -0.8677    0.5306 O.3     1  LIG1       -0.4925
     25 C          -6.6303   -0.0836   -0.4061 C.3     1  LIG1        0.0789
     26 H          -7.6461   -0.0162   -0.0106 H       1  LIG1        0.0660
     27 H          -6.2108    0.9232   -0.5107 H       1  LIG1        0.0660
     28 H          -6.6531   -0.5675   -1.3906 H       1  LIG1        0.0660
@<TRIPOS>BOND
     1    28    25    1
     2    20    19    1
     3    10     3    1
     4    10    11    1
     5    12    11    1
     6     8     2    1
     7     8     9    1
     8    21    18    1
     9    27    25    1
    10    19    18   ar
    11    19    15   ar
    12    25    26    1
    13    25    24    1
    14    18    17   ar
    15    14    11    1
    16     3     2   ar
    17     3     4   ar
    18    11    13    1
    19     2     1   ar
    20    15     4    1
    21    15    16   ar
    22     4     5   ar
    23    17    16   ar
    24    17    24    1
    25     1     5   ar
    26     1     7    1
    27     5     6    1
    28    16    22    1
    29    22    23    1
