@<TRIPOS>MOLECULE
mol_data/opt/b3lyp/geoms/mol2/13gl.out
 15 15 0 0 0
SMALL
GASTEIGER

@<TRIPOS>ATOM
      1 C           1.1220   -0.5366   -0.0007 C.ar    1  LIG1        0.0186
      2 C           0.8423    0.8214    0.0002 C.ar    1  LIG1        0.0638
      3 C          -0.5912    0.9399    0.0009 C.ar    1  LIG1        0.1504
      4 C          -1.1099   -0.3423    0.0006 C.ar    1  LIG1        0.0450
      5 N          -0.0590   -1.2239   -0.0002 N.ar    1  LIG1       -0.3630
      6 H          -0.1451   -2.2261   -0.0008 H       1  LIG1        0.1649
      7 H          -2.1407   -0.6588    0.0010 H       1  LIG1        0.0844
      8 H           2.0758   -1.0406   -0.0015 H       1  LIG1        0.0819
      9 S           2.2139    1.9766    0.0003 S.3     1  LIG1       -0.1377
     10 H           1.5216    3.1230    0.0003 H       1  LIG1        0.1073
     11 O          -1.4610    1.9996    0.0020 O.3     1  LIG1       -0.4925
     12 C          -0.9823    3.3282    0.0011 C.3     1  LIG1        0.0789
     13 H          -1.8694    3.9655    0.0015 H       1  LIG1        0.0660
     14 H          -0.3929    3.5573    0.8989 H       1  LIG1        0.0660
     15 H          -0.3944    3.5565   -0.8980 H       1  LIG1        0.0660
@<TRIPOS>BOND
     1    15    12    1
     2     8     1    1
     3     6     5    1
     4     1     5   ar
     5     1     2   ar
     6     5     4   ar
     7     2     9    1
     8     2     3   ar
     9     9    10    1
    10     4     3   ar
    11     4     7    1
    12     3    11    1
    13    12    13    1
    14    12    11    1
    15    12    14    1
