@<TRIPOS>MOLECULE
mol_data/opt/b3lyp/geoms/mol2/13gl13gl-13gl-13gl.out
 54 57 0 0 0
SMALL
GASTEIGER

@<TRIPOS>ATOM
      1 C           1.3828   -0.5034    0.3124 C.ar    1  LIG1        0.0191
      2 C           1.1198    0.7913    0.7226 C.ar    1  LIG1        0.0645
      3 C          -0.3005    0.9790    0.6271 C.ar    1  LIG1        0.1598
      4 C          -0.8548   -0.2055    0.1522 C.ar    1  LIG1        0.1074
      5 N           0.1980   -1.1015   -0.0043 N.ar    1  LIG1       -0.3555
      6 H           0.1035   -1.9912   -0.4674 H       1  LIG1        0.1655
      7 H           2.3261   -1.0225    0.2390 H       1  LIG1        0.0819
      8 S           2.3452    1.8677    1.4283 S.3     1  LIG1       -0.1377
      9 H           2.6226    2.6184    0.3373 H       1  LIG1        0.1073
     10 O          -1.0573    2.0362    1.0303 O.3     1  LIG1       -0.4918
     11 C          -0.7221    3.3172    0.4844 C.3     1  LIG1        0.0789
     12 H          -1.5191    3.9927    0.7997 H       1  LIG1        0.0660
     13 H           0.2342    3.6774    0.8728 H       1  LIG1        0.0660
     14 H          -0.6929    3.2783   -0.6103 H       1  LIG1        0.0660
     15 C          -2.2224   -0.6198   -0.0662 C.ar    1  LIG1        0.0840
     16 C          -3.3405    0.0481   -0.5405 C.ar    1  LIG1        0.0741
     17 C          -4.4412   -0.8736   -0.5044 C.ar    1  LIG1        0.1605
     18 C          -3.9723   -2.0930   -0.0446 C.ar    1  LIG1        0.1079
     19 N          -2.6016   -1.9355    0.1878 N.ar    1  LIG1       -0.3479
     20 H          -2.1488   -2.4670    0.9197 H       1  LIG1        0.1661
     21 S          -3.3694    1.6959   -1.1892 S.3     1  LIG1       -0.1370
     22 H          -4.1551    1.4089   -2.2504 H       1  LIG1        0.1073
     23 O          -5.6929   -0.6583   -1.0008 O.3     1  LIG1       -0.4918
     24 C          -6.4800    0.3108   -0.2851 C.3     1  LIG1        0.0789
     25 H          -7.4375    0.3592   -0.8066 H       1  LIG1        0.0660
     26 H          -6.6412   -0.0132    0.7473 H       1  LIG1        0.0660
     27 H          -6.0040    1.2957   -0.2927 H       1  LIG1        0.0660
     28 C          -4.5803   -3.4003    0.0844 C.ar    1  LIG1        0.0840
     29 C          -5.8150   -3.8445    0.5521 C.ar    1  LIG1        0.0741
     30 C          -5.8092   -5.2673    0.4881 C.ar    1  LIG1        0.1605
     31 C          -4.5795   -5.6848   -0.0040 C.ar    1  LIG1        0.1079
     32 N          -3.8566   -4.5326   -0.2547 N.ar    1  LIG1       -0.3479
     33 H          -2.9115   -4.5103   -0.6024 H       1  LIG1        0.1661
     34 S          -7.1591   -2.8513    1.1342 S.3     1  LIG1       -0.1370
     35 H          -7.5177   -3.6894    2.1296 H       1  LIG1        0.1073
     36 O          -6.8240   -6.0887    0.8949 O.3     1  LIG1       -0.4918
     37 C          -7.8335   -6.3143   -0.0981 C.3     1  LIG1        0.0789
     38 H          -8.5776   -6.9657    0.3639 H       1  LIG1        0.0660
     39 H          -8.3046   -5.3732   -0.4027 H       1  LIG1        0.0660
     40 H          -7.4095   -6.8117   -0.9783 H       1  LIG1        0.0660
     41 C          -4.0608   -7.0051   -0.2884 C.ar    1  LIG1        0.0835
     42 C          -4.1531   -8.2048    0.4062 C.ar    1  LIG1        0.0734
     43 C          -3.4330   -9.1852   -0.3493 C.ar    1  LIG1        0.1511
     44 C          -2.9151   -8.5713   -1.4678 C.ar    1  LIG1        0.0455
     45 N          -3.2815   -7.2442   -1.4142 N.ar    1  LIG1       -0.3555
     46 H          -3.2568   -6.6217   -2.2067 H       1  LIG1        0.1655
     47 H          -2.3049   -8.9694   -2.2634 H       1  LIG1        0.0845
     48 S          -4.9394   -8.4750    1.9708 S.3     1  LIG1       -0.1370
     49 H          -4.0760   -9.4406    2.3541 H       1  LIG1        0.1073
     50 O          -3.2101  -10.4813    0.0324 O.3     1  LIG1       -0.4925
     51 C          -4.2988  -11.3677   -0.2509 C.3     1  LIG1        0.0789
     52 H          -4.0042  -12.3494    0.1258 H       1  LIG1        0.0660
     53 H          -5.2184  -11.0445    0.2500 H       1  LIG1        0.0660
     54 H          -4.4810  -11.4304   -1.3310 H       1  LIG1        0.0660
@<TRIPOS>BOND
     1    47    44    1
     2    22    21    1
     3    46    45    1
     4    44    45   ar
     5    44    43   ar
     6    45    41   ar
     7    54    51    1
     8    21    16    1
     9    23    17    1
    10    23    24    1
    11    40    37    1
    12    25    24    1
    13    14    11    1
    14    33    32    1
    15    16    17   ar
    16    16    15   ar
    17    17    18   ar
    18     6     5    1
    19    39    37    1
    20    43    50    1
    21    43    42   ar
    22    27    24    1
    23    41    31    1
    24    41    42   ar
    25    24    26    1
    26    32    31   ar
    27    32    28   ar
    28    51    50    1
    29    51    52    1
    30    51    53    1
    31    37    38    1
    32    37    36    1
    33    15     4    1
    34    15    19   ar
    35    18    28    1
    36    18    19   ar
    37     5     4   ar
    38     5     1   ar
    39    31    30   ar
    40    28    29   ar
    41     4     3   ar
    42    19    20    1
    43     7     1    1
    44     1     2   ar
    45     9     8    1
    46    42    48    1
    47    11    12    1
    48    11    13    1
    49    11    10    1
    50    30    29   ar
    51    30    36    1
    52    29    34    1
    53     3     2   ar
    54     3    10    1
    55     2     8    1
    56    34    35    1
    57    48    49    1
