@<TRIPOS>MOLECULE
mol_data/opt/b3lyp/geoms/mol2/13gl13gl13gl-13gl.out
 54 57 0 0 0
SMALL
GASTEIGER

@<TRIPOS>ATOM
      1 C           1.0424    0.0102    1.9096 C.ar    1  LIG1        0.0191
      2 C           1.1221    0.9120    0.8645 C.ar    1  LIG1        0.0645
      3 C          -0.1493    0.8895    0.1964 C.ar    1  LIG1        0.1598
      4 C          -0.9634   -0.0180    0.8611 C.ar    1  LIG1        0.1074
      5 N          -0.1970   -0.5629    1.8885 N.ar    1  LIG1       -0.3555
      6 H          -0.5860   -1.1131    2.6385 H       1  LIG1        0.1655
      7 H           1.7847   -0.2560    2.6464 H       1  LIG1        0.0819
      8 S           2.6208    1.7337    0.3778 S.3     1  LIG1       -0.1377
      9 H           2.4096    2.9296    0.9741 H       1  LIG1        0.1073
     10 O          -0.5204    1.5106   -0.9572 O.3     1  LIG1       -0.4918
     11 C          -0.4305    2.9401   -0.9721 C.3     1  LIG1        0.0789
     12 H          -0.8858    3.2579   -1.9118 H       1  LIG1        0.0660
     13 H          -0.9884    3.3735   -0.1348 H       1  LIG1        0.0660
     14 H           0.6102    3.2751   -0.9433 H       1  LIG1        0.0660
     15 C          -2.3044   -0.4965    0.5892 C.ar    1  LIG1        0.0840
     16 C          -3.4954    0.1614    0.2994 C.ar    1  LIG1        0.0741
     17 C          -4.5122   -0.8291    0.1771 C.ar    1  LIG1        0.1605
     18 C          -3.9444   -2.0764    0.4023 C.ar    1  LIG1        0.1079
     19 N          -2.5981   -1.8492    0.6350 N.ar    1  LIG1       -0.3479
     20 H          -1.9243   -2.5646    0.8578 H       1  LIG1        0.1661
     21 S          -3.7140    1.9085    0.1116 S.3     1  LIG1       -0.1370
     22 H          -4.8899    1.9709    0.7718 H       1  LIG1        0.1073
     23 O          -5.8370   -0.5952   -0.0655 O.3     1  LIG1       -0.4918
     24 C          -6.1611   -0.4131   -1.4502 C.3     1  LIG1        0.0789
     25 H          -7.2355   -0.2246   -1.4908 H       1  LIG1        0.0660
     26 H          -5.6201    0.4404   -1.8736 H       1  LIG1        0.0660
     27 H          -5.9268   -1.3155   -2.0274 H       1  LIG1        0.0660
     28 C          -4.5185   -3.4041    0.3855 C.ar    1  LIG1        0.0840
     29 C          -5.7126   -3.9031    0.8980 C.ar    1  LIG1        0.0741
     30 C          -5.7331   -5.3029    0.6361 C.ar    1  LIG1        0.1605
     31 C          -4.5595   -5.6515   -0.0204 C.ar    1  LIG1        0.1079
     32 N          -3.8418   -4.4786   -0.1735 N.ar    1  LIG1       -0.3479
     33 H          -2.9417   -4.4165   -0.6217 H       1  LIG1        0.1661
     34 S          -6.9705   -2.9952    1.7541 S.3     1  LIG1       -0.1370
     35 H          -7.3653   -4.0525    2.4960 H       1  LIG1        0.1073
     36 O          -6.7203   -6.1690    1.0206 O.3     1  LIG1       -0.4918
     37 C          -7.8045   -6.2762    0.0888 C.3     1  LIG1        0.0789
     38 H          -8.5178   -6.9767    0.5270 H       1  LIG1        0.0660
     39 H          -8.2884   -5.3053   -0.0668 H       1  LIG1        0.0660
     40 H          -7.4541   -6.6672   -0.8736 H       1  LIG1        0.0660
     41 C          -4.0869   -6.9225   -0.5251 C.ar    1  LIG1        0.0835
     42 C          -4.1388   -8.2054    0.0062 C.ar    1  LIG1        0.0734
     43 C          -3.4924   -9.0753   -0.9292 C.ar    1  LIG1        0.1511
     44 C          -3.0566   -8.3165   -1.9924 C.ar    1  LIG1        0.0455
     45 N          -3.4026   -7.0089   -1.7319 N.ar    1  LIG1       -0.3555
     46 H          -3.4241   -6.2832   -2.4310 H       1  LIG1        0.1655
     47 H          -2.5152   -8.6035   -2.8802 H       1  LIG1        0.0845
     48 S          -4.7987   -8.6873    1.5785 S.3     1  LIG1       -0.1370
     49 H          -3.9338   -9.7123    1.7398 H       1  LIG1        0.1073
     50 O          -3.2557  -10.4114   -0.7432 O.3     1  LIG1       -0.4925
     51 C          -4.3703  -11.2514   -1.0637 C.3     1  LIG1        0.0789
     52 H          -4.0584  -12.2752   -0.8464 H       1  LIG1        0.0660
     53 H          -5.2480  -11.0000   -0.4575 H       1  LIG1        0.0660
     54 H          -4.6314  -11.1669   -2.1260 H       1  LIG1        0.0660
@<TRIPOS>BOND
     1    47    44    1
     2    46    45    1
     3    54    51    1
     4    27    24    1
     5    44    45   ar
     6    44    43   ar
     7    12    11    1
     8    26    24    1
     9    45    41   ar
    10    25    24    1
    11    24    23    1
    12    51    52    1
    13    51    50    1
    14    51    53    1
    15    11    10    1
    16    11    14    1
    17    11    13    1
    18    10     3    1
    19    43    50    1
    20    43    42   ar
    21    40    37    1
    22    33    32    1
    23    41    31    1
    24    41    42   ar
    25    32    31   ar
    26    32    28   ar
    27    39    37    1
    28    23    17    1
    29    31    30   ar
    30    42    48    1
    31    37    38    1
    32    37    36    1
    33    21    16    1
    34    21    22    1
    35    17    16   ar
    36    17    18   ar
    37     3     4   ar
    38     3     2   ar
    39    16    15   ar
    40     8     2    1
    41     8     9    1
    42    28    18    1
    43    28    29   ar
    44    18    19   ar
    45    15    19   ar
    46    15     4    1
    47    19    20    1
    48    30    29   ar
    49    30    36    1
    50     4     5   ar
    51     2     1   ar
    52    29    34    1
    53    48    49    1
    54    34    35    1
    55     5     1   ar
    56     5     6    1
    57     1     7    1
