@<TRIPOS>MOLECULE
mol_data/opt/b3lyp/geoms/mol2/13gl13gl-13gl.out
 41 43 0 0 0
SMALL
GASTEIGER

@<TRIPOS>ATOM
      1 C           1.3104   -0.3135   -0.9445 C.ar    1  LIG1        0.0191
      2 C           1.1650    0.8349   -0.1881 C.ar    1  LIG1        0.0645
      3 C          -0.2263    0.9340    0.1562 C.ar    1  LIG1        0.1598
      4 C          -0.8827   -0.1515   -0.4083 C.ar    1  LIG1        0.1074
      5 N           0.0887   -0.9142   -1.0520 N.ar    1  LIG1       -0.3555
      6 H          -0.1288   -1.6603   -1.6942 H       1  LIG1        0.1655
      7 H           2.1973   -0.7323   -1.3948 H       1  LIG1        0.0819
      8 S           2.5293    1.8183    0.3868 S.3     1  LIG1       -0.1377
      9 H           2.4813    2.8082   -0.5344 H       1  LIG1        0.1073
     10 O          -0.8440    1.8197    0.9859 O.3     1  LIG1       -0.4918
     11 C          -0.7161    3.2070    0.6542 C.3     1  LIG1        0.0789
     12 H          -1.3781    3.7397    1.3392 H       1  LIG1        0.0660
     13 H           0.3098    3.5579    0.7960 H       1  LIG1        0.0660
     14 H          -1.0373    3.3925   -0.3769 H       1  LIG1        0.0660
     15 C          -2.2602   -0.5957   -0.3341 C.ar    1  LIG1        0.0840
     16 C          -3.4708    0.0681   -0.5035 C.ar    1  LIG1        0.0741
     17 C          -4.5103   -0.8959   -0.3657 C.ar    1  LIG1        0.1605
     18 C          -3.9338   -2.1362   -0.1240 C.ar    1  LIG1        0.1079
     19 N          -2.5664   -1.9257   -0.0961 N.ar    1  LIG1       -0.3479
     20 H          -1.8802   -2.6469    0.0598 H       1  LIG1        0.1661
     21 S          -3.6919    1.7946   -0.8280 S.3     1  LIG1       -0.1370
     22 H          -4.7271    1.6360   -1.6794 H       1  LIG1        0.1073
     23 O          -5.8491   -0.6526   -0.5045 O.3     1  LIG1       -0.4918
     24 C          -6.4910   -0.1952    0.6933 C.3     1  LIG1        0.0789
     25 H          -7.5355   -0.0155    0.4322 H       1  LIG1        0.0660
     26 H          -6.4376   -0.9578    1.4791 H       1  LIG1        0.0660
     27 H          -6.0358    0.7335    1.0551 H       1  LIG1        0.0660
     28 C          -4.5228   -3.4364    0.1143 C.ar    1  LIG1        0.0835
     29 C          -5.5934   -4.0918   -0.4811 C.ar    1  LIG1        0.0734
     30 C          -5.7141   -5.3676    0.1572 C.ar    1  LIG1        0.1511
     31 C          -4.7238   -5.4680    1.1088 C.ar    1  LIG1        0.0455
     32 N          -3.9928   -4.3016    1.0642 N.ar    1  LIG1       -0.3555
     33 H          -3.3692   -3.9995    1.7963 H       1  LIG1        0.1655
     34 H          -4.4784   -6.2773    1.7786 H       1  LIG1        0.0845
     35 S          -6.5882   -3.5105   -1.8272 S.3     1  LIG1       -0.1370
     36 H          -6.8099   -4.7443   -2.3307 H       1  LIG1        0.1073
     37 O          -6.5948   -6.3557   -0.1945 O.3     1  LIG1       -0.4925
     38 C          -7.9035   -6.1965    0.3647 C.3     1  LIG1        0.0789
     39 H          -8.5026   -7.0299   -0.0083 H       1  LIG1        0.0660
     40 H          -7.8680   -6.2340    1.4607 H       1  LIG1        0.0660
     41 H          -8.3597   -5.2499    0.0531 H       1  LIG1        0.0660
@<TRIPOS>BOND
     1    36    35    1
     2    35    29    1
     3     6     5    1
     4    22    21    1
     5     7     1    1
     6     5     1   ar
     7     5     4   ar
     8     1     2   ar
     9    21    16    1
    10     9     8    1
    11    23    17    1
    12    23    24    1
    13    16    17   ar
    14    16    15   ar
    15    29    28   ar
    16    29    30   ar
    17     4    15    1
    18     4     3   ar
    19    14    11    1
    20    17    18   ar
    21    15    19   ar
    22    37    30    1
    23    37    38    1
    24     2     3   ar
    25     2     8    1
    26    18    19   ar
    27    18    28    1
    28    19    20    1
    29    39    38    1
    30    41    38    1
    31    28    32   ar
    32     3    10    1
    33    30    31   ar
    34    38    40    1
    35    25    24    1
    36    11    13    1
    37    11    10    1
    38    11    12    1
    39    24    27    1
    40    24    26    1
    41    32    31   ar
    42    32    33    1
    43    31    34    1
