@<TRIPOS>MOLECULE
mol_data/opt/b3lyp/geoms/mol2/13gl13gl-13gl-.out
 41 43 0 0 0
SMALL
GASTEIGER

@<TRIPOS>ATOM
      1 C           1.3419   -0.4466   -0.3487 C.ar    1  LIG1        0.0191
      2 C           1.1214    0.7841    0.2430 C.ar    1  LIG1        0.0645
      3 C          -0.3008    0.9371    0.3710 C.ar    1  LIG1        0.1598
      4 C          -0.8998   -0.2019   -0.1564 C.ar    1  LIG1        0.1074
      5 N           0.1326   -1.0417   -0.5626 N.ar    1  LIG1       -0.3555
      6 H          -0.0154   -1.8727   -1.1127 H       1  LIG1        0.1655
      7 H           2.2725   -0.9241   -0.6147 H       1  LIG1        0.0819
      8 S           2.4187    1.8119    0.8901 S.3     1  LIG1       -0.1377
      9 H           2.5299    2.6862   -0.1367 H       1  LIG1        0.1073
     10 O          -1.0060    1.9168    1.0003 O.3     1  LIG1       -0.4918
     11 C          -0.7790    3.2606    0.5602 C.3     1  LIG1        0.0789
     12 H          -1.5207    3.8724    1.0765 H       1  LIG1        0.0660
     13 H           0.2240    3.6035    0.8287 H       1  LIG1        0.0660
     14 H          -0.9291    3.3463   -0.5218 H       1  LIG1        0.0660
     15 C          -2.2787   -0.6318   -0.2296 C.ar    1  LIG1        0.0840
     16 C          -3.4576    0.0427   -0.5070 C.ar    1  LIG1        0.0741
     17 C          -4.5310   -0.9062   -0.4105 C.ar    1  LIG1        0.1605
     18 C          -3.9887   -2.1456   -0.1102 C.ar    1  LIG1        0.1079
     19 N          -2.6046   -1.9702   -0.0355 N.ar    1  LIG1       -0.3479
     20 H          -2.0464   -2.5594    0.5672 H       1  LIG1        0.1661
     21 S          -3.5863    1.7373   -1.0060 S.3     1  LIG1       -0.1370
     22 H          -4.4609    1.5205   -2.0127 H       1  LIG1        0.1073
     23 O          -5.8389   -0.6865   -0.7286 O.3     1  LIG1       -0.4918
     24 C          -6.5415    0.2156    0.1447 C.3     1  LIG1        0.0789
     25 H          -7.5596    0.2734   -0.2443 H       1  LIG1        0.0660
     26 H          -6.5615   -0.1769    1.1658 H       1  LIG1        0.0660
     27 H          -6.0868    1.2103    0.1405 H       1  LIG1        0.0660
     28 C          -4.5522   -3.4750   -0.0057 C.ar    1  LIG1        0.0835
     29 C          -5.7423   -3.9778    0.5100 C.ar    1  LIG1        0.0734
     30 C          -5.7152   -5.3981    0.3353 C.ar    1  LIG1        0.1511
     31 C          -4.5226   -5.7337   -0.2654 C.ar    1  LIG1        0.0455
     32 N          -3.8190   -4.5656   -0.4525 N.ar    1  LIG1       -0.3555
     33 H          -3.0131   -4.4725   -1.0498 H       1  LIG1        0.1655
     34 H          -4.1256   -6.6981   -0.5413 H       1  LIG1        0.0845
     35 S          -7.0437   -3.0677    1.2920 S.3     1  LIG1       -0.1370
     36 H          -7.2864   -3.9855    2.2521 H       1  LIG1        0.1073
     37 O          -6.6627   -6.2779    0.7844 O.3     1  LIG1       -0.4925
     38 C          -7.8033   -6.3961   -0.0739 C.3     1  LIG1        0.0789
     39 H          -8.4822   -7.1012    0.4104 H       1  LIG1        0.0660
     40 H          -8.3077   -5.4322   -0.2037 H       1  LIG1        0.0660
     41 H          -7.5132   -6.7856   -1.0578 H       1  LIG1        0.0660
@<TRIPOS>BOND
     1    22    21    1
     2     6     5    1
     3    41    38    1
     4    33    32    1
     5    21    16    1
     6    23    17    1
     7    23    24    1
     8     7     1    1
     9     5     1   ar
    10     5     4   ar
    11    34    31    1
    12    14    11    1
    13    16    17   ar
    14    16    15   ar
    15    32    31   ar
    16    32    28   ar
    17    17    18   ar
    18     1     2   ar
    19    31    30   ar
    20    25    24    1
    21    15     4    1
    22    15    19   ar
    23    40    38    1
    24     4     3   ar
    25     9     8    1
    26    18    19   ar
    27    18    28    1
    28    38    39    1
    29    38    37    1
    30    19    20    1
    31    28    29   ar
    32    27    24    1
    33    24    26    1
    34     2     3   ar
    35     2     8    1
    36    30    29   ar
    37    30    37    1
    38     3    10    1
    39    29    35    1
    40    11    13    1
    41    11    10    1
    42    11    12    1
    43    35    36    1
