@<TRIPOS>MOLECULE
mol_data/opt/b3lyp/geoms/mol2/13gl13gl13gl-13gl-.out
 54 57 0 0 0
SMALL
GASTEIGER

@<TRIPOS>ATOM
      1 C           1.1400   -0.0831    1.4210 C.ar    1  LIG1        0.0191
      2 C           1.1286    0.7797    0.3407 C.ar    1  LIG1        0.0645
      3 C          -0.2039    0.7590   -0.1957 C.ar    1  LIG1        0.1598
      4 C          -0.9616   -0.1083    0.5802 C.ar    1  LIG1        0.1074
      5 N          -0.1043   -0.6324    1.5449 N.ar    1  LIG1       -0.3555
      6 H          -0.4269   -1.1449    2.3509 H       1  LIG1        0.1655
      7 H           1.9486   -0.3374    2.0892 H       1  LIG1        0.0819
      8 S           2.5835    1.5546   -0.3231 S.3     1  LIG1       -0.1377
      9 H           2.4569    2.7717    0.2542 H       1  LIG1        0.1073
     10 O          -0.6793    1.3460   -1.3285 O.3     1  LIG1       -0.4918
     11 C          -0.5678    2.7719   -1.4074 C.3     1  LIG1        0.0789
     12 H          -1.1142    3.0644   -2.3057 H       1  LIG1        0.0660
     13 H          -1.0275    3.2466   -0.5336 H       1  LIG1        0.0660
     14 H           0.4755    3.0865   -1.5004 H       1  LIG1        0.0660
     15 C          -2.3320   -0.5658    0.4671 C.ar    1  LIG1        0.0840
     16 C          -3.5341    0.1088    0.2753 C.ar    1  LIG1        0.0741
     17 C          -4.5775   -0.8600    0.3032 C.ar    1  LIG1        0.1605
     18 C          -4.0127   -2.1112    0.5235 C.ar    1  LIG1        0.1079
     19 N          -2.6464   -1.9070    0.6074 N.ar    1  LIG1       -0.3479
     20 H          -1.9672   -2.6391    0.7397 H       1  LIG1        0.1661
     21 S          -3.7378    1.8522    0.0432 S.3     1  LIG1       -0.1370
     22 H          -4.8512    1.9592    0.7989 H       1  LIG1        0.1073
     23 O          -5.9152   -0.6054    0.1872 O.3     1  LIG1       -0.4918
     24 C          -6.3740   -0.4616   -1.1649 C.3     1  LIG1        0.0789
     25 H          -7.4443   -0.2567   -1.1038 H       1  LIG1        0.0660
     26 H          -5.8665    0.3691   -1.6673 H       1  LIG1        0.0660
     27 H          -6.2106   -1.3854   -1.7320 H       1  LIG1        0.0660
     28 C          -4.6088   -3.4232    0.6104 C.ar    1  LIG1        0.0840
     29 C          -5.7989   -3.8579    1.1753 C.ar    1  LIG1        0.0741
     30 C          -5.8995   -5.2684    0.9285 C.ar    1  LIG1        0.1605
     31 C          -4.7590   -5.6758    0.2530 C.ar    1  LIG1        0.1079
     32 N          -3.9596   -4.5415    0.0953 N.ar    1  LIG1       -0.3479
     33 H          -3.3325   -4.4692   -0.6943 H       1  LIG1        0.1661
     34 S          -6.9066   -2.8771    2.1525 S.3     1  LIG1       -0.1370
     35 H          -7.1825   -3.8642    3.0333 H       1  LIG1        0.1073
     36 O          -6.8571   -6.1062    1.4207 O.3     1  LIG1       -0.4918
     37 C          -8.1781   -5.9093    0.8857 C.3     1  LIG1        0.0789
     38 H          -8.8133   -6.6437    1.3837 H       1  LIG1        0.0660
     39 H          -8.5460   -4.9001    1.0933 H       1  LIG1        0.0660
     40 H          -8.1863   -6.0906   -0.1932 H       1  LIG1        0.0660
     41 C          -4.2544   -6.9680   -0.1591 C.ar    1  LIG1        0.0835
     42 C          -4.8562   -8.1216   -0.6486 C.ar    1  LIG1        0.0734
     43 C          -3.8161   -9.0742   -0.8803 C.ar    1  LIG1        0.1511
     44 C          -2.6111   -8.4950   -0.5443 C.ar    1  LIG1        0.0455
     45 N          -2.8871   -7.2017   -0.1328 N.ar    1  LIG1       -0.3555
     46 H          -2.2654   -6.6588    0.4459 H       1  LIG1        0.1655
     47 H          -1.6023   -8.8720   -0.5832 H       1  LIG1        0.0845
     48 S          -6.5749   -8.3985   -0.9591 S.3     1  LIG1       -0.1370
     49 H          -6.3936   -9.1466   -2.0673 H       1  LIG1        0.1073
     50 O          -4.0797  -10.2991   -1.4066 O.3     1  LIG1       -0.4925
     51 C          -2.9502  -11.1350   -1.6006 C.3     1  LIG1        0.0789
     52 H          -3.3223  -12.0712   -2.0187 H       1  LIG1        0.0660
     53 H          -2.2348  -10.6811   -2.2999 H       1  LIG1        0.0660
     54 H          -2.4393  -11.3381   -0.6499 H       1  LIG1        0.0660
@<TRIPOS>BOND
     1    12    11    1
     2    53    51    1
     3    49    48    1
     4    52    51    1
     5    27    24    1
     6    26    24    1
     7    51    50    1
     8    51    54    1
     9    14    11    1
    10    11    10    1
    11    11    13    1
    12    50    43    1
    13    10     3    1
    14    24    25    1
    15    24    23    1
    16    48    42    1
    17    43    42   ar
    18    43    44   ar
    19    33    32    1
    20    42    41   ar
    21    47    44    1
    22    44    45   ar
    23     8     9    1
    24     8     2    1
    25     3     2   ar
    26     3     4   ar
    27    40    37    1
    28    41    45   ar
    29    41    31    1
    30    45    46    1
    31    21    16    1
    32    21    22    1
    33    32    31   ar
    34    32    28   ar
    35    23    17    1
    36    31    30   ar
    37    16    17   ar
    38    16    15   ar
    39    17    18   ar
    40     2     1   ar
    41    15     4    1
    42    15    19   ar
    43    18    19   ar
    44    18    28    1
    45     4     5   ar
    46    19    20    1
    47    28    29   ar
    48    37    39    1
    49    37    38    1
    50    37    36    1
    51    30    29   ar
    52    30    36    1
    53    29    34    1
    54     1     5   ar
    55     1     7    1
    56     5     6    1
    57    34    35    1
