@<TRIPOS>MOLECULE
mol_data/opt/b3lyp/geoms/mol2/13gl13gl13gl.out
 41 43 0 0 0
SMALL
GASTEIGER

@<TRIPOS>ATOM
      1 C           1.3402   -0.4429    0.3523 C.ar    1  LIG1        0.0191
      2 C           1.1191    0.7905   -0.2335 C.ar    1  LIG1        0.0645
      3 C          -0.3030    0.9426   -0.3626 C.ar    1  LIG1        0.1598
      4 C          -0.9014   -0.1999    0.1581 C.ar    1  LIG1        0.1074
      5 N           0.1314   -1.0404    0.5616 N.ar    1  LIG1       -0.3555
      6 H          -0.0165   -1.8749    1.1064 H       1  LIG1        0.1655
      7 H           2.2710   -0.9206    0.6176 H       1  LIG1        0.0819
      8 S           2.4163    1.8230   -0.8737 S.3     1  LIG1       -0.1377
      9 H           2.5253    2.6922    0.1576 H       1  LIG1        0.1073
     10 O          -1.0085    1.9246   -0.9879 O.3     1  LIG1       -0.4918
     11 C          -0.7835    3.2665   -0.5407 C.3     1  LIG1        0.0789
     12 H          -1.5244    3.8802   -1.0559 H       1  LIG1        0.0660
     13 H          -0.9363    3.3468    0.5413 H       1  LIG1        0.0660
     14 H           0.2198    3.6114   -0.8051 H       1  LIG1        0.0660
     15 C          -2.2799   -0.6317    0.2271 C.ar    1  LIG1        0.0840
     16 C          -3.4600    0.0401    0.5064 C.ar    1  LIG1        0.0741
     17 C          -4.5322   -0.9094    0.4035 C.ar    1  LIG1        0.1605
     18 C          -3.9881   -2.1466    0.0975 C.ar    1  LIG1        0.1079
     19 N          -2.6042   -1.9694    0.0256 N.ar    1  LIG1       -0.3479
     20 H          -2.0447   -2.5548   -0.5795 H       1  LIG1        0.1661
     21 S          -3.5912    1.7319    1.0140 S.3     1  LIG1       -0.1370
     22 H          -4.4681    1.5091    2.0174 H       1  LIG1        0.1073
     23 O          -5.8408   -0.6927    0.7209 O.3     1  LIG1       -0.4918
     24 C          -6.5432    0.2129   -0.1489 C.3     1  LIG1        0.0789
     25 H          -7.5619    0.2675    0.2388 H       1  LIG1        0.0660
     26 H          -6.0898    1.2082   -0.1390 H       1  LIG1        0.0660
     27 H          -6.5611   -0.1744   -1.1720 H       1  LIG1        0.0660
     28 C          -4.5501   -3.4761   -0.0147 C.ar    1  LIG1        0.0835
     29 C          -5.7389   -3.9776   -0.5347 C.ar    1  LIG1        0.0734
     30 C          -5.7103   -5.3987   -0.3673 C.ar    1  LIG1        0.1511
     31 C          -4.5183   -5.7361    0.2336 C.ar    1  LIG1        0.0455
     32 N          -3.8162   -4.5682    0.4276 N.ar    1  LIG1       -0.3555
     33 H          -3.0115   -4.4772    1.0268 H       1  LIG1        0.1655
     34 H          -4.1207   -6.7014    0.5050 H       1  LIG1        0.0845
     35 S          -7.0400   -3.0652   -1.3143 S.3     1  LIG1       -0.1370
     36 H          -7.2809   -3.9792   -2.2784 H       1  LIG1        0.1073
     37 O          -6.6563   -6.2772   -0.8223 O.3     1  LIG1       -0.4925
     38 C          -7.7978   -6.4013    0.0338 C.3     1  LIG1        0.0789
     39 H          -8.4746   -7.1058   -0.4544 H       1  LIG1        0.0660
     40 H          -7.5083   -6.7941    1.0165 H       1  LIG1        0.0660
     41 H          -8.3045   -5.4390    0.1668 H       1  LIG1        0.0660
@<TRIPOS>BOND
     1    36    35    1
     2    35    29    1
     3    27    24    1
     4    12    11    1
     5    10    11    1
     6    10     3    1
     7     8     2    1
     8     8     9    1
     9    37    30    1
    10    37    38    1
    11    14    11    1
    12    20    19    1
    13    11    13    1
    14    29    30   ar
    15    29    28   ar
    16    39    38    1
    17    30    31   ar
    18     3     2   ar
    19     3     4   ar
    20     2     1   ar
    21    24    26    1
    22    24    25    1
    23    24    23    1
    24    28    18    1
    25    28    32   ar
    26    19    18   ar
    27    19    15   ar
    28    38    41    1
    29    38    40    1
    30    18    17   ar
    31     4    15    1
    32     4     5   ar
    33    15    16   ar
    34    31    32   ar
    35    31    34    1
    36     1     5   ar
    37     1     7    1
    38    17    16   ar
    39    17    23    1
    40    32    33    1
    41    16    21    1
    42     5     6    1
    43    21    22    1
