@<TRIPOS>MOLECULE
mol_data/opt/b3lyp/geoms/mol2/13gl13gl-13gl13gl.out
 54 57 0 0 0
SMALL
GASTEIGER

@<TRIPOS>ATOM
      1 C           1.3546   -0.5787    0.0503 C.ar    1  LIG1        0.0191
      2 C           1.1388    0.7096   -0.4038 C.ar    1  LIG1        0.0645
      3 C          -0.2825    0.9150   -0.4192 C.ar    1  LIG1        0.1598
      4 C          -0.8854   -0.2537    0.0345 C.ar    1  LIG1        0.1074
      5 N           0.1417   -1.1588    0.2859 N.ar    1  LIG1       -0.3555
      6 H           0.0022   -2.0277    0.7768 H       1  LIG1        0.1655
      7 H           2.2835   -1.1055    0.2071 H       1  LIG1        0.0819
      8 S           2.4240    1.7606   -1.0380 S.3     1  LIG1       -0.1377
      9 H           2.6354    2.5224    0.0598 H       1  LIG1        0.1073
     10 O          -0.9885    1.9749   -0.9001 O.3     1  LIG1       -0.4918
     11 C          -0.6974    3.2543   -0.3252 C.3     1  LIG1        0.0789
     12 H          -1.4374    3.9418   -0.7382 H       1  LIG1        0.0660
     13 H          -0.8015    3.2218    0.7648 H       1  LIG1        0.0660
     14 H           0.3053    3.5944   -0.5979 H       1  LIG1        0.0660
     15 C          -2.2692   -0.6543    0.1576 C.ar    1  LIG1        0.0840
     16 C          -3.4114    0.0198    0.5645 C.ar    1  LIG1        0.0741
     17 C          -4.5127   -0.8937    0.4584 C.ar    1  LIG1        0.1605
     18 C          -4.0224   -2.1172    0.0231 C.ar    1  LIG1        0.1079
     19 N          -2.6419   -1.9636   -0.1240 N.ar    1  LIG1       -0.3479
     20 H          -2.1334   -2.5180   -0.7987 H       1  LIG1        0.1661
     21 S          -3.4639    1.6673    1.2130 S.3     1  LIG1       -0.1370
     22 H          -4.2734    1.3815    2.2565 H       1  LIG1        0.1073
     23 O          -5.7909   -0.6744    0.8786 O.3     1  LIG1       -0.4918
     24 C          -6.5234    0.3182    0.1377 C.3     1  LIG1        0.0789
     25 H          -7.5122    0.3610    0.5971 H       1  LIG1        0.0660
     26 H          -6.0423    1.2983    0.2007 H       1  LIG1        0.0660
     27 H          -6.6197    0.0200   -0.9106 H       1  LIG1        0.0660
     28 C          -4.6204   -3.4210   -0.1455 C.ar    1  LIG1        0.0840
     29 C          -5.8833   -3.8565   -0.5271 C.ar    1  LIG1        0.0741
     30 C          -5.8827   -5.2898   -0.4646 C.ar    1  LIG1        0.1605
     31 C          -4.6181   -5.7092   -0.0827 C.ar    1  LIG1        0.1079
     32 N          -3.8478   -4.5566    0.0749 N.ar    1  LIG1       -0.3479
     33 H          -3.0684   -4.5394    0.7176 H       1  LIG1        0.1661
     34 S          -7.2115   -2.8442   -1.1154 S.3     1  LIG1       -0.1370
     35 H          -7.5556   -3.6562   -2.1389 H       1  LIG1        0.1073
     36 O          -6.8856   -6.1180   -0.8752 O.3     1  LIG1       -0.4918
     37 C          -8.0812   -6.0809   -0.0755 C.3     1  LIG1        0.0789
     38 H          -8.7646   -6.8008   -0.5292 H       1  LIG1        0.0660
     39 H          -7.8642   -6.3808    0.9540 H       1  LIG1        0.0660
     40 H          -8.5345   -5.0855   -0.0814 H       1  LIG1        0.0660
     41 C          -3.9979   -7.0122    0.0316 C.ar    1  LIG1        0.0835
     42 C          -4.4324   -8.2456    0.5046 C.ar    1  LIG1        0.0734
     43 C          -3.3400   -9.1610    0.3720 C.ar    1  LIG1        0.1511
     44 C          -2.2708   -8.4782   -0.1628 C.ar    1  LIG1        0.0455
     45 N          -2.6719   -7.1742   -0.3477 N.ar    1  LIG1       -0.3555
     46 H          -2.1863   -6.5039   -0.9223 H       1  LIG1        0.1655
     47 H          -1.2722   -8.8142   -0.3941 H       1  LIG1        0.0845
     48 S          -6.0139   -8.6329    1.1978 S.3     1  LIG1       -0.1370
     49 H          -5.5373   -9.4548    2.1573 H       1  LIG1        0.1073
     50 O          -3.3289  -10.4605    0.8019 O.3     1  LIG1       -0.4925
     51 C          -3.9448  -11.3813   -0.1065 C.3     1  LIG1        0.0789
     52 H          -3.8893  -12.3644    0.3658 H       1  LIG1        0.0660
     53 H          -4.9934  -11.1215   -0.2896 H       1  LIG1        0.0660
     54 H          -3.4080  -11.4044   -1.0630 H       1  LIG1        0.0660
@<TRIPOS>BOND
     1    35    34    1
     2    34    29    1
     3    54    51    1
     4     8     2    1
     5     8     9    1
     6    46    45    1
     7    27    24    1
     8    10     3    1
     9    10    11    1
    10    36    30    1
    11    36    37    1
    12    20    19    1
    13    12    11    1
    14    14    11    1
    15    38    37    1
    16    29    30   ar
    17    29    28   ar
    18    30    31   ar
    19     3     2   ar
    20     3     4   ar
    21     2     1   ar
    22    47    44    1
    23    45    44   ar
    24    45    41   ar
    25    11    13    1
    26    53    51    1
    27    44    43   ar
    28    28    18    1
    29    28    32   ar
    30    19    18   ar
    31    19    15   ar
    32    51    52    1
    33    51    50    1
    34    31    41    1
    35    31    32   ar
    36    40    37    1
    37    37    39    1
    38    18    17   ar
    39    41    42   ar
    40     4    15    1
    41     4     5   ar
    42     1     7    1
    43     1     5   ar
    44    32    33    1
    45    24    26    1
    46    24    25    1
    47    24    23    1
    48    15    16   ar
    49     5     6    1
    50    43    42   ar
    51    43    50    1
    52    17    16   ar
    53    17    23    1
    54    42    48    1
    55    16    21    1
    56    48    49    1
    57    21    22    1
