@<TRIPOS>MOLECULE
mol_data/opt/b3lyp/geoms/mol2/13gl13gl-13gl13gl-.out
 54 57 0 0 0
SMALL
GASTEIGER

@<TRIPOS>ATOM
      1 C           1.0079    0.0530   -1.9484 C.ar    1  LIG1        0.0191
      2 C           1.1014    0.9359   -0.8885 C.ar    1  LIG1        0.0645
      3 C          -0.1601    0.8989   -0.2025 C.ar    1  LIG1        0.1598
      4 C          -0.9823    0.0020   -0.8715 C.ar    1  LIG1        0.1074
      5 N          -0.2300   -0.5229   -1.9197 N.ar    1  LIG1       -0.3555
      6 H          -0.6290   -1.0603   -2.6737 H       1  LIG1        0.1655
      7 H           1.7399   -0.1985   -2.7006 H       1  LIG1        0.0819
      8 S           2.6055    1.7517   -0.4088 S.3     1  LIG1       -0.1377
      9 H           2.3840    2.9574   -0.9810 H       1  LIG1        0.1073
     10 O          -0.5155    1.4983    0.9675 O.3     1  LIG1       -0.4918
     11 C          -0.4276    2.9275    1.0070 C.3     1  LIG1        0.0789
     12 H          -0.8698    3.2273    1.9587 H       1  LIG1        0.0660
     13 H           0.6121    3.2648    0.9693 H       1  LIG1        0.0660
     14 H          -0.9982    3.3749    0.1858 H       1  LIG1        0.0660
     15 C          -2.3185   -0.4838   -0.5890 C.ar    1  LIG1        0.0840
     16 C          -3.5062    0.1666   -0.2702 C.ar    1  LIG1        0.0741
     17 C          -4.5196   -0.8278   -0.1508 C.ar    1  LIG1        0.1605
     18 C          -3.9530   -2.0699   -0.4064 C.ar    1  LIG1        0.1079
     19 N          -2.6106   -1.8360   -0.6545 N.ar    1  LIG1       -0.3479
     20 H          -1.9391   -2.5461   -0.9000 H       1  LIG1        0.1661
     21 S          -3.7248    1.9097   -0.0482 S.3     1  LIG1       -0.1370
     22 H          -4.9089    1.9825   -0.6923 H       1  LIG1        0.1073
     23 O          -5.8411   -0.6011    0.1151 O.3     1  LIG1       -0.4918
     24 C          -6.1453   -0.4434    1.5073 C.3     1  LIG1        0.0789
     25 H          -7.2192   -0.2575    1.5668 H       1  LIG1        0.0660
     26 H          -5.9013   -1.3552    2.0653 H       1  LIG1        0.0660
     27 H          -5.5995    0.4036    1.9375 H       1  LIG1        0.0660
     28 C          -4.5246   -3.3988   -0.4048 C.ar    1  LIG1        0.0840
     29 C          -5.7253   -3.8909   -0.9086 C.ar    1  LIG1        0.0741
     30 C          -5.7394   -5.2953   -0.6716 C.ar    1  LIG1        0.1605
     31 C          -4.5556   -5.6532   -0.0387 C.ar    1  LIG1        0.1079
     32 N          -3.8378   -4.4817    0.1246 N.ar    1  LIG1       -0.3479
     33 H          -2.9314   -4.4257    0.5610 H       1  LIG1        0.1661
     34 S          -6.9971   -2.9706   -1.7299 S.3     1  LIG1       -0.1370
     35 H          -7.4012   -4.0154   -2.4842 H       1  LIG1        0.1073
     36 O          -6.7305   -6.1564   -1.0570 O.3     1  LIG1       -0.4918
     37 C          -7.8008   -6.2824   -0.1116 C.3     1  LIG1        0.0789
     38 H          -8.5192   -6.9764   -0.5517 H       1  LIG1        0.0660
     39 H          -7.4357   -6.6897    0.8385 H       1  LIG1        0.0660
     40 H          -8.2841   -5.3154    0.0684 H       1  LIG1        0.0660
     41 C          -4.0735   -6.9320    0.4361 C.ar    1  LIG1        0.0835
     42 C          -4.1309   -8.2053   -0.1174 C.ar    1  LIG1        0.0734
     43 C          -3.4696   -9.0906    0.7929 C.ar    1  LIG1        0.1511
     44 C          -3.0198   -8.3501    1.8632 C.ar    1  LIG1        0.0455
     45 N          -3.3717   -7.0388    1.6312 N.ar    1  LIG1       -0.3555
     46 H          -3.3843   -6.3257    2.3434 H       1  LIG1        0.1655
     47 H          -2.4652   -8.6520    2.7379 H       1  LIG1        0.0845
     48 S          -4.8125   -8.6601   -1.6884 S.3     1  LIG1       -0.1370
     49 H          -3.9480   -9.6803   -1.8807 H       1  LIG1        0.1073
     50 O          -3.2334  -10.4226    0.5795 O.3     1  LIG1       -0.4925
     51 C          -4.3417  -11.2705    0.9009 C.3     1  LIG1        0.0789
     52 H          -4.0314  -12.2895    0.6607 H       1  LIG1        0.0660
     53 H          -4.5875  -11.2056    1.9682 H       1  LIG1        0.0660
     54 H          -5.2287  -11.0099    0.3121 H       1  LIG1        0.0660
@<TRIPOS>BOND
     1     7     1    1
     2     6     5    1
     3    35    34    1
     4     1     5   ar
     5     1     2   ar
     6     5     4   ar
     7    49    48    1
     8    34    29    1
     9    48    42    1
    10    36    30    1
    11    36    37    1
    12     9     8    1
    13    29    30   ar
    14    29    28   ar
    15    20    19    1
    16     2     8    1
    17     2     3   ar
    18     4    15    1
    19     4     3   ar
    20    22    21    1
    21    30    31   ar
    22    19    15   ar
    23    19    18   ar
    24    15    16   ar
    25    38    37    1
    26    18    28    1
    27    18    17   ar
    28    28    32   ar
    29    16    17   ar
    30    16    21    1
    31     3    10    1
    32    17    23    1
    33    42    41   ar
    34    42    43   ar
    35    37    40    1
    36    37    39    1
    37    31    32   ar
    38    31    41    1
    39    23    24    1
    40    32    33    1
    41    14    11    1
    42    54    51    1
    43    41    45   ar
    44    50    43    1
    45    50    51    1
    46    52    51    1
    47    43    44   ar
    48    51    53    1
    49    10    11    1
    50    13    11    1
    51    11    12    1
    52    24    25    1
    53    24    27    1
    54    24    26    1
    55    45    44   ar
    56    45    46    1
    57    44    47    1
