@<TRIPOS>MOLECULE
mol_data/opt/b3lyp/geoms/mol2/13gl13gl13gl13gl.out
 54 57 0 0 0
SMALL
GASTEIGER

@<TRIPOS>ATOM
      1 C           1.3462   -0.5650    0.0665 C.ar    1  LIG1        0.0191
      2 C           1.1290    0.7255   -0.3806 C.ar    1  LIG1        0.0645
      3 C          -0.2928    0.9268   -0.4024 C.ar    1  LIG1        0.1598
      4 C          -0.8947   -0.2465    0.0406 C.ar    1  LIG1        0.1074
      5 N           0.1338   -1.1501    0.2919 N.ar    1  LIG1       -0.3555
      6 H          -0.0058   -2.0227    0.7762 H       1  LIG1        0.1655
      7 H           2.2758   -1.0899    0.2253 H       1  LIG1        0.0819
      8 S           2.4147    1.7842   -1.0010 S.3     1  LIG1       -0.1377
      9 H           2.6172    2.5402    0.1024 H       1  LIG1        0.1073
     10 O          -0.9994    1.9875   -0.8805 O.3     1  LIG1       -0.4918
     11 C          -0.7151    3.2643   -0.2965 C.3     1  LIG1        0.0789
     12 H          -1.4549    3.9521   -0.7094 H       1  LIG1        0.0660
     13 H          -0.8249    3.2250    0.7928 H       1  LIG1        0.0660
     14 H           0.2880    3.6090   -0.5618 H       1  LIG1        0.0660
     15 C          -2.2780   -0.6519    0.1535 C.ar    1  LIG1        0.0840
     16 C          -3.4242    0.0161    0.5590 C.ar    1  LIG1        0.0741
     17 C          -4.5223   -0.8997    0.4406 C.ar    1  LIG1        0.1605
     18 C          -4.0262   -2.1187   -0.0006 C.ar    1  LIG1        0.1079
     19 N          -2.6454   -1.9602   -0.1392 N.ar    1  LIG1       -0.3479
     20 H          -2.1317   -2.5084   -0.8150 H       1  LIG1        0.1661
     21 S          -3.4847    1.6590    1.2188 S.3     1  LIG1       -0.1370
     22 H          -4.2973    1.3634    2.2571 H       1  LIG1        0.1073
     23 O          -5.8033   -0.6869    0.8555 O.3     1  LIG1       -0.4918
     24 C          -6.5347    0.3089    0.1177 C.3     1  LIG1        0.0789
     25 H          -7.5264    0.3449    0.5715 H       1  LIG1        0.0660
     26 H          -6.0572    1.2900    0.1912 H       1  LIG1        0.0660
     27 H          -6.6237    0.0184   -0.9333 H       1  LIG1        0.0660
     28 C          -4.6196   -3.4229   -0.1817 C.ar    1  LIG1        0.0840
     29 C          -5.8793   -3.8589   -0.5731 C.ar    1  LIG1        0.0741
     30 C          -5.8751   -5.2927   -0.5209 C.ar    1  LIG1        0.1605
     31 C          -4.6114   -5.7115   -0.1355 C.ar    1  LIG1        0.1079
     32 N          -3.8451   -4.5580    0.0346 N.ar    1  LIG1       -0.3479
     33 H          -3.0695   -4.5432    0.6818 H       1  LIG1        0.1661
     34 S          -7.2070   -2.8462   -1.1613 S.3     1  LIG1       -0.1370
     35 H          -7.5449   -3.6532   -2.1908 H       1  LIG1        0.1073
     36 O          -6.8738   -6.1204   -0.9428 O.3     1  LIG1       -0.4918
     37 C          -8.0732   -6.0925   -0.1485 C.3     1  LIG1        0.0789
     38 H          -8.7533   -6.8092   -0.6121 H       1  LIG1        0.0660
     39 H          -7.8607   -6.4015    0.8792 H       1  LIG1        0.0660
     40 H          -8.5281   -5.0978   -0.1475 H       1  LIG1        0.0660
     41 C          -3.9881   -7.0135   -0.0274 C.ar    1  LIG1        0.0835
     42 C          -4.4219   -8.2518    0.4334 C.ar    1  LIG1        0.0734
     43 C          -3.3259   -9.1629    0.3006 C.ar    1  LIG1        0.1511
     44 C          -2.2554   -8.4729   -0.2221 C.ar    1  LIG1        0.0455
     45 N          -2.6592   -7.1687   -0.3995 N.ar    1  LIG1       -0.3555
     46 H          -2.1719   -6.4926   -0.9658 H       1  LIG1        0.1655
     47 H          -1.2543   -8.8041   -0.4497 H       1  LIG1        0.0845
     48 S          -6.0064   -8.6497    1.1136 S.3     1  LIG1       -0.1370
     49 H          -5.5330   -9.4813    2.0662 H       1  LIG1        0.1073
     50 O          -3.3139  -10.4656    0.7207 O.3     1  LIG1       -0.4925
     51 C          -3.9192  -11.3815   -0.1996 C.3     1  LIG1        0.0789
     52 H          -3.8640  -12.3680    0.2655 H       1  LIG1        0.0660
     53 H          -4.9672  -11.1240   -0.3891 H       1  LIG1        0.0660
     54 H          -3.3748  -11.3955   -1.1519 H       1  LIG1        0.0660
@<TRIPOS>BOND
     1    35    34    1
     2    34    29    1
     3    54    51    1
     4     8     2    1
     5     8     9    1
     6    46    45    1
     7    36    30    1
     8    36    37    1
     9    27    24    1
    10    10     3    1
    11    10    11    1
    12    20    19    1
    13    12    11    1
    14    38    37    1
    15    29    30   ar
    16    29    28   ar
    17    14    11    1
    18    30    31   ar
    19    47    44    1
    20     3     2   ar
    21     3     4   ar
    22    45    44   ar
    23    45    41   ar
    24    53    51    1
    25     2     1   ar
    26    11    13    1
    27    44    43   ar
    28    51    52    1
    29    51    50    1
    30    28    18    1
    31    28    32   ar
    32    37    40    1
    33    37    39    1
    34    19    18   ar
    35    19    15   ar
    36    31    41    1
    37    31    32   ar
    38    41    42   ar
    39    18    17   ar
    40    32    33    1
    41     4    15    1
    42     4     5   ar
    43     1     7    1
    44     1     5   ar
    45    24    26    1
    46    24    25    1
    47    24    23    1
    48    15    16   ar
    49     5     6    1
    50    43    42   ar
    51    43    50    1
    52    42    48    1
    53    17    16   ar
    54    17    23    1
    55    16    21    1
    56    48    49    1
    57    21    22    1
