@<TRIPOS>MOLECULE
mol_data/opt/b3lyp/geoms/mol2/13gl13gl-.out
 28 29 0 0 0
SMALL
GASTEIGER

@<TRIPOS>ATOM
      1 C           1.2930   -0.4764   -0.2804 C.ar    1  LIG1        0.0191
      2 C           1.0709    0.8123    0.1692 C.ar    1  LIG1        0.0645
      3 C          -0.3495    0.9630    0.3206 C.ar    1  LIG1        0.1598
      4 C          -0.9462   -0.2351   -0.0503 C.ar    1  LIG1        0.1074
      5 N           0.0859   -1.1055   -0.3878 N.ar    1  LIG1       -0.3555
      6 H          -0.0652   -1.9927   -0.8414 H       1  LIG1        0.1655
      7 H           2.2221   -0.9725   -0.5161 H       1  LIG1        0.0819
      8 S           2.3653    1.9298    0.6522 S.3     1  LIG1       -0.1377
      9 H           2.4348    2.6749   -0.4749 H       1  LIG1        0.1073
     10 O          -1.0464    2.0082    0.8472 O.3     1  LIG1       -0.4918
     11 C          -0.8887    3.2742    0.1967 C.3     1  LIG1        0.0789
     12 H          -1.6108    3.9436    0.6674 H       1  LIG1        0.0660
     13 H           0.1197    3.6736    0.3382 H       1  LIG1        0.0660
     14 H          -1.1143    3.1929   -0.8724 H       1  LIG1        0.0660
     15 C          -2.3244   -0.6846   -0.0337 C.ar    1  LIG1        0.0835
     16 C          -3.5136   -0.0896   -0.4351 C.ar    1  LIG1        0.0734
     17 C          -4.5641   -1.0318   -0.1935 C.ar    1  LIG1        0.1511
     18 C          -4.0013   -2.1724    0.3340 C.ar    1  LIG1        0.0455
     19 N          -2.6425   -1.9596    0.4119 N.ar    1  LIG1       -0.3555
     20 H          -2.0105   -2.5235    0.9581 H       1  LIG1        0.1655
     21 H          -4.4571   -3.1052    0.6266 H       1  LIG1        0.0845
     22 S          -3.7029    1.5186   -1.1509 S.3     1  LIG1       -0.1370
     23 H          -4.6117    1.1500   -2.0792 H       1  LIG1        0.1073
     24 O          -5.8816   -0.8693   -0.5272 O.3     1  LIG1       -0.4925
     25 C          -6.6304   -0.0890    0.4118 C.3     1  LIG1        0.0789
     26 H          -7.6463   -0.0219    0.0165 H       1  LIG1        0.0660
     27 H          -6.6525   -0.5758    1.3949 H       1  LIG1        0.0660
     28 H          -6.2123    0.9180    0.5194 H       1  LIG1        0.0660
@<TRIPOS>BOND
     1    23    22    1
     2    22    16    1
     3    14    11    1
     4     6     5    1
     5    24    17    1
     6    24    25    1
     7     7     1    1
     8     9     8    1
     9    16    17   ar
    10    16    15   ar
    11     5     1   ar
    12     5     4   ar
    13     1     2   ar
    14    17    18   ar
    15     4    15    1
    16     4     3   ar
    17    15    19   ar
    18    26    25    1
    19     2     3   ar
    20     2     8    1
    21    11    13    1
    22    11    12    1
    23    11    10    1
    24     3    10    1
    25    18    19   ar
    26    18    21    1
    27    25    28    1
    28    25    27    1
    29    19    20    1
