@<TRIPOS>MOLECULE
mol_data/opt/b3lyp/geoms/mol2/13gl13gl-13gl-13gl-.out
 54 57 0 0 0
SMALL
GASTEIGER

@<TRIPOS>ATOM
      1 C           1.3515   -0.5716   -0.0420 C.ar    1  LIG1        0.0191
      2 C           1.1348    0.7124    0.4237 C.ar    1  LIG1        0.0645
      3 C          -0.2868    0.9154    0.4441 C.ar    1  LIG1        0.1598
      4 C          -0.8890   -0.2502   -0.0183 C.ar    1  LIG1        0.1074
      5 N           0.1390   -1.1515   -0.2800 N.ar    1  LIG1       -0.3555
      6 H          -0.0003   -2.0168   -0.7773 H       1  LIG1        0.1655
      7 H           2.2808   -1.0955   -0.2060 H       1  LIG1        0.0819
      8 S           2.4200    1.7597    1.0638 S.3     1  LIG1       -0.1377
      9 H           2.6283    2.5308   -0.0281 H       1  LIG1        0.1073
     10 O          -0.9936    1.9698    0.9357 O.3     1  LIG1       -0.4918
     11 C          -0.7052    3.2550    0.3725 C.3     1  LIG1        0.0789
     12 H          -1.4460    3.9373    0.7925 H       1  LIG1        0.0660
     13 H           0.2972    3.5942    0.6474 H       1  LIG1        0.0660
     14 H          -0.8102    3.2324   -0.7178 H       1  LIG1        0.0660
     15 C          -2.2725   -0.6517   -0.1418 C.ar    1  LIG1        0.0840
     16 C          -3.4163    0.0242   -0.5409 C.ar    1  LIG1        0.0741
     17 C          -4.5163   -0.8915   -0.4399 C.ar    1  LIG1        0.1605
     18 C          -4.0235   -2.1178   -0.0155 C.ar    1  LIG1        0.1079
     19 N          -2.6429   -1.9636    0.1301 N.ar    1  LIG1       -0.3479
     20 H          -2.1325   -2.5227    0.7994 H       1  LIG1        0.1661
     21 S          -3.4721    1.6768   -1.1762 S.3     1  LIG1       -0.1370
     22 H          -4.2820    1.3981   -2.2213 H       1  LIG1        0.1073
     23 O          -5.7955   -0.6704   -0.8559 O.3     1  LIG1       -0.4918
     24 C          -6.5278    0.3153   -0.1056 C.3     1  LIG1        0.0789
     25 H          -7.5180    0.3595   -0.5619 H       1  LIG1        0.0660
     26 H          -6.6205    0.0093    0.9407 H       1  LIG1        0.0660
     27 H          -6.0488    1.2968   -0.1629 H       1  LIG1        0.0660
     28 C          -4.6196   -3.4237    0.1440 C.ar    1  LIG1        0.0840
     29 C          -5.8811   -3.8636    0.5253 C.ar    1  LIG1        0.0741
     30 C          -5.8792   -5.2964    0.4508 C.ar    1  LIG1        0.1605
     31 C          -4.6151   -5.7112    0.0622 C.ar    1  LIG1        0.1079
     32 N          -3.8465   -4.5566   -0.0879 N.ar    1  LIG1       -0.3479
     33 H          -3.0688   -4.5330   -0.7325 H       1  LIG1        0.1661
     34 S          -7.2086   -2.8575    1.1255 S.3     1  LIG1       -0.1370
     35 H          -7.5494   -3.6783    2.1430 H       1  LIG1        0.1073
     36 O          -6.8802   -6.1290    0.8572 O.3     1  LIG1       -0.4918
     37 C          -8.0779   -6.0863    0.0611 C.3     1  LIG1        0.0789
     38 H          -8.7597   -6.8100    0.5110 H       1  LIG1        0.0660
     39 H          -8.5318   -5.0912    0.0762 H       1  LIG1        0.0660
     40 H          -7.8637   -6.3779   -0.9713 H       1  LIG1        0.0660
     41 C          -3.9940   -7.0126   -0.0644 C.ar    1  LIG1        0.0835
     42 C          -4.4287   -8.2426   -0.5460 C.ar    1  LIG1        0.0734
     43 C          -3.3352   -9.1581   -0.4237 C.ar    1  LIG1        0.1511
     44 C          -2.2650   -8.4786    0.1133 C.ar    1  LIG1        0.0455
     45 N          -2.6668   -7.1765    0.3099 N.ar    1  LIG1       -0.3555
     46 H          -2.1796   -6.5100    0.8876 H       1  LIG1        0.1655
     47 H          -1.2654   -8.8154    0.3391 H       1  LIG1        0.0845
     48 S          -6.0119   -8.6259   -1.2377 S.3     1  LIG1       -0.1370
     49 H          -5.5373   -9.4428   -2.2023 H       1  LIG1        0.1073
     50 O          -3.3242  -10.4541   -0.8640 O.3     1  LIG1       -0.4925
     51 C          -3.9359  -11.3828    0.0390 C.3     1  LIG1        0.0789
     52 H          -3.8807  -12.3621   -0.4412 H       1  LIG1        0.0660
     53 H          -3.3958  -11.4130    0.9935 H       1  LIG1        0.0660
     54 H          -4.9841  -11.1258    0.2278 H       1  LIG1        0.0660
@<TRIPOS>BOND
     1    22    21    1
     2    49    48    1
     3    48    42    1
     4    21    16    1
     5    40    37    1
     6    50    43    1
     7    50    51    1
     8    23    17    1
     9    23    24    1
    10     6     5    1
    11    33    32    1
    12    14    11    1
    13    25    24    1
    14    42    43   ar
    15    42    41   ar
    16    16    17   ar
    17    16    15   ar
    18    52    51    1
    19    17    18   ar
    20    43    44   ar
    21     5     1   ar
    22     5     4   ar
    23     7     1    1
    24    27    24    1
    25    15     4    1
    26    15    19   ar
    27    24    26    1
    28    32    31   ar
    29    32    28   ar
    30    41    31    1
    31    41    45   ar
    32     1     2   ar
    33     9     8    1
    34     4     3   ar
    35    18    19   ar
    36    18    28    1
    37    51    54    1
    38    51    53    1
    39    37    39    1
    40    37    38    1
    41    37    36    1
    42    31    30   ar
    43    44    45   ar
    44    44    47    1
    45    19    20    1
    46    28    29   ar
    47    45    46    1
    48    11    13    1
    49    11    12    1
    50    11    10    1
    51     2     3   ar
    52     2     8    1
    53     3    10    1
    54    30    29   ar
    55    30    36    1
    56    29    34    1
    57    34    35    1
