@<TRIPOS>MOLECULE
mol_data/opt/b3lyp/geoms/mol2/13gl13gl13gl13gl-.out
 54 57 0 0 0
SMALL
GASTEIGER

@<TRIPOS>ATOM
      1 C           1.3443   -0.5622    0.0805 C.ar    1  LIG1        0.0191
      2 C           1.1290    0.7262   -0.3734 C.ar    1  LIG1        0.0645
      3 C          -0.2928    0.9266   -0.4040 C.ar    1  LIG1        0.1598
      4 C          -0.8965   -0.2450    0.0406 C.ar    1  LIG1        0.1074
      5 N           0.1309   -1.1470    0.3016 N.ar    1  LIG1       -0.3555
      6 H          -0.0109   -2.0177    0.7887 H       1  LIG1        0.1655
      7 H           2.2732   -1.0860    0.2468 H       1  LIG1        0.0819
      8 S           2.4175    1.7829   -0.9912 S.3     1  LIG1       -0.1377
      9 H           2.6144    2.5430    0.1105 H       1  LIG1        0.1073
     10 O          -0.9973    1.9849   -0.8906 O.3     1  LIG1       -0.4918
     11 C          -0.7168    3.2644   -0.3105 C.3     1  LIG1        0.0789
     12 H          -1.4545    3.9501   -0.7306 H       1  LIG1        0.0660
     13 H          -0.8328    3.2298    0.7783 H       1  LIG1        0.0660
     14 H           0.2876    3.6083   -0.5716 H       1  LIG1        0.0660
     15 C          -2.2803   -0.6506    0.1475 C.ar    1  LIG1        0.0840
     16 C          -3.4290    0.0185    0.5440 C.ar    1  LIG1        0.0741
     17 C          -4.5261   -0.8983    0.4232 C.ar    1  LIG1        0.1605
     18 C          -4.0270   -2.1188   -0.0105 C.ar    1  LIG1        0.1079
     19 N          -2.6455   -1.9602   -0.1421 N.ar    1  LIG1       -0.3479
     20 H          -2.1278   -2.5109   -0.8128 H       1  LIG1        0.1661
     21 S          -3.4938    1.6639    1.1969 S.3     1  LIG1       -0.1370
     22 H          -4.3115    1.3720    2.2323 H       1  LIG1        0.1073
     23 O          -5.8094   -0.6845    0.8302 O.3     1  LIG1       -0.4918
     24 C          -6.5371    0.3081    0.0844 C.3     1  LIG1        0.0789
     25 H          -7.5312    0.3458    0.5329 H       1  LIG1        0.0660
     26 H          -6.0603    1.2897    0.1564 H       1  LIG1        0.0660
     27 H          -6.6205    0.0133   -0.9658 H       1  LIG1        0.0660
     28 C          -4.6188   -3.4240   -0.1897 C.ar    1  LIG1        0.0840
     29 C          -5.8762   -3.8622   -0.5860 C.ar    1  LIG1        0.0741
     30 C          -5.8715   -5.2958   -0.5283 C.ar    1  LIG1        0.1605
     31 C          -4.6096   -5.7124   -0.1346 C.ar    1  LIG1        0.1079
     32 N          -3.8448   -4.5578    0.0350 N.ar    1  LIG1       -0.3479
     33 H          -3.0727   -4.5402    0.6864 H       1  LIG1        0.1661
     34 S          -7.2013   -2.8525   -1.1853 S.3     1  LIG1       -0.1370
     35 H          -7.5328   -3.6633   -2.2138 H       1  LIG1        0.1073
     36 O          -6.8675   -6.1257   -0.9522 O.3     1  LIG1       -0.4918
     37 C          -8.0713   -6.0952   -0.1646 C.3     1  LIG1        0.0789
     38 H          -8.7484   -6.8143   -0.6288 H       1  LIG1        0.0660
     39 H          -7.8641   -6.3998    0.8656 H       1  LIG1        0.0660
     40 H          -8.5267   -5.1008   -0.1702 H       1  LIG1        0.0660
     41 C          -3.9863   -7.0136   -0.0182 C.ar    1  LIG1        0.0835
     42 C          -4.4219   -8.2504    0.4450 C.ar    1  LIG1        0.0734
     43 C          -3.3248   -9.1615    0.3214 C.ar    1  LIG1        0.1511
     44 C          -2.2519   -8.4730   -0.1983 C.ar    1  LIG1        0.0455
     45 N          -2.6554   -7.1696   -0.3828 N.ar    1  LIG1       -0.3555
     46 H          -2.1655   -6.4955   -0.9492 H       1  LIG1        0.1655
     47 H          -1.2495   -8.8045   -0.4193 H       1  LIG1        0.0845
     48 S          -6.0098   -8.6463    1.1185 S.3     1  LIG1       -0.1370
     49 H          -5.5412   -9.4740    2.0767 H       1  LIG1        0.1073
     50 O          -3.3143  -10.4626    0.7466 O.3     1  LIG1       -0.4925
     51 C          -3.9150  -11.3823   -0.1729 C.3     1  LIG1        0.0789
     52 H          -3.8617  -12.3669    0.2963 H       1  LIG1        0.0660
     53 H          -4.9622  -11.1257   -0.3684 H       1  LIG1        0.0660
     54 H          -3.3661  -11.3998   -1.1227 H       1  LIG1        0.0660
@<TRIPOS>BOND
     1    35    34    1
     2    34    29    1
     3    54    51    1
     4     8     2    1
     5     8     9    1
     6    27    24    1
     7    36    30    1
     8    36    37    1
     9    46    45    1
    10    10     3    1
    11    10    11    1
    12    20    19    1
    13    12    11    1
    14    38    37    1
    15    29    30   ar
    16    29    28   ar
    17    14    11    1
    18    30    31   ar
    19    47    44    1
    20     3     2   ar
    21     3     4   ar
    22    45    44   ar
    23    45    41   ar
    24     2     1   ar
    25    53    51    1
    26    11    13    1
    27    44    43   ar
    28    28    18    1
    29    28    32   ar
    30    51    52    1
    31    51    50    1
    32    40    37    1
    33    37    39    1
    34    19    18   ar
    35    19    15   ar
    36    31    41    1
    37    31    32   ar
    38    41    42   ar
    39    18    17   ar
    40    32    33    1
    41     4    15    1
    42     4     5   ar
    43     1     7    1
    44     1     5   ar
    45    24    26    1
    46    24    25    1
    47    24    23    1
    48    15    16   ar
    49     5     6    1
    50    43    42   ar
    51    43    50    1
    52    17    16   ar
    53    17    23    1
    54    42    48    1
    55    16    21    1
    56    48    49    1
    57    21    22    1
