@<TRIPOS>MOLECULE
mol_data/opt/b3lyp/geoms/mol2/13ha13fd6eh-12ad-.out
 43 46 0 0 0
SMALL
GASTEIGER

@<TRIPOS>ATOM
      1 C           1.2379    0.0350    0.5186 C.ar    1  LIG1        0.0230
      2 C           0.8350    1.2712    0.0453 C.ar    1  LIG1        0.0427
      3 C          -0.5607    1.1869   -0.2234 C.ar    1  LIG1       -0.0142
      4 C          -0.9758   -0.0997    0.0905 C.ar    1  LIG1        0.0683
      5 N           0.1337   -0.8029    0.5166 N.ar    1  LIG1       -0.3578
      6 H           0.0890   -1.6607    1.0437 H       1  LIG1        0.1654
      7 H           2.2052   -0.3135    0.8469 H       1  LIG1        0.0826
      8 N           1.6247    2.4251   -0.0931 N.pl3   1  LIG1       -0.3568
      9 H           2.6102    2.2209   -0.2052 H       1  LIG1        0.1424
     10 H           1.3166    3.0187   -0.8536 H       1  LIG1        0.1424
     11 H          -1.1942    1.9656   -0.6221 H       1  LIG1        0.0658
     12 C          -2.2796   -0.7049    0.0003 C.ar    1  LIG1        0.1067
     13 C          -3.5448   -0.1279   -0.0437 C.ar    1  LIG1        0.1615
     14 C          -4.5066   -1.1750   -0.0947 C.ar    1  LIG1        0.1190
     15 C          -3.8070   -2.4072   -0.0875 C.ar    1  LIG1        0.0709
     16 N          -2.4813   -2.0708   -0.0283 N.ar    1  LIG1       -0.3490
     17 H          -1.7459   -2.7595   -0.1317 H       1  LIG1        0.1661
     18 O          -3.7752    1.2071   -0.0295 O.3     1  LIG1       -0.5034
     19 H          -4.7305    1.3648   -0.0222 H       1  LIG1        0.2923
     20 N          -7.0202   -0.6083   -0.1825 N.1     1  LIG1       -0.1907
     21 C          -5.8938   -0.9118   -0.1430 C.1     1  LIG1        0.1050
     22 C          -3.4583   -4.9344   -0.2499 C.ar    1  LIG1        0.1232
     23 C          -4.2927   -3.7778   -0.1327 C.ar    1  LIG1        0.0353
     24 C          -5.6719   -4.0278   -0.0709 C.ar    1  LIG1       -0.0270
     25 C          -6.1955   -5.3196   -0.1096 C.ar    1  LIG1        0.0547
     26 C          -5.2663   -6.3960   -0.1865 C.ar    1  LIG1        0.1279
     27 N          -3.9540   -6.1779   -0.2681 N.ar    1  LIG1       -0.2328
     28 H          -6.3670   -3.2001    0.0019 H       1  LIG1        0.0644
     29 C          -2.0272   -4.8851   -0.3637 C.1     1  LIG1       -0.0491
     30 C          -0.8188   -4.8823   -0.4630 C.1     1  LIG1       -0.1124
     31 H           0.2404   -4.9223   -0.5772 H       1  LIG1        0.1232
     32 N          -7.5614   -5.5304   -0.0354 N.pl3   1  LIG1       -0.3562
     33 H          -8.1333   -4.7151   -0.2123 H       1  LIG1        0.1424
     34 H          -7.9045   -6.3595   -0.5027 H       1  LIG1        0.1424
     35 C          -5.6972   -7.7939   -0.1818 C.ar    1  LIG1        0.1560
     36 C          -6.7912   -8.4533    0.3185 C.ar    1  LIG1        0.0032
     37 C          -6.5889   -9.8480    0.0348 C.ar    1  LIG1        0.0900
     38 C          -5.3864   -9.9298   -0.6191 C.ar    1  LIG1        0.1100
     39 O          -4.8430   -8.7055   -0.7550 O.2     1  LIG1       -0.4600
     40 H          -4.8298  -10.7587   -1.0271 H       1  LIG1        0.1043
     41 H          -7.6096   -8.0268    0.8772 H       1  LIG1        0.0669
     42 N          -8.1627  -11.8102    0.6292 N.1     1  LIG1       -0.1908
     43 C          -7.4500  -10.9307    0.3605 C.1     1  LIG1        0.1023
@<TRIPOS>BOND
     1    40    38    1
     2    10     8    1
     3    39    38   ar
     4    39    35   ar
     5    11     3    1
     6    38    37   ar
     7    31    30    1
     8    34    32    1
     9    30    29    3
    10    29    22    1
    11    27    22   ar
    12    27    26   ar
    13    22    23   ar
    14     3     2   ar
    15     3     4   ar
    16    33    32    1
    17     9     8    1
    18    26    35    1
    19    26    25   ar
    20    20    21    3
    21    35    36   ar
    22    21    14    1
    23    23    15    1
    24    23    24   ar
    25    17    16    1
    26    25    24   ar
    27    25    32    1
    28    14    15   ar
    29    14    13   ar
    30     8     2    1
    31    15    16   ar
    32    24    28    1
    33    13    18    1
    34    13    12   ar
    35    18    19    1
    36    16    12   ar
    37    12     4    1
    38    37    36   ar
    39    37    43    1
    40     2     1   ar
    41     4     5   ar
    42    36    41    1
    43    43    42    3
    44     5     1   ar
    45     5     6    1
    46     1     7    1
