@<TRIPOS>MOLECULE
mol_data/opt/b3lyp/geoms/mol2/13ha13ha-13ha13ha-.out
 42 45 0 0 0
SMALL
GASTEIGER

@<TRIPOS>ATOM
      1 C           1.3242   -0.2971   -0.0631 C.ar    1  LIG1        0.0230
      2 C           0.9419    1.0353   -0.0542 C.ar    1  LIG1        0.0427
      3 C          -0.4801    1.0670   -0.0512 C.ar    1  LIG1       -0.0142
      4 C          -0.9272   -0.2527   -0.0576 C.ar    1  LIG1        0.0665
      5 N           0.1788   -1.0625   -0.0575 N.ar    1  LIG1       -0.3578
      6 H           0.0823   -2.0721   -0.0723 H       1  LIG1        0.1654
      7 H           2.3061   -0.7459   -0.0600 H       1  LIG1        0.0826
      8 N           1.7895    2.1644    0.0201 N.pl3   1  LIG1       -0.3568
      9 H           2.7305    1.9512   -0.2921 H       1  LIG1        0.1424
     10 H           1.4366    2.9337   -0.5390 H       1  LIG1        0.1424
     11 H          -1.0981    1.9548   -0.0341 H       1  LIG1        0.0658
     12 C          -2.2522   -0.8267   -0.0640 C.ar    1  LIG1        0.0843
     13 C          -2.6495   -2.1666   -0.0794 C.ar    1  LIG1        0.0523
     14 C          -4.0691   -2.2009   -0.0812 C.ar    1  LIG1       -0.0135
     15 C          -4.5147   -0.8833   -0.0670 C.ar    1  LIG1        0.0670
     16 N          -3.3991   -0.0736   -0.0567 N.ar    1  LIG1       -0.3504
     17 H          -3.4943    0.9372   -0.0425 H       1  LIG1        0.1660
     18 N          -1.7182   -3.2631   -0.0890 N.pl3   1  LIG1       -0.3563
     19 H          -1.8574   -3.8564    0.7268 H       1  LIG1        0.1424
     20 H          -1.8731   -3.8556   -0.9024 H       1  LIG1        0.1424
     21 H          -4.6893   -3.0877   -0.0908 H       1  LIG1        0.0658
     22 C          -5.8340   -0.3010   -0.0613 C.ar    1  LIG1        0.0843
     23 C          -6.2195    1.0424   -0.0359 C.ar    1  LIG1        0.0523
     24 C          -7.6393    1.0876   -0.0425 C.ar    1  LIG1       -0.0135
     25 C          -8.0956   -0.2258   -0.0719 C.ar    1  LIG1        0.0670
     26 N          -6.9878   -1.0447   -0.0819 N.ar    1  LIG1       -0.3504
     27 H          -7.0937   -2.0546   -0.1045 H       1  LIG1        0.1660
     28 N          -5.2799    2.1298   -0.0071 N.pl3   1  LIG1       -0.3563
     29 H          -5.4309    2.7569   -0.7946 H       1  LIG1        0.1424
     30 H          -5.4017    2.6894    0.8348 H       1  LIG1        0.1424
     31 H          -8.2473    1.9831   -0.0268 H       1  LIG1        0.0658
     32 C          -9.4191   -0.8026   -0.0916 C.ar    1  LIG1        0.0839
     33 C          -9.8162   -2.1383   -0.1209 C.ar    1  LIG1        0.0516
     34 C         -11.2416   -2.1692   -0.1304 C.ar    1  LIG1       -0.0230
     35 C         -11.6801   -0.8643   -0.1068 C.ar    1  LIG1        0.0040
     36 N         -10.5725   -0.0482   -0.0835 N.ar    1  LIG1       -0.3580
     37 H         -10.5937    0.9580   -0.0638 H       1  LIG1        0.1654
     38 H         -12.6775   -0.4515   -0.1048 H       1  LIG1        0.0807
     39 N          -8.8843   -3.2331   -0.1370 N.pl3   1  LIG1       -0.3563
     40 H          -9.0316   -3.8406    0.6667 H       1  LIG1        0.1424
     41 H          -9.0252   -3.8111   -0.9632 H       1  LIG1        0.1424
     42 H         -11.8677   -3.0509   -0.1518 H       1  LIG1        0.0651
@<TRIPOS>BOND
     1    41    39    1
     2    20    18    1
     3    29    28    1
     4    10     8    1
     5     9     8    1
     6    42    34    1
     7    39    33    1
     8    39    40    1
     9    34    33   ar
    10    34    35   ar
    11    33    32   ar
    12    35    38    1
    13    35    36   ar
    14    27    26    1
    15    32    36   ar
    16    32    25    1
    17    21    14    1
    18    18    13    1
    19    18    19    1
    20    36    37    1
    21    26    25   ar
    22    26    22   ar
    23    14    13   ar
    24    14    15   ar
    25    13    12   ar
    26     6     5    1
    27    25    24   ar
    28    15    22    1
    29    15    16   ar
    30    12     4    1
    31    12    16   ar
    32     1     7    1
    33     1     5   ar
    34     1     2   ar
    35    22    23   ar
    36     4     5   ar
    37     4     3   ar
    38    16    17    1
    39     2     3   ar
    40     2     8    1
    41     3    11    1
    42    24    23   ar
    43    24    31    1
    44    23    28    1
    45    28    30    1
