@<TRIPOS>MOLECULE
mol_data/opt/b3lyp/geoms/mol2/13ha13ha13ha-13ha.out
 42 45 0 0 0
SMALL
GASTEIGER

@<TRIPOS>ATOM
      1 C           1.2405   -0.1008   -0.6030 C.ar    1  LIG1        0.0230
      2 C           0.8990    1.0769    0.0301 C.ar    1  LIG1        0.0427
      3 C          -0.4907    1.0030    0.3497 C.ar    1  LIG1       -0.0142
      4 C          -0.9662   -0.2263   -0.0965 C.ar    1  LIG1        0.0665
      5 N           0.1045   -0.9009   -0.6439 N.ar    1  LIG1       -0.3578
      6 H           0.0027   -1.7064   -1.2399 H       1  LIG1        0.1654
      7 H           2.1898   -0.4515   -0.9787 H       1  LIG1        0.0826
      8 N           1.7636    2.1259    0.4052 N.pl3   1  LIG1       -0.3568
      9 H           2.6063    2.1520   -0.1573 H       1  LIG1        0.1424
     10 H           1.3074    3.0296    0.3512 H       1  LIG1        0.1424
     11 H          -1.0537    1.7182    0.9333 H       1  LIG1        0.0658
     12 C          -2.2935   -0.7908   -0.0647 C.ar    1  LIG1        0.0843
     13 C          -3.5367   -0.1546   -0.1234 C.ar    1  LIG1        0.0523
     14 C          -4.5356   -1.1609   -0.1264 C.ar    1  LIG1       -0.0135
     15 C          -3.8887   -2.3949   -0.0712 C.ar    1  LIG1        0.0670
     16 N          -2.5381   -2.1549   -0.0488 N.ar    1  LIG1       -0.3504
     17 H          -1.8827   -2.9121    0.1169 H       1  LIG1        0.1660
     18 N          -3.7455    1.2364   -0.1477 N.pl3   1  LIG1       -0.3563
     19 H          -2.9320    1.7266   -0.5081 H       1  LIG1        0.1424
     20 H          -4.5613    1.4900   -0.6940 H       1  LIG1        0.1424
     21 H          -5.6045   -0.9986   -0.1613 H       1  LIG1        0.0658
     22 C          -4.3886   -3.7457   -0.0101 C.ar    1  LIG1        0.0843
     23 C          -3.6957   -4.9523    0.1262 C.ar    1  LIG1        0.0523
     24 C          -4.6506   -6.0034    0.1398 C.ar    1  LIG1       -0.0135
     25 C          -5.9080   -5.4224    0.0117 C.ar    1  LIG1        0.0670
     26 N          -5.7233   -4.0603   -0.0753 N.ar    1  LIG1       -0.3504
     27 H          -6.5191   -3.4370   -0.1759 H       1  LIG1        0.1660
     28 N          -2.2645   -5.0293    0.2427 N.pl3   1  LIG1       -0.3563
     29 H          -2.0001   -5.4413    1.1358 H       1  LIG1        0.1424
     30 H          -1.8783   -5.6364   -0.4776 H       1  LIG1        0.1424
     31 H          -4.4335   -7.0595    0.2362 H       1  LIG1        0.0658
     32 C          -7.2409   -5.9749   -0.0409 C.ar    1  LIG1        0.0839
     33 C          -8.4736   -5.3353   -0.1586 C.ar    1  LIG1        0.0516
     34 C          -9.4864   -6.3389   -0.1656 C.ar    1  LIG1       -0.0230
     35 C          -8.8563   -7.5581   -0.0534 C.ar    1  LIG1        0.0040
     36 N          -7.5020   -7.3269    0.0224 N.ar    1  LIG1       -0.3580
     37 H          -6.7958   -8.0392    0.1061 H       1  LIG1        0.1654
     38 H          -9.2538   -8.5611   -0.0209 H       1  LIG1        0.0807
     39 N          -8.6098   -3.9073   -0.2499 N.pl3   1  LIG1       -0.3563
     40 H          -9.1154   -3.6485   -1.0947 H       1  LIG1        0.1424
     41 H          -9.1535   -3.5474    0.5322 H       1  LIG1        0.1424
     42 H         -10.5531   -6.1784   -0.2437 H       1  LIG1        0.0651
@<TRIPOS>BOND
     1     6     5    1
     2    40    39    1
     3     7     1    1
     4    20    18    1
     5     5     1   ar
     6     5     4   ar
     7     1     2   ar
     8    19    18    1
     9    30    28    1
    10    39    33    1
    11    39    41    1
    12    42    34    1
    13    27    26    1
    14    34    33   ar
    15    34    35   ar
    16    21    14    1
    17    33    32   ar
    18     9     8    1
    19    18    13    1
    20    14    13   ar
    21    14    15   ar
    22    13    12   ar
    23     4    12    1
    24     4     3   ar
    25    26    22   ar
    26    26    25   ar
    27    15    16   ar
    28    15    22    1
    29    12    16   ar
    30    35    38    1
    31    35    36   ar
    32    16    17    1
    33    32    25    1
    34    32    36   ar
    35    22    23   ar
    36    25    24   ar
    37    36    37    1
    38     2     3   ar
    39     2     8    1
    40    23    24   ar
    41    23    28    1
    42    24    31    1
    43    28    29    1
    44     3    11    1
    45    10     8    1
