@<TRIPOS>MOLECULE
mol_data/opt/b3lyp/geoms/mol2/13ha13ha-13ha-13ha-.out
 42 45 0 0 0
SMALL
GASTEIGER

@<TRIPOS>ATOM
      1 C           1.3247   -0.4205   -0.3732 C.ar    1  LIG1        0.0230
      2 C           0.9579    0.8853   -0.6589 C.ar    1  LIG1        0.0427
      3 C          -0.4574    0.9618   -0.5370 C.ar    1  LIG1       -0.0142
      4 C          -0.9153   -0.3049   -0.1783 C.ar    1  LIG1        0.0665
      5 N           0.1784   -1.1246   -0.0774 N.ar    1  LIG1       -0.3578
      6 H           0.0747   -2.1012    0.1758 H       1  LIG1        0.1654
      7 H           2.2986   -0.8857   -0.3456 H       1  LIG1        0.0826
      8 N           1.8173    1.9711   -0.9371 N.pl3   1  LIG1       -0.3568
      9 H           2.7321    1.6619   -1.2460 H       1  LIG1        0.1424
     10 H           1.4316    2.5853   -1.6461 H       1  LIG1        0.1424
     11 H          -1.0585    1.8510   -0.6748 H       1  LIG1        0.0658
     12 C          -2.2398   -0.8224    0.0671 C.ar    1  LIG1        0.0843
     13 C          -2.6532   -2.0915    0.4588 C.ar    1  LIG1        0.0523
     14 C          -4.0750   -2.0861    0.5415 C.ar    1  LIG1       -0.0135
     15 C          -4.5156   -0.8151    0.1945 C.ar    1  LIG1        0.0670
     16 N          -3.3831   -0.0561   -0.0687 N.ar    1  LIG1       -0.3504
     17 H          -3.4004    0.8300   -0.5479 H       1  LIG1        0.1660
     18 N          -1.7359   -3.1619    0.7398 N.pl3   1  LIG1       -0.3563
     19 H          -1.7508   -3.3954    1.7314 H       1  LIG1        0.1424
     20 H          -2.0162   -4.0058    0.2448 H       1  LIG1        0.1424
     21 H          -4.7079   -2.8911    0.8894 H       1  LIG1        0.0658
     22 C          -5.8475   -0.2729    0.0932 C.ar    1  LIG1        0.0843
     23 C          -7.0383   -0.8883   -0.2887 C.ar    1  LIG1        0.0523
     24 C          -8.0652    0.0934   -0.2565 C.ar    1  LIG1       -0.0135
     25 C          -7.4951    1.3001    0.1437 C.ar    1  LIG1        0.0670
     26 N          -6.1540    1.0638    0.3503 N.ar    1  LIG1       -0.3504
     27 H          -5.4863    1.7615    0.6344 H       1  LIG1        0.1660
     28 N          -7.1930   -2.2505   -0.5942 N.pl3   1  LIG1       -0.3563
     29 H          -7.9258   -2.4118   -1.2756 H       1  LIG1        0.1424
     30 H          -6.3249   -2.6650   -0.9197 H       1  LIG1        0.1424
     31 H          -9.1198   -0.0690   -0.4306 H       1  LIG1        0.0658
     32 C          -8.0913    2.6010    0.3340 C.ar    1  LIG1        0.0839
     33 C          -9.1224    3.2231   -0.3635 C.ar    1  LIG1        0.0516
     34 C          -9.2951    4.5249    0.1933 C.ar    1  LIG1       -0.0230
     35 C          -8.3766    4.6665    1.2105 C.ar    1  LIG1        0.0040
     36 N          -7.6272    3.5193    1.2783 N.ar    1  LIG1       -0.3580
     37 H          -7.0796    3.2531    2.0817 H       1  LIG1        0.1654
     38 H          -8.1994    5.4912    1.8845 H       1  LIG1        0.0807
     39 N          -9.8679    2.6589   -1.4114 N.pl3   1  LIG1       -0.3563
     40 H         -10.1480    3.3455   -2.1024 H       1  LIG1        0.1424
     41 H          -9.3683    1.9002   -1.8650 H       1  LIG1        0.1424
     42 H         -10.0070    5.2713   -0.1312 H       1  LIG1        0.0651
@<TRIPOS>BOND
     1    40    39    1
     2    41    39    1
     3    10     8    1
     4    39    33    1
     5    29    28    1
     6     9     8    1
     7     8     2    1
     8    30    28    1
     9    11     3    1
    10     2     3   ar
    11     2     1   ar
    12    28    23    1
    13    17    16    1
    14     3     4   ar
    15    31    24    1
    16     1     7    1
    17     1     5   ar
    18    33    34   ar
    19    33    32   ar
    20    23    24   ar
    21    23    22   ar
    22    24    25   ar
    23     4     5   ar
    24     4    12    1
    25    42    34    1
    26     5     6    1
    27    16    12   ar
    28    16    15   ar
    29    12    13   ar
    30    22    15    1
    31    22    26   ar
    32    25    32    1
    33    25    26   ar
    34    34    35   ar
    35    15    14   ar
    36    20    18    1
    37    32    36   ar
    38    26    27    1
    39    13    14   ar
    40    13    18    1
    41    14    21    1
    42    18    19    1
    43    35    36   ar
    44    35    38    1
    45    36    37    1
