@<TRIPOS>MOLECULE
mol_data/opt/b3lyp/geoms/mol2/13ha13ha.out
 22 23 0 0 0
SMALL
GASTEIGER

@<TRIPOS>ATOM
      1 C           1.1519   -0.2887   -0.4176 C.ar    1  LIG1        0.0230
      2 C           0.7905    0.9627    0.0374 C.ar    1  LIG1        0.0427
      3 C          -0.6112    0.9282    0.3127 C.ar    1  LIG1       -0.0142
      4 C          -1.0720   -0.3488    0.0187 C.ar    1  LIG1        0.0665
      5 N           0.0167   -1.0921   -0.3901 N.ar    1  LIG1       -0.3578
      6 H          -0.0716   -1.9533   -0.9056 H       1  LIG1        0.1654
      7 H           2.1142   -0.6847   -0.7051 H       1  LIG1        0.0826
      8 N           1.6418    2.0535    0.3017 N.pl3   1  LIG1       -0.3568
      9 H           2.5056    2.0104   -0.2264 H       1  LIG1        0.1424
     10 H           1.1896    2.9423    0.1206 H       1  LIG1        0.1424
     11 H          -1.1959    1.7156    0.7682 H       1  LIG1        0.0658
     12 C          -2.4037   -0.9072    0.0769 C.ar    1  LIG1        0.0838
     13 C          -3.6373   -0.3152   -0.1750 C.ar    1  LIG1        0.0516
     14 C          -4.6364   -1.3218   -0.0235 C.ar    1  LIG1       -0.0230
     15 C          -3.9964   -2.4942    0.3168 C.ar    1  LIG1        0.0040
     16 N          -2.6468   -2.2529    0.3514 N.ar    1  LIG1       -0.3580
     17 H          -1.9707   -2.8547    0.7942 H       1  LIG1        0.1654
     18 H          -4.3963   -3.4732    0.5346 H       1  LIG1        0.0807
     19 N          -3.8551    1.0357   -0.4959 N.pl3   1  LIG1       -0.3563
     20 H          -3.0147    1.4732   -0.8615 H       1  LIG1        0.1424
     21 H          -4.6168    1.1585   -1.1536 H       1  LIG1        0.1424
     22 H          -5.7013   -1.1936   -0.1604 H       1  LIG1        0.0651
@<TRIPOS>BOND
     1    21    19    1
     2     6     5    1
     3    20    19    1
     4     7     1    1
     5    19    13    1
     6     1     5   ar
     7     1     2   ar
     8     5     4   ar
     9     9     8    1
    10    13    14   ar
    11    13    12   ar
    12    22    14    1
    13    14    15   ar
    14     4    12    1
    15     4     3   ar
    16     2     8    1
    17     2     3   ar
    18    12    16   ar
    19    10     8    1
    20     3    11    1
    21    15    16   ar
    22    15    18    1
    23    16    17    1
