@<TRIPOS>MOLECULE
mol_data/opt/b3lyp/geoms/mol2/13ha13ha13ha13ha-.out
 42 45 0 0 0
SMALL
GASTEIGER

@<TRIPOS>ATOM
      1 C           0.9895    0.1942   -1.2266 C.ar    1  LIG1        0.0230
      2 C           0.8446    1.1507   -0.2436 C.ar    1  LIG1        0.0427
      3 C          -0.4154    0.9238    0.3915 C.ar    1  LIG1       -0.0142
      4 C          -1.0110   -0.1721   -0.2211 C.ar    1  LIG1        0.0665
      5 N          -0.1284   -0.6344   -1.1791 N.ar    1  LIG1       -0.3578
      6 H          -0.4185   -1.2139   -1.9510 H       1  LIG1        0.1654
      7 H           1.8043   -0.0001   -1.9076 H       1  LIG1        0.0826
      8 N           1.7944    2.1091    0.1612 N.pl3   1  LIG1       -0.3568
      9 H           2.4640    2.3256   -0.5681 H       1  LIG1        0.1424
     10 H           1.3585    2.9693    0.4734 H       1  LIG1        0.1424
     11 H          -0.7948    1.4350    1.2655 H       1  LIG1        0.0658
     12 C          -2.2956   -0.7900    0.0009 C.ar    1  LIG1        0.0843
     13 C          -3.5130   -0.2239    0.3734 C.ar    1  LIG1        0.0523
     14 C          -4.4857   -1.2593    0.3926 C.ar    1  LIG1       -0.0135
     15 C          -3.8544   -2.4504    0.0337 C.ar    1  LIG1        0.0670
     16 N          -2.5337   -2.1476   -0.2121 N.ar    1  LIG1       -0.3504
     17 H          -1.8176   -2.8214   -0.4283 H       1  LIG1        0.1660
     18 N          -3.7207    1.1232    0.7129 N.pl3   1  LIG1       -0.3563
     19 H          -3.0114    1.7267    0.3078 H       1  LIG1        0.1424
     20 H          -4.6426    1.4501    0.4472 H       1  LIG1        0.1424
     21 H          -5.5147   -1.1712    0.7119 H       1  LIG1        0.0658
     22 C          -4.3822   -3.7856   -0.0910 C.ar    1  LIG1        0.0843
     23 C          -5.6704   -4.2042   -0.4382 C.ar    1  LIG1        0.0523
     24 C          -5.6677   -5.6217   -0.4738 C.ar    1  LIG1       -0.0135
     25 C          -4.3801   -6.0473   -0.1499 C.ar    1  LIG1        0.0670
     26 N          -3.6147   -4.9300    0.0628 N.ar    1  LIG1       -0.3504
     27 H          -2.6748   -5.0216    0.4372 H       1  LIG1        0.1660
     28 N          -6.7684   -3.3603   -0.6799 N.pl3   1  LIG1       -0.3563
     29 H          -6.4717   -2.4404   -0.9918 H       1  LIG1        0.1424
     30 H          -7.4143   -3.7541   -1.3546 H       1  LIG1        0.1424
     31 H          -6.5162   -6.2514   -0.7074 H       1  LIG1        0.0658
     32 C          -3.8006   -7.3594    0.0099 C.ar    1  LIG1        0.0839
     33 C          -2.5198   -7.7314    0.4157 C.ar    1  LIG1        0.0516
     34 C          -2.4588   -9.1555    0.4155 C.ar    1  LIG1       -0.0230
     35 C          -3.6920   -9.6185    0.0135 C.ar    1  LIG1        0.0040
     36 N          -4.4936   -8.5267   -0.2278 N.ar    1  LIG1       -0.3580
     37 H          -5.4513   -8.5659   -0.5352 H       1  LIG1        0.1654
     38 H          -4.0627  -10.6234   -0.1199 H       1  LIG1        0.0807
     39 N          -1.5017   -6.7788    0.7689 N.pl3   1  LIG1       -0.3563
     40 H          -1.2095   -6.9106    1.7356 H       1  LIG1        0.1424
     41 H          -0.6697   -6.9170    0.1985 H       1  LIG1        0.1424
     42 H          -1.6060   -9.7651    0.6820 H       1  LIG1        0.0651
@<TRIPOS>BOND
     1     6     5    1
     2     7     1    1
     3    30    28    1
     4     1     5   ar
     5     1     2   ar
     6     5     4   ar
     7    29    28    1
     8    31    24    1
     9    28    23    1
    10     9     8    1
    11    37    36    1
    12    24    23   ar
    13    24    25   ar
    14    23    22   ar
    15    17    16    1
    16     2     8    1
    17     2     3   ar
    18    36    32   ar
    19    36    35   ar
    20     4    12    1
    21     4     3   ar
    22    16    12   ar
    23    16    15   ar
    24    25    32    1
    25    25    26   ar
    26    38    35    1
    27    22    15    1
    28    22    26   ar
    29    12    13   ar
    30    32    33   ar
    31    35    34   ar
    32    15    14   ar
    33    26    27    1
    34     8    10    1
    35    41    39    1
    36    19    18    1
    37    13    14   ar
    38    13    18    1
    39     3    11    1
    40    14    21    1
    41    34    33   ar
    42    34    42    1
    43    33    39    1
    44    20    18    1
    45    39    40    1
