@<TRIPOS>MOLECULE
mol_data/opt/b3lyp/geoms/mol2/13ha13ha13ha13ha.out
 42 45 0 0 0
SMALL
GASTEIGER

@<TRIPOS>ATOM
      1 C           0.9417    0.1891   -1.3787 C.ar    1  LIG1        0.0230
      2 C           0.8466    1.1518   -0.3955 C.ar    1  LIG1        0.0427
      3 C          -0.3799    0.9286    0.3034 C.ar    1  LIG1       -0.0142
      4 C          -1.0054   -0.1705   -0.2714 C.ar    1  LIG1        0.0665
      5 N          -0.1722   -0.6390   -1.2703 N.ar    1  LIG1       -0.3578
      6 H          -0.5012   -1.2185   -2.0265 H       1  LIG1        0.1654
      7 H           1.7207   -0.0091   -2.0992 H       1  LIG1        0.0826
      8 N           1.8152    2.1118   -0.0450 N.pl3   1  LIG1       -0.3568
      9 H           2.4462    2.3270   -0.8081 H       1  LIG1        0.1424
     10 H           1.3972    2.9720    0.2904 H       1  LIG1        0.1424
     11 H          -0.7164    1.4462    1.1912 H       1  LIG1        0.0658
     12 C          -2.2773   -0.7866    0.0224 C.ar    1  LIG1        0.0843
     13 C          -3.4766   -0.2147    0.4412 C.ar    1  LIG1        0.0523
     14 C          -4.4425   -1.2528    0.5380 C.ar    1  LIG1       -0.0135
     15 C          -3.8267   -2.4509    0.1793 C.ar    1  LIG1        0.0670
     16 N          -2.5174   -2.1521   -0.1312 N.ar    1  LIG1       -0.3504
     17 H          -1.8279   -2.8154   -0.4437 H       1  LIG1        0.1660
     18 N          -3.6706    1.1381    0.7635 N.pl3   1  LIG1       -0.3563
     19 H          -2.9851    1.7357    0.3116 H       1  LIG1        0.1424
     20 H          -4.6065    1.4582    0.5427 H       1  LIG1        0.1424
     21 H          -5.4546   -1.1610    0.9067 H       1  LIG1        0.0658
     22 C          -4.3623   -3.7882    0.1080 C.ar    1  LIG1        0.0843
     23 C          -5.6376   -4.2209   -0.2518 C.ar    1  LIG1        0.0523
     24 C          -5.6449   -5.6412   -0.2044 C.ar    1  LIG1       -0.0135
     25 C          -4.3765   -6.0657    0.1852 C.ar    1  LIG1        0.0670
     26 N          -3.6104   -4.9352    0.3654 N.ar    1  LIG1       -0.3504
     27 H          -2.6494   -4.9384    0.6648 H       1  LIG1        0.1660
     28 N          -6.7287   -3.3906   -0.5533 N.pl3   1  LIG1       -0.3563
     29 H          -6.4309   -2.4734   -0.8709 H       1  LIG1        0.1424
     30 H          -7.3554   -3.8051   -1.2332 H       1  LIG1        0.1424
     31 H          -6.4965   -6.2884   -0.3618 H       1  LIG1        0.0658
     32 C          -3.8544   -7.3966    0.3874 C.ar    1  LIG1        0.0839
     33 C          -4.1276   -8.5775   -0.2962 C.ar    1  LIG1        0.0516
     34 C          -3.3086   -9.6006    0.2671 C.ar    1  LIG1       -0.0230
     35 C          -2.5633   -9.0281    1.2745 C.ar    1  LIG1        0.0040
     36 N          -2.8666   -7.6910    1.3299 N.ar    1  LIG1       -0.3580
     37 H          -2.6769   -7.1059    2.1285 H       1  LIG1        0.1654
     38 H          -1.8445   -9.4670    1.9500 H       1  LIG1        0.0807
     39 N          -5.0571   -8.7325   -1.3374 N.pl3   1  LIG1       -0.3563
     40 H          -5.2628   -7.8497   -1.7947 H       1  LIG1        0.1424
     41 H          -4.7592   -9.4139   -2.0261 H       1  LIG1        0.1424
     42 H          -3.2687  -10.6347   -0.0464 H       1  LIG1        0.0651
@<TRIPOS>BOND
     1     7     1    1
     2     6     5    1
     3    41    39    1
     4    40    39    1
     5     1     5   ar
     6     1     2   ar
     7    39    33    1
     8     5     4   ar
     9    30    28    1
    10    29    28    1
    11     9     8    1
    12    28    23    1
    13    17    16    1
    14     2     8    1
    15     2     3   ar
    16    31    24    1
    17    33    34   ar
    18    33    32   ar
    19     4    12    1
    20     4     3   ar
    21    23    24   ar
    22    23    22   ar
    23    24    25   ar
    24    16    12   ar
    25    16    15   ar
    26    42    34    1
    27     8    10    1
    28    12    13   ar
    29    22    15    1
    30    22    26   ar
    31    15    14   ar
    32    25    26   ar
    33    25    32    1
    34    34    35   ar
    35     3    11    1
    36    19    18    1
    37    26    27    1
    38    32    36   ar
    39    13    14   ar
    40    13    18    1
    41    14    21    1
    42    20    18    1
    43    35    36   ar
    44    35    38    1
    45    36    37    1
