@<TRIPOS>MOLECULE
mol_data/opt/b3lyp/geoms/mol2/13ha13ha-13ha.out
 32 34 0 0 0
SMALL
GASTEIGER

@<TRIPOS>ATOM
      1 C           1.2479   -0.2972   -0.0443 C.ar    1  LIG1        0.0230
      2 C           0.8520    1.0313   -0.0556 C.ar    1  LIG1        0.0427
      3 C          -0.5701    1.0482   -0.0615 C.ar    1  LIG1       -0.0142
      4 C          -1.0035   -0.2759   -0.0528 C.ar    1  LIG1        0.0665
      5 N           0.1106   -1.0743   -0.0355 N.ar    1  LIG1       -0.3578
      6 H           0.0262   -2.0849   -0.0371 H       1  LIG1        0.1654
      7 H           2.2344   -0.7356   -0.0296 H       1  LIG1        0.0826
      8 N           1.6873    2.1696    0.0088 N.pl3   1  LIG1       -0.3568
      9 H           2.6312    1.9647   -0.2995 H       1  LIG1        0.1424
     10 H           1.3265    2.9310   -0.5560 H       1  LIG1        0.1424
     11 H          -1.1974    1.9296   -0.0602 H       1  LIG1        0.0658
     12 C          -2.3233   -0.8621   -0.0597 C.ar    1  LIG1        0.0843
     13 C          -2.7089   -2.2049   -0.0597 C.ar    1  LIG1        0.0523
     14 C          -4.1291   -2.2500   -0.0693 C.ar    1  LIG1       -0.0135
     15 C          -4.5849   -0.9363   -0.0753 C.ar    1  LIG1        0.0670
     16 N          -3.4763   -0.1183   -0.0691 N.ar    1  LIG1       -0.3504
     17 H          -3.5797    0.8921   -0.0695 H       1  LIG1        0.1660
     18 N          -1.7699   -3.2938   -0.0493 N.pl3   1  LIG1       -0.3563
     19 H          -1.9088   -3.8785    0.7727 H       1  LIG1        0.1424
     20 H          -1.9118   -3.8967   -0.8573 H       1  LIG1        0.1424
     21 H          -4.7377   -3.1454   -0.0706 H       1  LIG1        0.0658
     22 C          -5.9085   -0.3589   -0.0863 C.ar    1  LIG1        0.0839
     23 C          -6.3056    0.9768   -0.0804 C.ar    1  LIG1        0.0516
     24 C          -7.7311    1.0079   -0.0987 C.ar    1  LIG1       -0.0230
     25 C          -8.1696   -0.2972   -0.1153 C.ar    1  LIG1        0.0040
     26 N          -7.0616   -1.1135   -0.1064 N.ar    1  LIG1       -0.3580
     27 H          -7.0817   -2.1197   -0.1178 H       1  LIG1        0.1654
     28 H          -9.1668   -0.7102   -0.1321 H       1  LIG1        0.0807
     29 N          -5.3738    2.0712   -0.0580 N.pl3   1  LIG1       -0.3563
     30 H          -5.5276    2.6896   -0.8518 H       1  LIG1        0.1424
     31 H          -5.5048    2.6378    0.7778 H       1  LIG1        0.1424
     32 H          -8.3572    1.8899   -0.0993 H       1  LIG1        0.0651
@<TRIPOS>BOND
     1    20    18    1
     2    30    29    1
     3    10     8    1
     4     9     8    1
     5    28    25    1
     6    27    26    1
     7    25    26   ar
     8    25    24   ar
     9    26    22   ar
    10    32    24    1
    11    24    23   ar
    12    22    23   ar
    13    22    15    1
    14    23    29    1
    15    15    14   ar
    16    15    16   ar
    17    21    14    1
    18    17    16    1
    19    14    13   ar
    20    16    12   ar
    21     3    11    1
    22     3     2   ar
    23     3     4   ar
    24    12    13   ar
    25    12     4    1
    26    13    18    1
    27    29    31    1
    28     2     1   ar
    29     2     8    1
    30     4     5   ar
    31    18    19    1
    32     1     5   ar
    33     1     7    1
    34     6     5    1
