@<TRIPOS>MOLECULE
mol_data/opt/b3lyp/geoms/mol2/13ha13ha13ha-13ha-.out
 42 45 0 0 0
SMALL
GASTEIGER

@<TRIPOS>ATOM
      1 C           1.2493   -0.1610   -0.5934 C.ar    1  LIG1        0.0230
      2 C           0.9027    1.0662   -0.0652 C.ar    1  LIG1        0.0427
      3 C          -0.4963    1.0296    0.2176 C.ar    1  LIG1       -0.0142
      4 C          -0.9719   -0.2268   -0.1448 C.ar    1  LIG1        0.0665
      5 N           0.1066   -0.9518   -0.6055 N.ar    1  LIG1       -0.3578
      6 H           0.0145   -1.8021   -1.1374 H       1  LIG1        0.1654
      7 H           2.2051   -0.5481   -0.9126 H       1  LIG1        0.0826
      8 N           1.7675    2.1333    0.2521 N.pl3   1  LIG1       -0.3568
      9 H           2.6298    2.1044   -0.2796 H       1  LIG1        0.1424
     10 H           1.3260    3.0347    0.1105 H       1  LIG1        0.1424
     11 H          -1.0680    1.7933    0.7265 H       1  LIG1        0.0658
     12 C          -2.3063   -0.7743   -0.1077 C.ar    1  LIG1        0.0843
     13 C          -3.5389   -0.1315   -0.2514 C.ar    1  LIG1        0.0523
     14 C          -4.5502   -1.1242   -0.1980 C.ar    1  LIG1       -0.0135
     15 C          -3.9208   -2.3570   -0.0251 C.ar    1  LIG1        0.0670
     16 N          -2.5684   -2.1300    0.0129 N.ar    1  LIG1       -0.3504
     17 H          -1.9283   -2.8759    0.2670 H       1  LIG1        0.1660
     18 N          -3.7298    1.2544   -0.3927 N.pl3   1  LIG1       -0.3563
     19 H          -2.8990    1.7078   -0.7616 H       1  LIG1        0.1424
     20 H          -4.5247    1.4738   -0.9828 H       1  LIG1        0.1424
     21 H          -5.6157   -0.9487   -0.2676 H       1  LIG1        0.0658
     22 C          -4.4373   -3.6932    0.1280 C.ar    1  LIG1        0.0843
     23 C          -3.7756   -4.8891    0.3937 C.ar    1  LIG1        0.0523
     24 C          -4.7471   -5.9289    0.4415 C.ar    1  LIG1       -0.0135
     25 C          -5.9903   -5.3582    0.1998 C.ar    1  LIG1        0.0670
     26 N          -5.7828   -3.9974    0.0318 N.ar    1  LIG1       -0.3504
     27 H          -6.4737   -3.3694   -0.3468 H       1  LIG1        0.1660
     28 N          -2.3562   -4.9675    0.6088 N.pl3   1  LIG1       -0.3563
     29 H          -2.1557   -5.2634    1.5628 H       1  LIG1        0.1424
     30 H          -1.9447   -5.6730    0.0011 H       1  LIG1        0.1424
     31 H          -4.5763   -6.9659    0.6968 H       1  LIG1        0.0658
     32 C          -7.3041   -5.9489    0.1154 C.ar    1  LIG1        0.0839
     33 C          -7.6967   -7.1985   -0.3561 C.ar    1  LIG1        0.0516
     34 C          -9.1173   -7.2689   -0.2566 C.ar    1  LIG1       -0.0230
     35 C          -9.5567   -6.0732    0.2696 C.ar    1  LIG1        0.0040
     36 N          -8.4675   -5.2637    0.4680 N.ar    1  LIG1       -0.3580
     37 H          -8.4690   -4.4446    1.0551 H       1  LIG1        0.1654
     38 H         -10.5541   -5.7395    0.5136 H       1  LIG1        0.0807
     39 N          -6.8396   -8.2093   -0.8228 N.pl3   1  LIG1       -0.3563
     40 H          -7.2609   -8.7624   -1.5606 H       1  LIG1        0.1424
     41 H          -5.9534   -7.8316   -1.1445 H       1  LIG1        0.1424
     42 H          -9.7399   -8.1022   -0.5519 H       1  LIG1        0.0651
@<TRIPOS>BOND
     1    40    39    1
     2    41    39    1
     3     6     5    1
     4    20    18    1
     5     7     1    1
     6    39    33    1
     7    19    18    1
     8     5     1   ar
     9     5     4   ar
    10     1     2   ar
    11    42    34    1
    12    18    13    1
    13    33    34   ar
    14    33    32   ar
    15    27    26    1
    16     9     8    1
    17    21    14    1
    18    34    35   ar
    19    13    14   ar
    20    13    12   ar
    21    14    15   ar
    22     4    12    1
    23     4     3   ar
    24    12    16   ar
    25     2     3   ar
    26     2     8    1
    27    15    16   ar
    28    15    22    1
    29    30    28    1
    30    16    17    1
    31    26    22   ar
    32    26    25   ar
    33    10     8    1
    34    32    25    1
    35    32    36   ar
    36    22    23   ar
    37    25    24   ar
    38     3    11    1
    39    35    36   ar
    40    35    38    1
    41    23    24   ar
    42    23    28    1
    43    24    31    1
    44    36    37    1
    45    28    29    1
