@<TRIPOS>MOLECULE
mol_data/opt/b3lyp/geoms/mol2/13ha13ha13ha.out
 32 34 0 0 0
SMALL
GASTEIGER

@<TRIPOS>ATOM
      1 C           1.1121   -0.1065   -0.8697 C.ar    1  LIG1        0.0230
      2 C           0.8592    1.0059   -0.0943 C.ar    1  LIG1        0.0427
      3 C          -0.4820    0.8949    0.3868 C.ar    1  LIG1       -0.0142
      4 C          -1.0166   -0.2882   -0.1072 C.ar    1  LIG1        0.0665
      5 N          -0.0236   -0.9108   -0.8399 N.ar    1  LIG1       -0.3578
      6 H          -0.2184   -1.6151   -1.5339 H       1  LIG1        0.1654
      7 H           2.0071   -0.4173   -1.3873 H       1  LIG1        0.0826
      8 N           1.7694    2.0166    0.2705 N.pl3   1  LIG1       -0.3568
      9 H           2.5379    2.1050   -0.3839 H       1  LIG1        0.1424
     10 H           1.3183    2.9182    0.3739 H       1  LIG1        0.1424
     11 H          -0.9658    1.5513    1.0970 H       1  LIG1        0.0658
     12 C          -2.3358   -0.8564    0.0389 C.ar    1  LIG1        0.0843
     13 C          -3.5784   -0.2323    0.1227 C.ar    1  LIG1        0.0523
     14 C          -4.5697   -1.2481    0.2065 C.ar    1  LIG1       -0.0135
     15 C          -3.9249   -2.4825    0.1742 C.ar    1  LIG1        0.0670
     16 N          -2.5751   -2.2298    0.0707 N.ar    1  LIG1       -0.3504
     17 H          -1.8584   -2.9353    0.0238 H       1  LIG1        0.1660
     18 N          -3.7983    1.1538    0.1719 N.pl3   1  LIG1       -0.3563
     19 H          -3.0242    1.6728   -0.2314 H       1  LIG1        0.1424
     20 H          -4.6657    1.4241   -0.2773 H       1  LIG1        0.1424
     21 H          -5.6312   -1.1038    0.3523 H       1  LIG1        0.0658
     22 C          -4.4617   -3.8223    0.2282 C.ar    1  LIG1        0.0839
     23 C          -5.6398   -4.3353   -0.3058 C.ar    1  LIG1        0.0516
     24 C          -5.6751   -5.7303   -0.0102 C.ar    1  LIG1       -0.0230
     25 C          -4.5304   -6.0345    0.6939 C.ar    1  LIG1        0.0040
     26 N          -3.7807   -4.8915    0.8134 N.ar    1  LIG1       -0.3580
     27 H          -3.0451   -4.7698    1.4918 H       1  LIG1        0.1654
     28 H          -4.1944   -6.9706    1.1141 H       1  LIG1        0.0807
     29 N          -6.6223   -3.6028   -0.9921 N.pl3   1  LIG1       -0.3563
     30 H          -6.2498   -2.7381   -1.3721 H       1  LIG1        0.1424
     31 H          -7.0616   -4.1400   -1.7311 H       1  LIG1        0.1424
     32 H          -6.4515   -6.4264   -0.2965 H       1  LIG1        0.0651
@<TRIPOS>BOND
     1    31    29    1
     2     6     5    1
     3     7     1    1
     4    30    29    1
     5    29    23    1
     6     1     5   ar
     7     1     2   ar
     8     5     4   ar
     9     9     8    1
    10    23    24   ar
    11    23    22   ar
    12    32    24    1
    13    20    18    1
    14    19    18    1
    15     4    12    1
    16     4     3   ar
    17     2     8    1
    18     2     3   ar
    19    24    25   ar
    20    17    16    1
    21    12    16   ar
    22    12    13   ar
    23    16    15   ar
    24    13    18    1
    25    13    14   ar
    26    15    14   ar
    27    15    22    1
    28    14    21    1
    29    22    26   ar
    30     8    10    1
    31     3    11    1
    32    25    26   ar
    33    25    28    1
    34    26    27    1
