@<TRIPOS>MOLECULE
mol_data/opt/b3lyp/geoms/mol2/13ha13ha-.out
 22 23 0 0 0
SMALL
GASTEIGER

@<TRIPOS>ATOM
      1 C           1.1677   -0.2790   -0.0795 C.ar    1  LIG1        0.0230
      2 C           0.7865    1.0516   -0.0069 C.ar    1  LIG1        0.0427
      3 C          -0.6359    1.0819    0.0172 C.ar    1  LIG1       -0.0142
      4 C          -1.0824   -0.2364   -0.0400 C.ar    1  LIG1        0.0665
      5 N           0.0225   -1.0442   -0.0906 N.ar    1  LIG1       -0.3578
      6 H          -0.0756   -2.0524   -0.1479 H       1  LIG1        0.1654
      7 H           2.1494   -0.7271   -0.1101 H       1  LIG1        0.0826
      8 N           1.6331    2.1770    0.1061 N.pl3   1  LIG1       -0.3568
      9 H           2.5757    1.9756   -0.2082 H       1  LIG1        0.1424
     10 H           1.2821    2.9668   -0.4247 H       1  LIG1        0.1424
     11 H          -1.2492    1.9711    0.0824 H       1  LIG1        0.0658
     12 C          -2.4073   -0.8155   -0.0516 C.ar    1  LIG1        0.0838
     13 C          -2.8059   -2.1483   -0.1221 C.ar    1  LIG1        0.0516
     14 C          -4.2317   -2.1790   -0.1011 C.ar    1  LIG1       -0.0230
     15 C          -4.6682   -0.8757   -0.0190 C.ar    1  LIG1        0.0040
     16 N          -3.5587   -0.0619    0.0093 N.ar    1  LIG1       -0.3580
     17 H          -3.5756    0.9422    0.0780 H       1  LIG1        0.1654
     18 H          -5.6647   -0.4626    0.0212 H       1  LIG1        0.0807
     19 N          -1.8752   -3.2420   -0.1988 N.pl3   1  LIG1       -0.3563
     20 H          -2.0043   -3.8768    0.5867 H       1  LIG1        0.1424
     21 H          -2.0376   -3.7916   -1.0403 H       1  LIG1        0.1424
     22 H          -4.8590   -3.0592   -0.1422 H       1  LIG1        0.0651
@<TRIPOS>BOND
     1    21    19    1
     2    10     8    1
     3     9     8    1
     4    19    13    1
     5    19    20    1
     6     6     5    1
     7    22    14    1
     8    13    14   ar
     9    13    12   ar
    10     7     1    1
    11    14    15   ar
    12     5     1   ar
    13     5     4   ar
    14     1     2   ar
    15    12     4    1
    16    12    16   ar
    17     4     3   ar
    18    15    16   ar
    19    15    18    1
    20     2     3   ar
    21     2     8    1
    22    16    17    1
    23     3    11    1
