@<TRIPOS>MOLECULE
mol_data/opt/b3lyp/geoms/mol2/13ha13ha-4ha13ha.out
 44 47 0 0 0
SMALL
GASTEIGER

@<TRIPOS>ATOM
      1 C           1.3935   -0.5166    0.2430 C.ar    1  LIG1        0.0230
      2 C           1.0572    0.7899    0.5635 C.ar    1  LIG1        0.0427
      3 C          -0.3569    0.8994    0.4579 C.ar    1  LIG1       -0.0142
      4 C          -0.8450   -0.3494    0.0774 C.ar    1  LIG1        0.0665
      5 N           0.2284   -1.1933   -0.0411 N.ar    1  LIG1       -0.3578
      6 H           0.1017   -2.1579   -0.3278 H       1  LIG1        0.1654
      7 H           2.3555   -1.0055    0.2097 H       1  LIG1        0.0826
      8 N           1.9309    1.8114    0.9962 N.pl3   1  LIG1       -0.3568
      9 H           2.8890    1.6389    0.7136 H       1  LIG1        0.1424
     10 H           1.6516    2.7210    0.6454 H       1  LIG1        0.1424
     11 H          -0.9420    1.7884    0.6532 H       1  LIG1        0.0658
     12 C          -2.1819   -0.8304   -0.1782 C.ar    1  LIG1        0.0843
     13 C          -2.6229   -2.0916   -0.5814 C.ar    1  LIG1        0.0522
     14 C          -4.0369   -2.0425   -0.6906 C.ar    1  LIG1       -0.0150
     15 C          -4.4496   -0.7584   -0.3541 C.ar    1  LIG1        0.0505
     16 N          -3.3002   -0.0397   -0.0620 N.ar    1  LIG1       -0.3515
     17 H          -3.3180    0.9042    0.2960 H       1  LIG1        0.1660
     18 N          -1.7310   -3.1907   -0.8356 N.pl3   1  LIG1       -0.3563
     19 H          -1.9743   -3.9872   -0.2500 H       1  LIG1        0.1424
     20 H          -1.8189   -3.5078   -1.7993 H       1  LIG1        0.1424
     21 H          -4.6840   -2.8494   -1.0069 H       1  LIG1        0.0657
     22 C          -6.0737    1.1875   -0.4092 C.ar    1  LIG1        0.0344
     23 C          -7.3758    1.6656   -0.2404 C.ar    1  LIG1       -0.0312
     24 C          -5.7941   -0.1942   -0.2386 C.ar    1  LIG1        0.0190
     25 C          -8.4511    0.8141    0.0723 C.ar    1  LIG1        0.0019
     26 H          -7.5541    2.7343   -0.3234 H       1  LIG1        0.0643
     27 C          -6.8789   -1.0363    0.0645 C.ar    1  LIG1       -0.0502
     28 C          -8.1744   -0.5615    0.2064 C.ar    1  LIG1       -0.0518
     29 H          -6.6829   -2.0946    0.2070 H       1  LIG1        0.0625
     30 N          -5.0277    2.0965   -0.6931 N.pl3   1  LIG1       -0.3574
     31 H          -4.4019    1.7613   -1.4192 H       1  LIG1        0.1423
     32 H          -5.3748    3.0167   -0.9372 H       1  LIG1        0.1423
     33 H          -8.9793   -1.2626    0.4064 H       1  LIG1        0.0624
     34 C          -9.7962    1.3417    0.2546 C.ar    1  LIG1        0.0675
     35 C         -10.4372    2.4581   -0.2864 C.ar    1  LIG1        0.0502
     36 C         -11.7648    2.4891    0.2256 C.ar    1  LIG1       -0.0231
     37 C         -11.9099    1.4025    1.0639 C.ar    1  LIG1        0.0040
     38 N         -10.7375    0.7022    1.0569 N.ar    1  LIG1       -0.3592
     39 H         -10.5099   -0.0513    1.6846 H       1  LIG1        0.1654
     40 H         -12.7530    1.0824    1.6575 H       1  LIG1        0.0807
     41 N          -9.8743    3.3981   -1.1732 N.pl3   1  LIG1       -0.3563
     42 H          -9.2180    2.9700   -1.8182 H       1  LIG1        0.1424
     43 H         -10.5876    3.8848   -1.7043 H       1  LIG1        0.1424
     44 H         -12.5247    3.2228   -0.0060 H       1  LIG1        0.0651
@<TRIPOS>BOND
     1    42    41    1
     2    20    18    1
     3    43    41    1
     4    31    30    1
     5    41    35    1
     6    21    14    1
     7    32    30    1
     8    18    13    1
     9    18    19    1
    10    30    22    1
    11    14    13   ar
    12    14    15   ar
    13    13    12   ar
    14    22    23   ar
    15    22    24   ar
    16    15    24    1
    17    15    16   ar
    18     6     5    1
    19    26    23    1
    20    35    36   ar
    21    35    34   ar
    22    23    25   ar
    23    24    27   ar
    24    12    16   ar
    25    12     4    1
    26    16    17    1
    27     5     4   ar
    28     5     1   ar
    29    44    36    1
    30    27    28   ar
    31    27    29    1
    32    25    28   ar
    33    25    34    1
    34     4     3   ar
    35    28    33    1
    36     7     1    1
    37    36    37   ar
    38     1     2   ar
    39    34    38   ar
    40     3     2   ar
    41     3    11    1
    42     2     8    1
    43    10     8    1
    44     9     8    1
    45    38    37   ar
    46    38    39    1
    47    37    40    1
