@<TRIPOS>MOLECULE
mol_data/opt/b3lyp/geoms/mol2/13ha12fl13af13dd-.out
 43 46 0 0 0
SMALL
GASTEIGER

@<TRIPOS>ATOM
      1 C           1.2164    0.1842    0.7187 C.ar    1  LIG1        0.0231
      2 C           0.7698    1.3471    0.1142 C.ar    1  LIG1        0.0428
      3 C          -0.5971    1.1433   -0.2307 C.ar    1  LIG1       -0.0126
      4 C          -0.9493   -0.1430    0.1779 C.ar    1  LIG1        0.0877
      5 N           0.1620   -0.7099    0.7484 N.ar    1  LIG1       -0.3565
      6 H           0.1678   -1.6058    1.2071 H       1  LIG1        0.1655
      7 H           2.1856   -0.0750    1.1161 H       1  LIG1        0.0826
      8 N           1.4929    2.5362   -0.0786 N.pl3   1  LIG1       -0.3568
      9 H           2.4958    2.3950   -0.0695 H       1  LIG1        0.1424
     10 H           1.2318    3.0183   -0.9305 H       1  LIG1        0.1424
     11 H          -1.2253    1.8221   -0.7920 H       1  LIG1        0.0658
     12 C          -2.2250   -0.7996    0.1235 C.ar    1  LIG1        0.1969
     13 C          -3.4988   -0.2833    0.1584 C.ar    1  LIG1        0.2076
     14 C          -4.4021   -1.3917    0.1171 C.ar    1  LIG1        0.2098
     15 C          -3.6229   -2.5292    0.0738 C.ar    1  LIG1        0.1971
     16 O          -2.2898   -2.1771    0.0922 O.2     1  LIG1       -0.4443
     17 O          -3.8661    1.0244    0.2541 O.3     1  LIG1       -0.5008
     18 H          -3.0876    1.5340    0.5306 H       1  LIG1        0.2924
     19 O          -5.7552   -1.4069    0.1858 O.3     1  LIG1       -0.4884
     20 C          -6.4445   -0.4167   -0.5918 C.3     1  LIG1        0.0791
     21 H          -7.5073   -0.6073   -0.4385 H       1  LIG1        0.0660
     22 H          -6.1952    0.5937   -0.2590 H       1  LIG1        0.0660
     23 H          -6.2034   -0.5225   -1.6560 H       1  LIG1        0.0660
     24 C          -3.9407   -3.9235    0.0236 C.ar    1  LIG1        0.0900
     25 C          -5.1627   -4.5780    0.1149 C.ar    1  LIG1        0.0090
     26 C          -4.9042   -5.9677    0.0864 C.ar    1  LIG1        0.1442
     27 C          -3.5168   -6.1541   -0.0361 C.ar    1  LIG1        0.1067
     28 N          -2.9516   -4.8745   -0.1115 N.ar    1  LIG1       -0.3476
     29 H          -1.9964   -4.6726    0.1453 H       1  LIG1        0.1661
     30 H          -6.1316   -4.1114    0.1930 H       1  LIG1        0.0677
     31 O          -5.9002   -6.8797    0.0766 O.3     1  LIG1       -0.5046
     32 H          -5.6228   -7.7243    0.4676 H       1  LIG1        0.2922
     33 C          -2.7099   -7.3160   -0.2639 C.ar    1  LIG1        0.0854
     34 C          -2.8616   -8.6589    0.1075 C.ar    1  LIG1        0.0958
     35 C          -1.7330   -9.3904   -0.4205 C.ar    1  LIG1        0.0870
     36 C          -0.9325   -8.4802   -1.0746 C.ar    1  LIG1        0.0210
     37 N          -1.5208   -7.2452   -0.9646 N.ar    1  LIG1       -0.3572
     38 H          -1.2318   -6.4251   -1.4757 H       1  LIG1        0.1655
     39 H          -0.0016   -8.6272   -1.5990 H       1  LIG1        0.0820
     40 N          -4.8426   -9.4889    1.5297 N.1     1  LIG1       -0.1908
     41 C          -3.9247   -9.1525    0.8911 C.1     1  LIG1        0.1026
     42 N          -1.2510  -11.9156   -0.1700 N.1     1  LIG1       -0.1908
     43 C          -1.4707  -10.7782   -0.2813 C.1     1  LIG1        0.1020
@<TRIPOS>BOND
     1    23    20    1
     2    39    36    1
     3    38    37    1
     4    36    37   ar
     5    36    35   ar
     6    37    33   ar
     7    10     8    1
     8    11     3    1
     9    20    21    1
    10    20    22    1
    11    20    19    1
    12    35    43    1
    13    35    34   ar
    14    43    42    3
    15    33    27    1
    16    33    34   ar
    17     3     2   ar
    18     3     4   ar
    19    28    27   ar
    20    28    24   ar
    21    28    29    1
    22     8     9    1
    23     8     2    1
    24    27    26   ar
    25    24    15    1
    26    24    25   ar
    27    15    16   ar
    28    15    14   ar
    29    31    26    1
    30    31    32    1
    31    26    25   ar
    32    16    12   ar
    33    34    41    1
    34     2     1   ar
    35    25    30    1
    36    14    13   ar
    37    14    19    1
    38    12    13   ar
    39    12     4    1
    40    13    17    1
    41     4     5   ar
    42    17    18    1
    43     1     5   ar
    44     1     7    1
    45     5     6    1
    46    41    40    3
