@<TRIPOS>MOLECULE
mol_data/opt/b3lyp/geoms/mol2/13ha13ha-13ha-13ha.out
 42 45 0 0 0
SMALL
GASTEIGER

@<TRIPOS>ATOM
      1 C           1.3274   -0.4163   -0.1886 C.ar    1  LIG1        0.0230
      2 C           0.9726    0.8861   -0.5028 C.ar    1  LIG1        0.0427
      3 C          -0.4478    0.9575   -0.4646 C.ar    1  LIG1       -0.0142
      4 C          -0.9210   -0.3090   -0.1258 C.ar    1  LIG1        0.0665
      5 N           0.1682   -1.1233    0.0442 N.ar    1  LIG1       -0.3578
      6 H           0.0524   -2.0998    0.2930 H       1  LIG1        0.1654
      7 H           2.2998   -0.8772   -0.1015 H       1  LIG1        0.0826
      8 N           1.8429    1.9744   -0.7381 N.pl3   1  LIG1       -0.3568
      9 H           2.7750    1.6655   -0.9905 H       1  LIG1        0.1424
     10 H           1.4975    2.5784   -1.4763 H       1  LIG1        0.1424
     11 H          -1.0434    1.8428   -0.6448 H       1  LIG1        0.0658
     12 C          -2.2553   -0.8316    0.0454 C.ar    1  LIG1        0.0843
     13 C          -2.6843   -2.1055    0.4060 C.ar    1  LIG1        0.0523
     14 C          -4.1077   -2.1051    0.4160 C.ar    1  LIG1       -0.0135
     15 C          -4.5330   -0.8303    0.0576 C.ar    1  LIG1        0.0670
     16 N          -3.3924   -0.0708   -0.1465 N.ar    1  LIG1       -0.3504
     17 H          -3.3930    0.8459   -0.5637 H       1  LIG1        0.1660
     18 N          -1.7790   -3.1769    0.7225 N.pl3   1  LIG1       -0.3563
     19 H          -1.8643   -3.4380    1.7036 H       1  LIG1        0.1424
     20 H          -2.0156   -4.0088    0.1858 H       1  LIG1        0.1424
     21 H          -4.7542   -2.9147    0.7259 H       1  LIG1        0.0658
     22 C          -5.8569   -0.2857   -0.1037 C.ar    1  LIG1        0.0843
     23 C          -7.0437   -0.9225   -0.4786 C.ar    1  LIG1        0.0523
     24 C          -8.0608    0.0636   -0.5380 C.ar    1  LIG1       -0.0135
     25 C          -7.4806    1.2862   -0.2018 C.ar    1  LIG1        0.0670
     26 N          -6.1506    1.0610    0.0428 N.ar    1  LIG1       -0.3504
     27 H          -5.5676    1.8015    0.4219 H       1  LIG1        0.1660
     28 N          -7.1911   -2.2999   -0.7224 N.pl3   1  LIG1       -0.3563
     29 H          -7.9106   -2.4911   -1.4108 H       1  LIG1        0.1424
     30 H          -6.3168   -2.7195   -1.0249 H       1  LIG1        0.1424
     31 H          -9.0971   -0.1097   -0.7970 H       1  LIG1        0.0658
     32 C          -8.0264    2.6146   -0.0583 C.ar    1  LIG1        0.0839
     33 C          -7.4121    3.7980    0.3485 C.ar    1  LIG1        0.0516
     34 C          -8.3961    4.8292    0.3281 C.ar    1  LIG1       -0.0230
     35 C          -9.5791    4.2588   -0.0864 C.ar    1  LIG1        0.0040
     36 N          -9.3445    2.9228   -0.3166 N.ar    1  LIG1       -0.3580
     37 H         -10.0328    2.2576   -0.6281 H       1  LIG1        0.1654
     38 H         -10.5584    4.6874   -0.2360 H       1  LIG1        0.0807
     39 N          -6.0247    3.8735    0.7189 N.pl3   1  LIG1       -0.3563
     40 H          -5.5345    4.5490    0.1357 H       1  LIG1        0.1424
     41 H          -5.9282    4.2015    1.6780 H       1  LIG1        0.1424
     42 H          -8.2477    5.8681    0.5897 H       1  LIG1        0.0651
@<TRIPOS>BOND
     1    10     8    1
     2    29    28    1
     3    30    28    1
     4     9     8    1
     5    31    24    1
     6     8     2    1
     7    28    23    1
     8    11     3    1
     9    37    36    1
    10    17    16    1
    11    24    23   ar
    12    24    25   ar
    13     2     3   ar
    14     2     1   ar
    15    23    22   ar
    16     3     4   ar
    17    36    35   ar
    18    36    32   ar
    19    38    35    1
    20    25    32    1
    21    25    26   ar
    22     1     7    1
    23     1     5   ar
    24    16    12   ar
    25    16    15   ar
    26     4     5   ar
    27     4    12    1
    28    22    26   ar
    29    22    15    1
    30    35    34   ar
    31    32    33   ar
    32    26    27    1
    33     5     6    1
    34    12    13   ar
    35    15    14   ar
    36    40    39    1
    37    20    18    1
    38    34    33   ar
    39    34    42    1
    40    33    39    1
    41    13    14   ar
    42    13    18    1
    43    14    21    1
    44    39    41    1
    45    18    19    1
