@<TRIPOS>MOLECULE
mol_data/opt/b3lyp/geoms/mol2/13ha13dd6ea-12hf-4ff-12fd13ei-6ii.out
 92 99 0 0 0
SMALL
GASTEIGER

@<TRIPOS>ATOM
      1 C           0.9962    0.5803    0.2775 C.ar    1  LIG1        0.0230
      2 C           0.4753    1.7811    0.7323 C.ar    1  LIG1        0.0427
      3 C          -0.9412    1.6516    0.7327 C.ar    1  LIG1       -0.0142
      4 C          -1.2498    0.3759    0.2812 C.ar    1  LIG1        0.0660
      5 N          -0.0581   -0.2831    0.0423 N.ar    1  LIG1       -0.3579
      6 H           0.0202   -1.1072   -0.5334 H       1  LIG1        0.1654
      7 H           2.0189    0.2697    0.1268 H       1  LIG1        0.0826
      8 N           1.1909    2.8901    1.2045 N.pl3   1  LIG1       -0.3568
      9 H           2.1258    2.9587    0.8217 H       1  LIG1        0.1424
     10 H           0.6987    3.7633    1.0608 H       1  LIG1        0.1424
     11 H          -1.6560    2.3910    1.0638 H       1  LIG1        0.0658
     12 C          -2.5222   -0.2693    0.0896 C.ar    1  LIG1        0.0822
     13 C          -3.7932    0.2580   -0.1520 C.ar    1  LIG1        0.0963
     14 C          -4.6980   -0.8493   -0.2954 C.ar    1  LIG1        0.0950
     15 C          -3.9596   -2.0321   -0.1365 C.ar    1  LIG1        0.0685
     16 N          -2.6603   -1.6337    0.0918 N.ar    1  LIG1       -0.3509
     17 H          -1.9188   -2.2867    0.3076 H       1  LIG1        0.1660
     18 N          -4.3640    2.7666   -0.3529 N.1     1  LIG1       -0.1908
     19 C          -4.1134    1.6321   -0.2682 C.1     1  LIG1        0.1026
     20 N          -7.2085   -0.6027   -0.8456 N.1     1  LIG1       -0.1908
     21 C          -6.0760   -0.7196   -0.5978 C.1     1  LIG1        0.1026
     22 C          -3.4863   -4.5389   -0.2950 C.ar    1  LIG1        0.1230
     23 C          -4.3732   -3.4307   -0.1711 C.ar    1  LIG1        0.0335
     24 C          -5.7413   -3.7648   -0.0608 C.ar    1  LIG1       -0.0478
     25 C          -6.1610   -5.0764   -0.1192 C.ar    1  LIG1       -0.0319
     26 C          -5.2013   -6.1006   -0.2905 C.ar    1  LIG1        0.1094
     27 N          -3.8886   -5.8160   -0.3573 N.ar    1  LIG1       -0.2346
     28 H          -6.4762   -2.9840    0.0883 H       1  LIG1        0.0626
     29 C          -2.0527   -4.4035   -0.3670 C.1     1  LIG1       -0.0491
     30 C          -0.8433   -4.3417   -0.4109 C.1     1  LIG1       -0.1124
     31 H           0.2218   -4.3439   -0.4619 H       1  LIG1        0.1232
     32 H          -7.2085   -5.3198    0.0156 H       1  LIG1        0.0640
     33 C          -5.5897   -7.4880   -0.3754 C.ar    1  LIG1        0.1781
     34 C          -6.8122   -8.1187   -0.5351 C.ar    1  LIG1        0.1153
     35 C          -6.5456   -9.5199   -0.5103 C.ar    1  LIG1        0.1846
     36 C          -5.1801   -9.6800   -0.3441 C.ar    1  LIG1        0.1825
     37 O          -4.6037   -8.4354   -0.2749 O.2     1  LIG1       -0.4475
     38 N          -8.0892   -7.5818   -0.6738 N.pl3   1  LIG1       -0.3521
     39 H          -8.1526   -6.8086   -1.3252 H       1  LIG1        0.1425
     40 H          -8.7693   -8.2991   -0.8989 H       1  LIG1        0.1425
     41 O          -7.5483  -10.4082   -0.6846 O.3     1  LIG1       -0.5020
     42 H          -7.1944  -11.2995   -0.4979 H       1  LIG1        0.2924
     43 C          -4.6270  -12.1428   -0.1141 C.ar    1  LIG1        0.1285
     44 C          -3.6805  -13.1516   -0.0716 C.ar    1  LIG1       -0.0052
     45 C          -4.2529  -10.7943   -0.2856 C.ar    1  LIG1        0.0658
     46 C          -2.2982  -12.8951   -0.1856 C.ar    1  LIG1        0.0658
     47 H          -4.0071  -14.1773    0.0650 H       1  LIG1        0.0662
     48 C          -2.8729  -10.5402   -0.3954 C.ar    1  LIG1       -0.0052
     49 C          -1.9116  -11.5421   -0.3504 C.ar    1  LIG1        0.1285
     50 H          -2.5578   -9.5092   -0.5244 H       1  LIG1        0.0662
     51 O          -5.9719  -12.4415    0.0410 O.3     1  LIG1       -0.5060
     52 H          -6.0813  -13.3947    0.1514 H       1  LIG1        0.2922
     53 O          -0.5802  -11.2279   -0.4798 O.3     1  LIG1       -0.5060
     54 H          -0.5147  -10.2715   -0.6048 H       1  LIG1        0.2922
     55 C          -1.3730  -14.0057   -0.1306 C.ar    1  LIG1        0.1819
     56 C          -1.5321  -15.3725   -0.0691 C.ar    1  LIG1        0.1812
     57 C          -0.2251  -15.9708   -0.0303 C.ar    1  LIG1        0.1409
     58 C           0.6817  -14.9167   -0.0639 C.ar    1  LIG1        0.1740
     59 O          -0.0165  -13.7544   -0.1209 O.2     1  LIG1       -0.4481
     60 O          -2.7098  -16.0420   -0.0555 O.3     1  LIG1       -0.5023
     61 H          -2.5284  -16.9947   -0.0350 H       1  LIG1        0.2923
     62 N          -0.1487  -18.5402   -0.0043 N.1     1  LIG1       -0.1906
     63 C          -0.0769  -17.3763   -0.0099 C.1     1  LIG1        0.1067
     64 C           2.0999  -14.7268   -0.0740 C.ar    1  LIG1        0.0998
     65 C           3.2168  -15.5641    0.0938 C.ar    1  LIG1        0.0565
     66 C           4.3848  -14.7461   -0.0180 C.ar    1  LIG1       -0.0091
     67 C           3.9544  -13.4380   -0.2415 C.ar    1  LIG1        0.0529
     68 N           2.5806  -13.4541   -0.2641 N.ar    1  LIG1       -0.3505
     69 H           1.9785  -12.6649   -0.4467 H       1  LIG1        0.1660
     70 C           3.2159  -16.9513    0.3719 C.1     1  LIG1       -0.0672
     71 C           3.2566  -18.1357    0.6204 C.1     1  LIG1       -0.1138
     72 H           3.2439  -19.1809    0.8266 H       1  LIG1        0.1232
     73 C           5.7914  -15.2400    0.1351 C.3     1  LIG1       -0.0365
     74 H           6.4683  -14.4341    0.4299 H       1  LIG1        0.0279
     75 H           6.1764  -15.6759   -0.7952 H       1  LIG1        0.0279
     76 H           5.8385  -16.0256    0.8949 H       1  LIG1        0.0279
     77 C           4.3936  -10.9718    0.1820 C.ar    1  LIG1        0.0473
     78 C           4.7202  -12.2003   -0.4496 C.ar    1  LIG1        0.0199
     79 C           5.8286  -12.2151   -1.3073 C.ar    1  LIG1       -0.0466
     80 C           6.5787  -11.0601   -1.5346 C.ar    1  LIG1       -0.0317
     81 C           6.1472   -9.9053   -0.8772 C.ar    1  LIG1        0.0308
     82 N           5.1000   -9.8571   -0.0480 N.ar    1  LIG1       -0.2593
     83 H           6.0904  -13.1381   -1.8168 H       1  LIG1        0.0628
     84 H           6.6806   -8.9665   -1.0246 H       1  LIG1        0.0832
     85 C           3.2614  -10.8281    1.1738 C.3     1  LIG1       -0.0217
     86 H           3.1848  -11.6951    1.8358 H       1  LIG1        0.0293
     87 H           2.2864  -10.7079    0.6834 H       1  LIG1        0.0293
     88 H           3.4353   -9.9308    1.7696 H       1  LIG1        0.0293
     89 C           7.7815  -11.0544   -2.4436 C.3     1  LIG1       -0.0383
     90 H           8.1519  -10.0381   -2.6030 H       1  LIG1        0.0278
     91 H           7.5453  -11.4839   -3.4230 H       1  LIG1        0.0278
     92 H           8.6030  -11.6446   -2.0212 H       1  LIG1        0.0278
@<TRIPOS>BOND
     1    91    89    1
     2    90    89    1
     3    89    92    1
     4    89    80    1
     5    83    79    1
     6    80    79   ar
     7    80    81   ar
     8    39    38    1
     9    79    78   ar
    10    84    81    1
    11    40    38    1
    12    81    82   ar
    13    20    21    3
    14    75    73    1
    15    41    35    1
    16    41    42    1
    17    38    34    1
    18    54    53    1
    19    21    14    1
    20    34    35   ar
    21    34    33   ar
    22     6     5    1
    23    50    48    1
    24    35    36   ar
    25    53    49    1
    26    31    30    1
    27    78    67    1
    28    78    77   ar
    29    69    68    1
    30    30    29    3
    31    48    49   ar
    32    48    45   ar
    33    33    26    1
    34    33    37   ar
    35    29    22    1
    36    27    22   ar
    37    27    26   ar
    38    18    19    3
    39    49    46   ar
    40    36    45    1
    41    36    37   ar
    42    14    13   ar
    43    14    15   ar
    44    22    23   ar
    45    26    25   ar
    46    45    43   ar
    47    19    13    1
    48    68    67   ar
    49    68    64   ar
    50    67    66   ar
    51    46    55    1
    52    46    44   ar
    53    23    15    1
    54    23    24   ar
    55    13    12   ar
    56    15    16   ar
    57    55    59   ar
    58    55    56   ar
    59    59    58   ar
    60    25    24   ar
    61    25    32    1
    62    43    44   ar
    63    43    51    1
    64    64    58    1
    65    64    65   ar
    66    44    47    1
    67    56    60    1
    68    56    57   ar
    69    58    57   ar
    70    24    28    1
    71    60    61    1
    72    82    77   ar
    73    57    63    1
    74    66    65   ar
    75    66    73    1
    76    63    62    3
    77    51    52    1
    78     5     1   ar
    79     5     4   ar
    80    12    16   ar
    81    12     4    1
    82    16    17    1
    83    65    70    1
    84     7     1    1
    85    73    74    1
    86    73    76    1
    87    77    85    1
    88     1     2   ar
    89     4     3   ar
    90    70    71    3
    91    71    72    1
    92    87    85    1
    93     2     3   ar
    94     2     8    1
    95     3    11    1
    96     9     8    1
    97    10     8    1
    98    85    88    1
    99    85    86    1
