@<TRIPOS>MOLECULE
mol_data/opt/b3lyp/geoms/mol2/13hd13da-12li-6ld.out
 50 53 0 0 0
SMALL
GASTEIGER

@<TRIPOS>ATOM
      1 C           1.2098    0.1244   -1.3300 C.ar    1  LIG1        0.0243
      2 C           0.9726    1.1960   -0.4919 C.ar    1  LIG1        0.0604
      3 C          -0.4007    1.1020   -0.0772 C.ar    1  LIG1        0.0990
      4 C          -0.9571   -0.0301   -0.6855 C.ar    1  LIG1        0.0836
      5 N           0.0429   -0.6172   -1.4141 N.ar    1  LIG1       -0.3568
      6 H          -0.1200   -1.3415   -2.0962 H       1  LIG1        0.1655
      7 H           2.1056   -0.1759   -1.8501 H       1  LIG1        0.0826
      8 N           1.8775    2.1454   -0.0290 N.pl3   1  LIG1       -0.3558
      9 H           2.6310    2.3571   -0.6691 H       1  LIG1        0.1424
     10 H           1.4391    2.9911    0.3140 H       1  LIG1        0.1424
     11 N          -1.4501    2.7071    1.6486 N.1     1  LIG1       -0.1907
     12 C          -1.0133    1.9671    0.8614 C.1     1  LIG1        0.1032
     13 C          -2.2861   -0.5980   -0.6154 C.ar    1  LIG1        0.0823
     14 C          -3.5562   -0.0175   -0.7279 C.ar    1  LIG1        0.0791
     15 C          -4.5246   -1.0565   -0.6172 C.ar    1  LIG1       -0.0152
     16 C          -3.8352   -2.2449   -0.4434 C.ar    1  LIG1        0.0875
     17 N          -2.4862   -1.9492   -0.4596 N.ar    1  LIG1       -0.3495
     18 H          -1.7680   -2.6209   -0.2318 H       1  LIG1        0.1661
     19 N          -4.0801    2.4556   -1.2634 N.1     1  LIG1       -0.1908
     20 C          -3.8297    1.3476   -1.0091 C.1     1  LIG1        0.1014
     21 H          -5.5947   -0.9473   -0.6979 H       1  LIG1        0.0653
     22 C          -4.2873   -3.5951   -0.2613 C.ar    1  LIG1        0.1934
     23 C          -5.5198   -4.1793   -0.0750 C.ar    1  LIG1        0.1706
     24 C          -5.3191   -5.5930    0.0228 C.ar    1  LIG1        0.0379
     25 C          -3.9596   -5.7833   -0.1016 C.ar    1  LIG1        0.1474
     26 O          -3.3314   -4.5711   -0.2728 O.2     1  LIG1       -0.4491
     27 O          -6.7266   -3.5444   -0.0127 O.3     1  LIG1       -0.4910
     28 C          -7.0336   -2.9700    1.2681 C.3     1  LIG1        0.0790
     29 H          -8.0240   -2.5225    1.1721 H       1  LIG1        0.0660
     30 H          -7.0530   -3.7378    2.0502 H       1  LIG1        0.0660
     31 H          -6.3069   -2.1966    1.5400 H       1  LIG1        0.0660
     32 C          -6.4066   -6.6013    0.2363 C.3     1  LIG1       -0.0326
     33 H          -6.0511   -7.4668    0.8021 H       1  LIG1        0.0280
     34 H          -6.8130   -6.9664   -0.7144 H       1  LIG1        0.0280
     35 H          -7.2396   -6.1500    0.7810 H       1  LIG1        0.0280
     36 C          -1.8275   -7.0358    0.4877 C.ar    1  LIG1        0.2255
     37 C          -3.1313   -6.9820   -0.0954 C.ar    1  LIG1        0.0803
     38 C          -3.6017   -8.1724   -0.6455 C.ar    1  LIG1       -0.0271
     39 C          -2.8197   -9.3411   -0.5983 C.ar    1  LIG1        0.0707
     40 C          -1.5571   -9.2619   -0.0033 C.ar    1  LIG1        0.0488
     41 N          -1.0786   -8.1317    0.5231 N.ar    1  LIG1       -0.2194
     42 H          -4.5702   -8.1973   -1.1301 H       1  LIG1        0.0640
     43 H          -0.9155  -10.1373    0.0497 H       1  LIG1        0.0844
     44 O          -1.3479   -5.9100    1.0421 O.3     1  LIG1       -0.4792
     45 C          -0.0662   -5.9866    1.6856 C.3     1  LIG1        0.0804
     46 H           0.1071   -4.9898    2.0916 H       1  LIG1        0.0660
     47 H          -0.0752   -6.7293    2.4866 H       1  LIG1        0.0660
     48 H           0.7154   -6.2523    0.9697 H       1  LIG1        0.0660
     49 N          -3.6724  -11.5725   -1.6083 N.1     1  LIG1       -0.1908
     50 C          -3.2905  -10.5706   -1.1562 C.1     1  LIG1        0.1007
@<TRIPOS>BOND
     1     6     5    1
     2     7     1    1
     3    49    50    3
     4     5     1   ar
     5     5     4   ar
     6     1     2   ar
     7    19    20    3
     8    50    39    1
     9    42    38    1
    10    20    14    1
    11    14    15   ar
    12    14    13   ar
    13    34    32    1
    14    21    15    1
    15     4    13    1
    16     4     3   ar
    17     9     8    1
    18    38    39   ar
    19    38    37   ar
    20    15    16   ar
    21    13    17   ar
    22    39    40   ar
    23     2     3   ar
    24     2     8    1
    25    17    16   ar
    26    17    18    1
    27    16    22    1
    28    26    22   ar
    29    26    25   ar
    30    22    23   ar
    31    25    37    1
    32    25    24   ar
    33    37    36   ar
    34     3    12    1
    35    23    27    1
    36    23    24   ar
    37     8    10    1
    38    27    28    1
    39    40    43    1
    40    40    41   ar
    41    24    32    1
    42    32    35    1
    43    32    33    1
    44    36    41   ar
    45    36    44    1
    46    12    11    3
    47    48    45    1
    48    44    45    1
    49    29    28    1
    50    28    31    1
    51    28    30    1
    52    45    46    1
    53    45    47    1
