@<TRIPOS>MOLECULE
mol_data/opt/b3lyp/geoms/mol2/13hd13hd-13hd-13hd-.out
 46 49 0 0 0
SMALL
GASTEIGER

@<TRIPOS>ATOM
      1 C           1.1753    0.0296    0.0312 C.ar    1  LIG1        0.0243
      2 C           0.6268    1.2841    0.2156 C.ar    1  LIG1        0.0604
      3 C          -0.8011    1.1159    0.1803 C.ar    1  LIG1        0.0990
      4 C          -1.0607   -0.2576   -0.0229 C.ar    1  LIG1        0.0842
      5 N           0.1397   -0.8802   -0.1029 N.ar    1  LIG1       -0.3568
      6 H           0.1959   -1.8778   -0.2805 H       1  LIG1        0.1655
      7 H           2.2069   -0.2833    0.0022 H       1  LIG1        0.0826
      8 N           1.2880    2.4836    0.4731 N.pl3   1  LIG1       -0.3558
      9 H           2.2447    2.5062    0.1457 H       1  LIG1        0.1424
     10 H           0.7847    3.3056    0.1638 H       1  LIG1        0.1424
     11 N          -2.7088    2.8380    0.3821 N.1     1  LIG1       -0.1907
     12 C          -1.8049    2.0990    0.3007 C.1     1  LIG1        0.1032
     13 C          -2.3088   -0.9576   -0.1510 C.ar    1  LIG1        0.0869
     14 C          -2.5853   -2.2866   -0.4177 C.ar    1  LIG1        0.0699
     15 C          -4.0184   -2.4233   -0.4665 C.ar    1  LIG1        0.0997
     16 C          -4.5768   -1.1560   -0.2091 C.ar    1  LIG1        0.0846
     17 N          -3.5202   -0.3014   -0.0336 N.ar    1  LIG1       -0.3493
     18 H          -3.6173    0.6405    0.3182 H       1  LIG1        0.1661
     19 N          -1.5739   -3.2750   -0.6177 N.pl3   1  LIG1       -0.3553
     20 H          -1.6635   -4.0222    0.0692 H       1  LIG1        0.1424
     21 H          -1.6750   -3.7157   -1.5308 H       1  LIG1        0.1424
     22 N          -5.3363   -4.5678   -1.0254 N.1     1  LIG1       -0.1907
     23 C          -4.7322   -3.5998   -0.7758 C.1     1  LIG1        0.1032
     24 C          -5.9040   -0.6219   -0.1346 C.ar    1  LIG1        0.0869
     25 C          -7.1516   -1.1411    0.2085 C.ar    1  LIG1        0.0699
     26 C          -8.0518   -0.0181    0.3235 C.ar    1  LIG1        0.0997
     27 C          -7.3398    1.1580    0.0370 C.ar    1  LIG1        0.0846
     28 N          -6.0447    0.7816   -0.2057 N.ar    1  LIG1       -0.3493
     29 H          -5.4573    1.3342   -0.8160 H       1  LIG1        0.1661
     30 N          -7.4882   -2.4300    0.5339 N.pl3   1  LIG1       -0.3553
     31 H          -8.4777   -2.6198    0.6064 H       1  LIG1        0.1424
     32 H          -6.9588   -3.1829    0.1139 H       1  LIG1        0.1424
     33 N         -10.5052   -0.1860    1.0966 N.1     1  LIG1       -0.1907
     34 C          -9.3909   -0.1080    0.7552 C.1     1  LIG1        0.1032
     35 C          -7.7053    2.5433   -0.0169 C.ar    1  LIG1        0.0864
     36 C          -8.9072    3.2112   -0.2921 C.ar    1  LIG1        0.0693
     37 C          -8.5988    4.6167   -0.3089 C.ar    1  LIG1        0.0903
     38 C          -7.2409    4.7605   -0.0500 C.ar    1  LIG1        0.0215
     39 N          -6.7114    3.5285    0.1088 N.ar    1  LIG1       -0.3568
     40 H          -5.7735    3.3530    0.4430 H       1  LIG1        0.1655
     41 H          -6.6491    5.6575    0.0475 H       1  LIG1        0.0820
     42 N         -10.1366    2.6883   -0.6121 N.pl3   1  LIG1       -0.3553
     43 H         -10.8879    3.3641   -0.6453 H       1  LIG1        0.1424
     44 H         -10.4085    1.8133   -0.1827 H       1  LIG1        0.1424
     45 N         -10.3496    6.4580   -0.7610 N.1     1  LIG1       -0.1908
     46 C          -9.5372    5.6478   -0.5566 C.1     1  LIG1        0.1025
@<TRIPOS>BOND
     1    21    19    1
     2    22    23    3
     3    29    28    1
     4    23    15    1
     5    45    46    3
     6    43    42    1
     7    19    14    1
     8    19    20    1
     9    42    36    1
    10    42    44    1
    11    46    37    1
    12    15    14   ar
    13    15    16   ar
    14    14    13   ar
    15    37    36   ar
    16    37    38   ar
    17    36    35   ar
    18     6     5    1
    19    16    24    1
    20    16    17   ar
    21    28    24   ar
    22    28    27   ar
    23    13    17   ar
    24    13     4    1
    25    24    25   ar
    26     5     4   ar
    27     5     1   ar
    28    38    41    1
    29    38    39   ar
    30    17    18    1
    31     4     3   ar
    32    35    27    1
    33    35    39   ar
    34     7     1    1
    35     1     2   ar
    36    27    26   ar
    37    39    40    1
    38    32    30    1
    39     9     8    1
    40    10     8    1
    41     3     2   ar
    42     3    12    1
    43    25    26   ar
    44    25    30    1
    45     2     8    1
    46    12    11    3
    47    26    34    1
    48    30    31    1
    49    34    33    3
