@<TRIPOS>MOLECULE
mol_data/opt/b3lyp/geoms/mol2/13hd13hd13hd.out
 35 37 0 0 0
SMALL
GASTEIGER

@<TRIPOS>ATOM
      1 C           1.1062   -0.2206    0.8796 C.ar    1  LIG1        0.0243
      2 C           0.9300    0.9638    0.2023 C.ar    1  LIG1        0.0604
      3 C          -0.4282    0.9658   -0.2809 C.ar    1  LIG1        0.0990
      4 C          -1.0459   -0.2226    0.1395 C.ar    1  LIG1        0.0842
      5 N          -0.0890   -0.9353    0.8140 N.ar    1  LIG1       -0.3568
      6 H          -0.3117   -1.6943    1.4393 H       1  LIG1        0.1655
      7 H           1.9686   -0.6179    1.3909 H       1  LIG1        0.0826
      8 N           1.8331    2.0087    0.0312 N.pl3   1  LIG1       -0.3558
      9 H           2.8054    1.7326    0.0549 H       1  LIG1        0.1424
     10 H           1.6389    2.5941   -0.7714 H       1  LIG1        0.1424
     11 N          -1.5002    2.7822   -1.7635 N.1     1  LIG1       -0.1907
     12 C          -1.0083    1.9570   -1.0990 C.1     1  LIG1        0.1032
     13 C          -2.3829   -0.7239   -0.0512 C.ar    1  LIG1        0.0869
     14 C          -3.6297   -0.0963   -0.0661 C.ar    1  LIG1        0.0699
     15 C          -4.6150   -1.1366   -0.1786 C.ar    1  LIG1        0.0997
     16 C          -3.9576   -2.3781   -0.2206 C.ar    1  LIG1        0.0846
     17 N          -2.6234   -2.1027   -0.1453 N.ar    1  LIG1       -0.3493
     18 H          -1.8975   -2.8010   -0.1563 H       1  LIG1        0.1661
     19 N          -3.9208    1.2434    0.0897 N.pl3   1  LIG1       -0.3553
     20 H          -3.2766    1.8994   -0.3348 H       1  LIG1        0.1424
     21 H          -4.8846    1.4828   -0.1027 H       1  LIG1        0.1424
     22 N          -7.1623   -0.7736   -0.3406 N.1     1  LIG1       -0.1907
     23 C          -6.0074   -0.9343   -0.2770 C.1     1  LIG1        0.1032
     24 C          -4.4603   -3.7211   -0.3601 C.ar    1  LIG1        0.0864
     25 C          -5.5892   -4.3584    0.1612 C.ar    1  LIG1        0.0693
     26 C          -5.4899   -5.7446   -0.2202 C.ar    1  LIG1        0.0903
     27 C          -4.3244   -5.9059   -0.9549 C.ar    1  LIG1        0.0215
     28 N          -3.7003   -4.7031   -1.0153 N.ar    1  LIG1       -0.3568
     29 H          -2.9777   -4.4852   -1.6844 H       1  LIG1        0.1655
     30 H          -3.9314   -6.7850   -1.4415 H       1  LIG1        0.0820
     31 N          -6.5668   -3.8462    0.9877 N.pl3   1  LIG1       -0.3553
     32 H          -6.8645   -2.8955    0.8059 H       1  LIG1        0.1424
     33 H          -7.3509   -4.4688    1.1335 H       1  LIG1        0.1424
     34 N          -7.2301   -7.5395    0.4228 N.1     1  LIG1       -0.1908
     35 C          -6.4280   -6.7497    0.1218 C.1     1  LIG1        0.1025
@<TRIPOS>BOND
     1    11    12    3
     2    29    28    1
     3    30    27    1
     4    12     3    1
     5    28    27   ar
     6    28    24   ar
     7    27    26   ar
     8    10     8    1
     9    24    16    1
    10    24    25   ar
    11    22    23    3
    12    20    19    1
    13     3     4   ar
    14     3     2   ar
    15    23    15    1
    16    16    15   ar
    17    16    17   ar
    18    26    35    1
    19    26    25   ar
    20    15    14   ar
    21    18    17    1
    22    17    13   ar
    23    21    19    1
    24    14    13   ar
    25    14    19    1
    26    13     4    1
    27     8     9    1
    28     8     2    1
    29    35    34    3
    30     4     5   ar
    31    25    31    1
    32     2     1   ar
    33    32    31    1
    34     5     1   ar
    35     5     6    1
    36     1     7    1
    37    31    33    1
