@<TRIPOS>MOLECULE
mol_data/opt/b3lyp/geoms/mol2/13hd13hd13hd13hd.out
 46 49 0 0 0
SMALL
GASTEIGER

@<TRIPOS>ATOM
      1 C           0.8737   -0.0716    1.5205 C.ar    1  LIG1        0.0243
      2 C           0.9003    0.9560    0.6059 C.ar    1  LIG1        0.0604
      3 C          -0.3362    0.8847   -0.1315 C.ar    1  LIG1        0.0990
      4 C          -1.0907   -0.1840    0.3775 C.ar    1  LIG1        0.0842
      5 N          -0.3252   -0.7635    1.3558 N.ar    1  LIG1       -0.3568
      6 H          -0.7078   -1.3762    2.0593 H       1  LIG1        0.1655
      7 H           1.5962   -0.3730    2.2623 H       1  LIG1        0.0826
      8 N           1.8776    1.9289    0.4216 N.pl3   1  LIG1       -0.3558
      9 H           2.8088    1.6487    0.6976 H       1  LIG1        0.1424
     10 H           1.8780    2.3444   -0.5012 H       1  LIG1        0.1424
     11 N          -1.0000    2.3815   -2.1229 N.1     1  LIG1       -0.1907
     12 C          -0.6910    1.7001   -1.2259 C.1     1  LIG1        0.1032
     13 C          -2.3922   -0.6884    0.0205 C.ar    1  LIG1        0.0869
     14 C          -3.5752   -0.0518   -0.3586 C.ar    1  LIG1        0.0699
     15 C          -4.5773   -1.0752   -0.4728 C.ar    1  LIG1        0.0997
     16 C          -3.9964   -2.3150   -0.1534 C.ar    1  LIG1        0.0846
     17 N          -2.6862   -2.0557    0.1320 N.ar    1  LIG1       -0.3493
     18 H          -2.0171   -2.7489    0.4260 H       1  LIG1        0.1661
     19 N          -3.8127    1.2981   -0.5157 N.pl3   1  LIG1       -0.3553
     20 H          -3.0621    1.8465   -0.9174 H       1  LIG1        0.1424
     21 H          -4.7065    1.5161   -0.9360 H       1  LIG1        0.1424
     22 N          -7.0203   -0.7080   -1.2097 N.1     1  LIG1       -0.1907
     23 C          -5.9100   -0.8716   -0.8871 C.1     1  LIG1        0.1032
     24 C          -4.5421   -3.6470   -0.1411 C.ar    1  LIG1        0.0869
     25 C          -5.7767   -4.1495    0.2760 C.ar    1  LIG1        0.0699
     26 C          -5.6957   -5.5805    0.1755 C.ar    1  LIG1        0.0997
     27 C          -4.4176   -5.9291   -0.2932 C.ar    1  LIG1        0.0846
     28 N          -3.7451   -4.7548   -0.4701 N.ar    1  LIG1       -0.3493
     29 H          -2.8118   -4.6901   -0.8438 H       1  LIG1        0.1661
     30 N          -6.8560   -3.4620    0.7887 N.pl3   1  LIG1       -0.3553
     31 H          -7.0498   -2.5538    0.3850 H       1  LIG1        0.1424
     32 H          -7.6945   -4.0190    0.8886 H       1  LIG1        0.1424
     33 N          -7.6054   -7.2275    0.7113 N.1     1  LIG1       -0.1907
     34 C          -6.7458   -6.4785    0.4594 C.1     1  LIG1        0.1032
     35 C          -3.8319   -7.2071   -0.6073 C.ar    1  LIG1        0.0864
     36 C          -3.9195   -8.4551    0.0153 C.ar    1  LIG1        0.0693
     37 C          -2.9986   -9.3226   -0.6748 C.ar    1  LIG1        0.0903
     38 C          -2.3925   -8.5901   -1.6844 C.ar    1  LIG1        0.0215
     39 N          -2.8710   -7.3220   -1.6253 N.ar    1  LIG1       -0.3568
     40 H          -2.7964   -6.6673   -2.3893 H       1  LIG1        0.1655
     41 H          -1.6830   -8.9041   -2.4341 H       1  LIG1        0.0820
     42 N          -4.6264   -8.8109    1.1438 N.pl3   1  LIG1       -0.3553
     43 H          -5.5447   -8.3989    1.2556 H       1  LIG1        0.1424
     44 H          -4.6292   -9.8049    1.3323 H       1  LIG1        0.1424
     45 N          -2.6093  -11.7947   -0.0417 N.1     1  LIG1       -0.1908
     46 C          -2.7634  -10.6808   -0.3468 C.1     1  LIG1        0.1025
@<TRIPOS>BOND
     1    41    38    1
     2    40    39    1
     3    11    12    3
     4    38    39   ar
     5    38    37   ar
     6    39    35   ar
     7    12     3    1
     8    22    23    3
     9    21    19    1
    10    20    19    1
    11    23    15    1
    12    29    28    1
    13    37    46    1
    14    37    36   ar
    15    35    27    1
    16    35    36   ar
    17    19    14    1
    18    10     8    1
    19    15    14   ar
    20    15    16   ar
    21    28    27   ar
    22    28    24   ar
    23    14    13   ar
    24    46    45    3
    25    27    26   ar
    26    16    24    1
    27    16    17   ar
    28    24    25   ar
    29     3     4   ar
    30     3     2   ar
    31    36    42    1
    32    13    17   ar
    33    13     4    1
    34    17    18    1
    35    26    25   ar
    36    26    34    1
    37    25    30    1
    38     4     5   ar
    39    31    30    1
    40     8     2    1
    41     8     9    1
    42    34    33    3
    43     2     1   ar
    44    30    32    1
    45    42    43    1
    46    42    44    1
    47     5     1   ar
    48     5     6    1
    49     1     7    1
