@<TRIPOS>MOLECULE
mol_data/opt/b3lyp/geoms/mol2/13hd13hd13hd-13hd.out
 46 49 0 0 0
SMALL
GASTEIGER

@<TRIPOS>ATOM
      1 C           1.1738   -0.1734    0.7782 C.ar    1  LIG1        0.0243
      2 C           0.9662    1.0142    0.1143 C.ar    1  LIG1        0.0604
      3 C          -0.4122    1.0185   -0.3047 C.ar    1  LIG1        0.0990
      4 C          -1.0097   -0.1742    0.1395 C.ar    1  LIG1        0.0842
      5 N          -0.0235   -0.8825    0.7690 N.ar    1  LIG1       -0.3568
      6 H          -0.2041   -1.6899    1.3442 H       1  LIG1        0.1655
      7 H           2.0580   -0.5717    1.2499 H       1  LIG1        0.0826
      8 N           1.8619    2.0608   -0.0911 N.pl3   1  LIG1       -0.3558
      9 H           2.8324    1.7792   -0.1269 H       1  LIG1        0.1424
     10 H           1.6264    2.6523   -0.8781 H       1  LIG1        0.1424
     11 N          -1.5348    2.8399   -1.7425 N.1     1  LIG1       -0.1907
     12 C          -1.0223    2.0127   -1.0959 C.1     1  LIG1        0.1032
     13 C          -2.3500   -0.6871    0.0101 C.ar    1  LIG1        0.0869
     14 C          -3.6020   -0.0582   -0.0038 C.ar    1  LIG1        0.0699
     15 C          -4.5854   -1.1032   -0.0379 C.ar    1  LIG1        0.0997
     16 C          -3.9103   -2.3369   -0.0391 C.ar    1  LIG1        0.0846
     17 N          -2.5811   -2.0628    0.0010 N.ar    1  LIG1       -0.3493
     18 H          -1.9052   -2.8071   -0.1550 H       1  LIG1        0.1661
     19 N          -3.8938    1.2854    0.1122 N.pl3   1  LIG1       -0.3553
     20 H          -3.2613    1.9304   -0.3455 H       1  LIG1        0.1424
     21 H          -4.8625    1.5157   -0.0655 H       1  LIG1        0.1424
     22 N          -7.1434   -0.7872   -0.1380 N.1     1  LIG1       -0.1907
     23 C          -5.9847   -0.9224   -0.0872 C.1     1  LIG1        0.1032
     24 C          -4.3882   -3.6912   -0.1267 C.ar    1  LIG1        0.0869
     25 C          -3.6623   -4.8630   -0.3066 C.ar    1  LIG1        0.0699
     26 C          -4.6054   -5.9398   -0.3560 C.ar    1  LIG1        0.0997
     27 C          -5.8859   -5.3834   -0.1969 C.ar    1  LIG1        0.0846
     28 N          -5.7245   -4.0342   -0.0704 N.ar    1  LIG1       -0.3493
     29 H          -6.5216   -3.4296    0.1326 H       1  LIG1        0.1661
     30 N          -2.2392   -4.9095   -0.4339 N.pl3   1  LIG1       -0.3553
     31 H          -1.8410   -5.5696    0.2318 H       1  LIG1        0.1424
     32 H          -1.9704   -5.2405   -1.3597 H       1  LIG1        0.1424
     33 N          -4.1488   -8.4601   -0.6600 N.1     1  LIG1       -0.1907
     34 C          -4.3300   -7.3147   -0.5250 C.1     1  LIG1        0.1032
     35 C          -7.1920   -5.9840   -0.1295 C.ar    1  LIG1        0.0864
     36 C          -8.4217   -5.3641    0.0641 C.ar    1  LIG1        0.0693
     37 C          -9.4081   -6.4024    0.1267 C.ar    1  LIG1        0.0903
     38 C          -8.7444   -7.6130   -0.0393 C.ar    1  LIG1        0.0215
     39 N          -7.4221   -7.3476   -0.2016 N.ar    1  LIG1       -0.3568
     40 H          -6.7016   -8.0435   -0.3403 H       1  LIG1        0.1655
     41 H          -9.1316   -8.6198   -0.0559 H       1  LIG1        0.0820
     42 N          -8.5804   -3.9610    0.1957 N.pl3   1  LIG1       -0.3553
     43 H          -8.7967   -3.5044   -0.6885 H       1  LIG1        0.1424
     44 H          -9.3217   -3.7209    0.8477 H       1  LIG1        0.1424
     45 N         -11.9353   -6.0157    0.4907 N.1     1  LIG1       -0.1908
     46 C         -10.7996   -6.2129    0.3243 C.1     1  LIG1        0.1025
@<TRIPOS>BOND
     1    11    12    3
     2    32    30    1
     3    12     3    1
     4    10     8    1
     5    43    42    1
     6    33    34    3
     7    34    26    1
     8    30    25    1
     9    30    31    1
    10    26    25   ar
    11    26    27   ar
    12    20    19    1
    13    40    39    1
    14    25    24   ar
    15     3     2   ar
    16     3     4   ar
    17    39    35   ar
    18    39    38   ar
    19    27    35    1
    20    27    28   ar
    21    18    17    1
    22    22    23    3
    23    35    36   ar
    24     9     8    1
    25    24    28   ar
    26    24    16    1
    27     8     2    1
    28    23    15    1
    29    28    29    1
    30    21    19    1
    31    41    38    1
    32    38    37   ar
    33    16    15   ar
    34    16    17   ar
    35    15    14   ar
    36    14    13   ar
    37    14    19    1
    38    17    13   ar
    39    13     4    1
    40    36    37   ar
    41    36    42    1
    42     2     1   ar
    43    37    46    1
    44     4     5   ar
    45    42    44    1
    46    46    45    3
    47     5     1   ar
    48     5     6    1
    49     1     7    1
