@<TRIPOS>MOLECULE
mol_data/opt/b3lyp/geoms/mol2/13hd13hd-13hd-13hd.out
 46 49 0 0 0
SMALL
GASTEIGER

@<TRIPOS>ATOM
      1 C           1.1788   -0.0419   -0.2338 C.ar    1  LIG1        0.0243
      2 C           0.6740    1.2266   -0.4461 C.ar    1  LIG1        0.0604
      3 C          -0.7584    1.1107   -0.3949 C.ar    1  LIG1        0.0990
      4 C          -1.0657   -0.2448   -0.1480 C.ar    1  LIG1        0.0842
      5 N           0.1132   -0.9067   -0.0542 N.ar    1  LIG1       -0.3568
      6 H           0.1330   -1.9056    0.1269 H       1  LIG1        0.1655
      7 H           2.1992   -0.3875   -0.1840 H       1  LIG1        0.0826
      8 N           1.3774    2.4199   -0.5977 N.pl3   1  LIG1       -0.3558
      9 H           2.3211    2.3026   -0.9421 H       1  LIG1        0.1424
     10 H           0.8848    3.1225   -1.1347 H       1  LIG1        0.1424
     11 N          -2.5775    2.9140   -0.6833 N.1     1  LIG1       -0.1907
     12 C          -1.7194    2.1300   -0.5534 C.1     1  LIG1        0.1032
     13 C          -2.3332   -0.9090   -0.0098 C.ar    1  LIG1        0.0869
     14 C          -2.6318   -2.2341    0.2553 C.ar    1  LIG1        0.0699
     15 C          -4.0654   -2.3481    0.2976 C.ar    1  LIG1        0.0997
     16 C          -4.6039   -1.0733    0.0402 C.ar    1  LIG1        0.0846
     17 N          -3.5338   -0.2331   -0.1286 N.ar    1  LIG1       -0.3493
     18 H          -3.6116    0.7197   -0.4558 H       1  LIG1        0.1661
     19 N          -1.6394   -3.2408    0.4598 N.pl3   1  LIG1       -0.3553
     20 H          -1.7162   -3.6386    1.3948 H       1  LIG1        0.1424
     21 H          -1.7745   -4.0138   -0.1898 H       1  LIG1        0.1424
     22 N          -5.4056   -4.4788    0.8570 N.1     1  LIG1       -0.1907
     23 C          -4.7938   -3.5158    0.6073 C.1     1  LIG1        0.1032
     24 C          -5.9329   -0.5385   -0.0458 C.ar    1  LIG1        0.0869
     25 C          -7.1691   -1.0690   -0.4386 C.ar    1  LIG1        0.0699
     26 C          -8.0783    0.0402   -0.5343 C.ar    1  LIG1        0.0997
     27 C          -7.3741    1.2117   -0.2013 C.ar    1  LIG1        0.0846
     28 N          -6.0969    0.8466    0.0710 N.ar    1  LIG1       -0.3493
     29 H          -5.4831    1.4972    0.5607 H       1  LIG1        0.1661
     30 N          -7.4735   -2.3597   -0.8033 N.pl3   1  LIG1       -0.3553
     31 H          -8.4595   -2.5547   -0.9085 H       1  LIG1        0.1424
     32 H          -6.9694   -3.1084   -0.3454 H       1  LIG1        0.1424
     33 N         -10.5711    0.0079   -1.1916 N.1     1  LIG1       -0.1907
     34 C          -9.4394   -0.0063   -0.9018 C.1     1  LIG1        0.1032
     35 C          -7.7784    2.5830   -0.0728 C.ar    1  LIG1        0.0864
     36 C          -7.0050    3.6770    0.3109 C.ar    1  LIG1        0.0693
     37 C          -7.8853    4.8056    0.3720 C.ar    1  LIG1        0.0903
     38 C          -9.1554    4.3624    0.0135 C.ar    1  LIG1        0.0215
     39 N          -9.0745    3.0363   -0.2601 N.ar    1  LIG1       -0.3568
     40 H          -9.8463    2.4504   -0.5499 H       1  LIG1        0.1655
     41 H         -10.0822    4.9085   -0.0666 H       1  LIG1        0.0820
     42 N          -5.6273    3.6140    0.6264 N.pl3   1  LIG1       -0.3553
     43 H          -5.0130    3.6315   -0.1885 H       1  LIG1        0.1424
     44 H          -5.3471    4.3809    1.2309 H       1  LIG1        0.1424
     45 N          -7.1586    7.1900    1.0453 N.1     1  LIG1       -0.1908
     46 C          -7.5110    6.1236    0.7365 C.1     1  LIG1        0.1025
@<TRIPOS>BOND
     1    33    34    3
     2    10     8    1
     3     9     8    1
     4    31    30    1
     5    34    26    1
     6    30    25    1
     7    30    32    1
     8    11    12    3
     9     8     2    1
    10    12     3    1
    11    40    39    1
    12    26    25   ar
    13    26    27   ar
    14    18    17    1
    15     2     3   ar
    16     2     1   ar
    17    25    24   ar
    18     3     4   ar
    19    39    35   ar
    20    39    38   ar
    21     1     7    1
    22     1     5   ar
    23    27    35    1
    24    27    28   ar
    25    21    19    1
    26    43    42    1
    27     4     5   ar
    28     4    13    1
    29    17    13   ar
    30    17    16   ar
    31    35    36   ar
    32    41    38    1
    33     5     6    1
    34    24    16    1
    35    24    28   ar
    36    13    14   ar
    37    38    37   ar
    38    16    15   ar
    39    28    29    1
    40    14    15   ar
    41    14    19    1
    42    15    23    1
    43    36    37   ar
    44    36    42    1
    45    37    46    1
    46    19    20    1
    47    23    22    3
    48    42    44    1
    49    46    45    3
