@<TRIPOS>MOLECULE
mol_data/opt/b3lyp/geoms/mol2/13hd13hd-4hd13hd.out
 48 51 0 0 0
SMALL
GASTEIGER

@<TRIPOS>ATOM
      1 C           1.3730   -0.4708    0.4408 C.ar    1  LIG1        0.0243
      2 C           1.0426    0.8701    0.5036 C.ar    1  LIG1        0.0604
      3 C          -0.3749    0.9533    0.2833 C.ar    1  LIG1        0.0990
      4 C          -0.8549   -0.3581    0.1010 C.ar    1  LIG1        0.0842
      5 N           0.2164   -1.1875    0.1971 N.ar    1  LIG1       -0.3568
      6 H           0.1113   -2.1915    0.0904 H       1  LIG1        0.1655
      7 H           2.3257   -0.9620    0.5596 H       1  LIG1        0.0826
      8 N           1.8738    1.9494    0.7942 N.pl3   1  LIG1       -0.3558
      9 H           2.8424    1.8101    0.5394 H       1  LIG1        0.1424
     10 H           1.5318    2.8360    0.4459 H       1  LIG1        0.1424
     11 N          -1.8266    3.0779    0.1135 N.1     1  LIG1       -0.1907
     12 C          -1.1544    2.1263    0.2025 C.1     1  LIG1        0.1032
     13 C          -2.1789   -0.8656   -0.1483 C.ar    1  LIG1        0.0869
     14 C          -2.5749   -2.1474   -0.5006 C.ar    1  LIG1        0.0699
     15 C          -4.0007   -2.1336   -0.6207 C.ar    1  LIG1        0.0983
     16 C          -4.4488   -0.8337   -0.3274 C.ar    1  LIG1        0.0682
     17 N          -3.3212   -0.0925   -0.0684 N.ar    1  LIG1       -0.3504
     18 H          -3.3499    0.8627    0.2692 H       1  LIG1        0.1660
     19 N          -1.6766   -3.2345   -0.7045 N.pl3   1  LIG1       -0.3553
     20 H          -2.1036   -4.1095   -0.4089 H       1  LIG1        0.1424
     21 H          -1.4517   -3.3422   -1.6930 H       1  LIG1        0.1424
     22 N          -5.3401   -4.2212   -1.3328 N.1     1  LIG1       -0.1907
     23 C          -4.7658   -3.2591   -1.0106 C.1     1  LIG1        0.1032
     24 C          -6.0925    1.0986   -0.4125 C.ar    1  LIG1        0.0345
     25 C          -7.4011    1.5613   -0.2368 C.ar    1  LIG1       -0.0300
     26 C          -5.8021   -0.2869   -0.2334 C.ar    1  LIG1        0.0215
     27 C          -8.4790    0.7243    0.0915 C.ar    1  LIG1        0.0192
     28 H          -7.5795    2.6273   -0.3264 H       1  LIG1        0.0643
     29 C          -6.8685   -1.1268    0.0986 C.ar    1  LIG1       -0.0328
     30 C          -8.1795   -0.6612    0.2564 C.ar    1  LIG1        0.0616
     31 H          -6.6834   -2.1819    0.2597 H       1  LIG1        0.0638
     32 N          -5.0803    2.0113   -0.6853 N.pl3   1  LIG1       -0.3574
     33 H          -4.3649    1.7243   -1.3403 H       1  LIG1        0.1423
     34 H          -5.3809    2.9630   -0.8446 H       1  LIG1        0.1423
     35 N         -10.0144   -2.3635    0.9356 N.1     1  LIG1       -0.1908
     36 C          -9.1813   -1.6140    0.6132 C.1     1  LIG1        0.0998
     37 C          -9.8081    1.3006    0.2395 C.ar    1  LIG1        0.0700
     38 C         -10.3204    2.5105   -0.2469 C.ar    1  LIG1        0.0678
     39 C         -11.6631    2.6308    0.2345 C.ar    1  LIG1        0.0902
     40 C         -11.9367    1.4940    0.9900 C.ar    1  LIG1        0.0215
     41 N         -10.8385    0.7137    0.9796 N.ar    1  LIG1       -0.3580
     42 H         -10.7859   -0.2031    1.4009 H       1  LIG1        0.1654
     43 H         -12.8391    1.2091    1.5081 H       1  LIG1        0.0820
     44 N          -9.6779    3.4653   -1.0344 N.pl3   1  LIG1       -0.3553
     45 H          -9.1286    3.0716   -1.7898 H       1  LIG1        0.1424
     46 H         -10.3173    4.1680   -1.3891 H       1  LIG1        0.1424
     47 N         -13.2037    4.6214   -0.3332 N.1     1  LIG1       -0.1908
     48 C         -12.5331    3.7101   -0.0534 C.1     1  LIG1        0.1025
@<TRIPOS>BOND
     1    45    44    1
     2    21    19    1
     3    46    44    1
     4    33    32    1
     5    22    23    3
     6    44    38    1
     7    23    15    1
     8    34    32    1
     9    19    14    1
    10    19    20    1
    11    32    24    1
    12    15    14   ar
    13    15    16   ar
    14    14    13   ar
    15    24    25   ar
    16    24    26   ar
    17    47    48    3
    18    16    26    1
    19    16    17   ar
    20    28    25    1
    21    38    39   ar
    22    38    37   ar
    23    25    27   ar
    24    26    29   ar
    25    13    17   ar
    26    13     4    1
    27    17    18    1
    28    48    39    1
    29     6     5    1
    30    27    37    1
    31    27    30   ar
    32    29    30   ar
    33    29    31    1
    34     4     5   ar
    35     4     3   ar
    36    11    12    3
    37     5     1   ar
    38    12     3    1
    39    39    40   ar
    40    37    41   ar
    41    30    36    1
    42     3     2   ar
    43     1     2   ar
    44     1     7    1
    45    10     8    1
    46     2     8    1
    47     9     8    1
    48    36    35    3
    49    41    40   ar
    50    41    42    1
    51    40    43    1
