@<TRIPOS>MOLECULE
mol_data/opt/b3lyp/geoms/mol2/13hd13hd13hd-13hd-.out
 46 49 0 0 0
SMALL
GASTEIGER

@<TRIPOS>ATOM
      1 C           1.2179   -0.1602    0.6435 C.ar    1  LIG1        0.0243
      2 C           0.9524    1.0684    0.0824 C.ar    1  LIG1        0.0604
      3 C          -0.4511    1.0799   -0.2424 C.ar    1  LIG1        0.0990
      4 C          -1.0032   -0.1512    0.1531 C.ar    1  LIG1        0.0842
      5 N           0.0311   -0.8862    0.6632 N.ar    1  LIG1       -0.3568
      6 H          -0.1002   -1.7355    1.1893 H       1  LIG1        0.1655
      7 H           2.1365   -0.5767    1.0250 H       1  LIG1        0.0826
      8 N           1.8196    2.1413   -0.1057 N.pl3   1  LIG1       -0.3558
      9 H           2.7901    1.8803   -0.2172 H       1  LIG1        0.1424
     10 H           1.5292    2.7807   -0.8347 H       1  LIG1        0.1424
     11 N          -1.6967    2.9789   -1.4619 N.1     1  LIG1       -0.1907
     12 C          -1.1271    2.1175   -0.9155 C.1     1  LIG1        0.1032
     13 C          -2.3427   -0.6765    0.0739 C.ar    1  LIG1        0.0869
     14 C          -3.6006   -0.0700    0.1884 C.ar    1  LIG1        0.0699
     15 C          -4.5690   -1.1281    0.1400 C.ar    1  LIG1        0.0997
     16 C          -3.8789   -2.3468    0.0013 C.ar    1  LIG1        0.0846
     17 N          -2.5553   -2.0537   -0.0239 N.ar    1  LIG1       -0.3493
     18 H          -1.8805   -2.7717   -0.2753 H       1  LIG1        0.1661
     19 N          -3.8997    1.2562    0.4246 N.pl3   1  LIG1       -0.3553
     20 H          -3.2996    1.9436   -0.0150 H       1  LIG1        0.1424
     21 H          -4.8781    1.4883    0.3180 H       1  LIG1        0.1424
     22 N          -7.1417   -1.0090    0.2405 N.1     1  LIG1       -0.1907
     23 C          -5.9736   -1.0162    0.2022 C.1     1  LIG1        0.1032
     24 C          -4.3611   -3.6910   -0.1527 C.ar    1  LIG1        0.0869
     25 C          -3.6625   -4.8541   -0.4260 C.ar    1  LIG1        0.0699
     26 C          -4.6223   -5.9175   -0.5145 C.ar    1  LIG1        0.0997
     27 C          -5.8958   -5.3711   -0.2701 C.ar    1  LIG1        0.0846
     28 N          -5.7037   -4.0274   -0.0667 N.ar    1  LIG1       -0.3493
     29 H          -6.4170   -3.3902    0.2613 H       1  LIG1        0.1661
     30 N          -2.2464   -4.9042   -0.6124 N.pl3   1  LIG1       -0.3553
     31 H          -1.8249   -5.5617    0.0419 H       1  LIG1        0.1424
     32 H          -2.0198   -5.2499   -1.5442 H       1  LIG1        0.1424
     33 N          -4.0770   -8.3556   -1.1527 N.1     1  LIG1       -0.1907
     34 C          -4.3269   -7.2515   -0.8674 C.1     1  LIG1        0.1032
     35 C          -7.2119   -5.9472   -0.2294 C.ar    1  LIG1        0.0864
     36 C          -7.6822   -7.2177    0.1272 C.ar    1  LIG1        0.0693
     37 C          -9.1193   -7.1458    0.0967 C.ar    1  LIG1        0.0903
     38 C          -9.4767   -5.8543   -0.2677 C.ar    1  LIG1        0.0215
     39 N          -8.3412   -5.1431   -0.4474 N.ar    1  LIG1       -0.3568
     40 H          -8.3123   -4.2208   -0.8553 H       1  LIG1        0.1655
     41 H         -10.4549   -5.4264   -0.4228 H       1  LIG1        0.0820
     42 N          -6.9740   -8.3183    0.5539 N.pl3   1  LIG1       -0.3553
     43 H          -7.5292   -9.1581    0.6514 H       1  LIG1        0.1424
     44 H          -6.0744   -8.4936    0.1252 H       1  LIG1        0.1424
     45 N         -10.6567   -9.1437    0.6492 N.1     1  LIG1       -0.1908
     46 C          -9.9882   -8.2228    0.3982 C.1     1  LIG1        0.1025
@<TRIPOS>BOND
     1    32    30    1
     2    11    12    3
     3    33    34    3
     4    12     3    1
     5    34    26    1
     6    40    39    1
     7    10     8    1
     8    30    25    1
     9    30    31    1
    10    26    25   ar
    11    26    27   ar
    12    39    38   ar
    13    39    35   ar
    14    25    24   ar
    15    41    38    1
    16    18    17    1
    17    27    35    1
    18    27    28   ar
    19    38    37   ar
    20     3     2   ar
    21     3     4   ar
    22    35    36   ar
    23     9     8    1
    24    24    28   ar
    25    24    16    1
    26     8     2    1
    27    28    29    1
    28    17    16   ar
    29    17    13   ar
    30    20    19    1
    31    16    15   ar
    32    13     4    1
    33    13    14   ar
    34     2     1   ar
    35    37    36   ar
    36    37    46    1
    37    44    42    1
    38    36    42    1
    39    15    14   ar
    40    15    23    1
    41     4     5   ar
    42    14    19    1
    43    23    22    3
    44    21    19    1
    45    46    45    3
    46    42    43    1
    47     1     5   ar
    48     1     7    1
    49     5     6    1
