@<TRIPOS>MOLECULE
mol_data/opt/b3lyp/geoms/mol2/13hd13hd.out
 24 25 0 0 0
SMALL
GASTEIGER

@<TRIPOS>ATOM
      1 C           1.1850   -0.3195    0.3931 C.ar    1  LIG1        0.0243
      2 C           0.8721    0.9590   -0.0076 C.ar    1  LIG1        0.0604
      3 C          -0.5409    0.9694   -0.2923 C.ar    1  LIG1        0.0990
      4 C          -1.0495   -0.3135   -0.0347 C.ar    1  LIG1        0.0841
      5 N           0.0173   -1.0787    0.3522 N.ar    1  LIG1       -0.3568
      6 H          -0.0853   -1.9699    0.8119 H       1  LIG1        0.1655
      7 H           2.1252   -0.7533    0.6944 H       1  LIG1        0.0826
      8 N           1.7053    2.0715   -0.0890 N.pl3   1  LIG1       -0.3558
      9 H           2.6783    1.8549   -0.2579 H       1  LIG1        0.1424
     10 H           1.3753    2.7856   -0.7260 H       1  LIG1        0.1424
     11 N          -1.8753    2.9685   -1.2247 N.1     1  LIG1       -0.1907
     12 C          -1.2667    2.0620   -0.8096 C.1     1  LIG1        0.1032
     13 C          -2.3818   -0.8553   -0.1372 C.ar    1  LIG1        0.0864
     14 C          -3.6422   -0.3115    0.1206 C.ar    1  LIG1        0.0693
     15 C          -4.5930   -1.3803   -0.0516 C.ar    1  LIG1        0.0903
     16 C          -3.8932   -2.5257   -0.4057 C.ar    1  LIG1        0.0215
     17 N          -2.5751   -2.2113   -0.4368 N.ar    1  LIG1       -0.3568
     18 H          -1.8661   -2.7894   -0.8606 H       1  LIG1        0.1655
     19 H          -4.2586   -3.5113   -0.6485 H       1  LIG1        0.0820
     20 N          -3.9619    0.9535    0.5719 N.pl3   1  LIG1       -0.3553
     21 H          -3.4194    1.7199    0.1924 H       1  LIG1        0.1424
     22 H          -4.9539    1.1524    0.5636 H       1  LIG1        0.1424
     23 N          -7.1386   -1.1084    0.2791 N.1     1  LIG1       -0.1908
     24 C          -5.9930   -1.2589    0.1271 C.1     1  LIG1        0.1025
@<TRIPOS>BOND
     1    11    12    3
     2    18    17    1
     3    12     3    1
     4    10     8    1
     5    19    16    1
     6    17    16   ar
     7    17    13   ar
     8    16    15   ar
     9     3     4   ar
    10     3     2   ar
    11     9     8    1
    12    13     4    1
    13    13    14   ar
    14     8     2    1
    15    15    14   ar
    16    15    24    1
    17     4     5   ar
    18     2     1   ar
    19    14    20    1
    20    24    23    3
    21    21    20    1
    22     5     1   ar
    23     5     6    1
    24     1     7    1
    25    22    20    1
