@<TRIPOS>MOLECULE
mol_data/opt/b3lyp/geoms/mol2/13hd13hd-.out
 24 25 0 0 0
SMALL
GASTEIGER

@<TRIPOS>ATOM
      1 C           1.1986   -0.3069   -0.0944 C.ar    1  LIG1        0.0243
      2 C           0.8435    1.0276   -0.0330 C.ar    1  LIG1        0.0604
      3 C          -0.5921    1.0675   -0.0023 C.ar    1  LIG1        0.0990
      4 C          -1.0551   -0.2614   -0.0439 C.ar    1  LIG1        0.0841
      5 N           0.0400   -1.0605   -0.0962 N.ar    1  LIG1       -0.3568
      6 H          -0.0623   -2.0708   -0.1444 H       1  LIG1        0.1655
      7 H           2.1723   -0.7700   -0.1221 H       1  LIG1        0.0826
      8 N           1.6798    2.1388    0.0663 N.pl3   1  LIG1       -0.3558
      9 H           2.5974    2.0023   -0.3367 H       1  LIG1        0.1424
     10 H           1.2623    2.9952   -0.2759 H       1  LIG1        0.1424
     11 N          -2.1486    3.1211    0.0813 N.1     1  LIG1       -0.1907
     12 C          -1.4178    2.2098    0.0485 C.1     1  LIG1        0.1032
     13 C          -2.3880   -0.8119   -0.0485 C.ar    1  LIG1        0.0864
     14 C          -2.7875   -2.1403   -0.0939 C.ar    1  LIG1        0.0693
     15 C          -4.2230   -2.1506   -0.0839 C.ar    1  LIG1        0.0903
     16 C          -4.6432   -0.8280   -0.0320 C.ar    1  LIG1        0.0215
     17 N          -3.5344   -0.0396   -0.0098 N.ar    1  LIG1       -0.3568
     18 H          -3.5378    0.9715    0.0278 H       1  LIG1        0.1655
     19 H          -5.6392   -0.4142   -0.0102 H       1  LIG1        0.0820
     20 N          -1.8791   -3.2435   -0.1389 N.pl3   1  LIG1       -0.3553
     21 H          -1.9910   -3.8328    0.6849 H       1  LIG1        0.1424
     22 H          -2.0787   -3.8384   -0.9413 H       1  LIG1        0.1424
     23 N          -5.6714   -4.2871   -0.1559 N.1     1  LIG1       -0.1908
     24 C          -5.0406   -3.3084   -0.1223 C.1     1  LIG1        0.1025
@<TRIPOS>BOND
     1    22    20    1
     2     9     8    1
     3    10     8    1
     4    23    24    3
     5     6     5    1
     6    20    14    1
     7    20    21    1
     8    24    15    1
     9     7     1    1
    10     5     1   ar
    11     5     4   ar
    12     1     2   ar
    13    14    15   ar
    14    14    13   ar
    15    15    16   ar
    16    13     4    1
    17    13    17   ar
    18     4     3   ar
    19     2     3   ar
    20     2     8    1
    21    16    19    1
    22    16    17   ar
    23    17    18    1
    24     3    12    1
    25    12    11    3
