@<TRIPOS>MOLECULE
mol_data/opt/b3lyp/geoms/mol2/13hd6el-4df12ee.out
 51 54 0 0 0
SMALL
GASTEIGER

@<TRIPOS>ATOM
      1 C           1.4068   -0.0739   -0.6703 C.ar    1  LIG1        0.0243
      2 C           1.0334    1.1452   -0.1331 C.ar    1  LIG1        0.0603
      3 C          -0.3654    1.0487    0.1589 C.ar    1  LIG1        0.0976
      4 C          -0.8060   -0.2452   -0.2109 C.ar    1  LIG1        0.0687
      5 N           0.2943   -0.8808   -0.7043 N.ar    1  LIG1       -0.3579
      6 H           0.2789   -1.8415   -1.0201 H       1  LIG1        0.1654
      7 H           2.3672   -0.4245   -1.0140 H       1  LIG1        0.0826
      8 N           1.8421    2.2387    0.1567 N.pl3   1  LIG1       -0.3558
      9 H           2.6408    2.3462   -0.4537 H       1  LIG1        0.1424
     10 H           1.3357    3.1095    0.2574 H       1  LIG1        0.1424
     11 N          -1.6698    3.0192    1.1934 N.1     1  LIG1       -0.1907
     12 C          -1.1035    2.1088    0.7316 C.1     1  LIG1        0.1031
     13 C          -2.3949   -2.2436   -0.3080 C.ar    1  LIG1        0.1232
     14 C          -2.1313   -0.8552   -0.1372 C.ar    1  LIG1        0.0369
     15 C          -3.2473   -0.0438    0.1323 C.ar    1  LIG1       -0.0060
     16 C          -4.5243   -0.5861    0.2242 C.ar    1  LIG1        0.1467
     17 C          -4.6923   -1.9716   -0.0347 C.ar    1  LIG1        0.1152
     18 N          -3.6389   -2.7529   -0.2583 N.ar    1  LIG1       -0.2340
     19 H          -3.1102    1.0165    0.2846 H       1  LIG1        0.0662
     20 C          -1.3767   -3.2277   -0.5460 C.1     1  LIG1       -0.0491
     21 C          -0.5438   -4.0828   -0.7557 C.1     1  LIG1       -0.1124
     22 H           0.1674   -4.8595   -0.9207 H       1  LIG1        0.1232
     23 O          -5.6228    0.1114    0.5751 O.3     1  LIG1       -0.4929
     24 C          -5.5406    1.5368    0.6559 C.3     1  LIG1        0.0789
     25 H          -6.5451    1.8719    0.9117 H       1  LIG1        0.0660
     26 H          -4.8364    1.8535    1.4328 H       1  LIG1        0.0660
     27 H          -5.2482    1.9641   -0.3086 H       1  LIG1        0.0660
     28 C          -7.1627   -2.1643   -0.6941 C.ar    1  LIG1        0.0619
     29 C          -8.3596   -2.8895   -0.6424 C.ar    1  LIG1       -0.0295
     30 C          -6.0180   -2.6462   -0.0144 C.ar    1  LIG1        0.0248
     31 C          -8.4816   -4.0877    0.0719 C.ar    1  LIG1        0.0611
     32 H          -9.2176   -2.5132   -1.1851 H       1  LIG1        0.0639
     33 C          -6.1292   -3.8559    0.6709 C.ar    1  LIG1       -0.0089
     34 C          -7.3261   -4.5711    0.7337 C.ar    1  LIG1        0.1282
     35 H          -5.2472   -4.2449    1.1720 H       1  LIG1        0.0661
     36 N          -7.1238   -0.0688   -2.2261 N.1     1  LIG1       -0.1908
     37 C          -7.1255   -0.9969   -1.5238 C.1     1  LIG1        0.0998
     38 O          -7.4174   -5.7236    1.4438 O.3     1  LIG1       -0.5060
     39 H          -6.5591   -5.9131    1.8468 H       1  LIG1        0.2922
     40 C          -9.7685   -4.7741    0.1106 C.ar    1  LIG1        0.1549
     41 C         -11.0714   -4.3171    0.0113 C.ar    1  LIG1        0.0858
     42 C         -11.9201   -5.4948    0.0889 C.ar    1  LIG1        0.0783
     43 C         -11.0653   -6.5527    0.2285 C.ar    1  LIG1        0.1092
     44 O          -9.7782   -6.1348    0.2425 O.2     1  LIG1       -0.4603
     45 H         -11.2284   -7.6140    0.3264 H       1  LIG1        0.1042
     46 C         -11.5260   -2.9828   -0.1147 C.1     1  LIG1       -0.0646
     47 C         -11.9383   -1.8503   -0.2257 C.1     1  LIG1       -0.1138
     48 H         -12.2988   -0.8521   -0.3198 H       1  LIG1        0.1232
     49 C         -13.3355   -5.5354    0.0374 C.1     1  LIG1       -0.0653
     50 C         -14.5436   -5.5661   -0.0072 C.1     1  LIG1       -0.1138
     51 H         -15.6078   -5.5905   -0.0472 H       1  LIG1        0.1232
@<TRIPOS>BOND
     1    36    37    3
     2    37    28    1
     3    32    29    1
     4     6     5    1
     5     7     1    1
     6    22    21    1
     7    21    20    3
     8     5     1   ar
     9     5     4   ar
    10    28    29   ar
    11    28    30   ar
    12     1     2   ar
    13    29    31   ar
    14    20    13    1
    15     9     8    1
    16    48    47    1
    17    27    24    1
    18    13    18   ar
    19    13    14   ar
    20    18    17   ar
    21    47    46    3
    22     4    14    1
    23     4     3   ar
    24    14    15   ar
    25     2     8    1
    26     2     3   ar
    27    46    41    1
    28    51    50    1
    29    17    30    1
    30    17    16   ar
    31    30    33   ar
    32    50    49    3
    33    41    42   ar
    34    41    40   ar
    35    49    42    1
    36    31    40    1
    37    31    34   ar
    38    42    43   ar
    39    40    44   ar
    40    15    16   ar
    41    15    19    1
    42     8    10    1
    43     3    12    1
    44    16    23    1
    45    43    44   ar
    46    43    45    1
    47    23    24    1
    48    24    25    1
    49    24    26    1
    50    33    34   ar
    51    33    35    1
    52    12    11    3
    53    34    38    1
    54    38    39    1
