@<TRIPOS>MOLECULE
mol_data/opt/b3lyp/geoms/mol2/13hd13hd-13hd13hd-.out
 46 49 0 0 0
SMALL
GASTEIGER

@<TRIPOS>ATOM
      1 C           1.3376   -0.3093   -0.0020 C.ar    1  LIG1        0.0243
      2 C           0.9729    1.0233   -0.0459 C.ar    1  LIG1        0.0604
      3 C          -0.4631    1.0561   -0.0781 C.ar    1  LIG1        0.0990
      4 C          -0.9182   -0.2767   -0.0469 C.ar    1  LIG1        0.0842
      5 N           0.1844   -1.0689   -0.0017 N.ar    1  LIG1       -0.3568
      6 H           0.0902   -2.0810    0.0105 H       1  LIG1        0.1655
      7 H           2.3138   -0.7658    0.0422 H       1  LIG1        0.0826
      8 N           1.7990    2.1450    0.0088 N.pl3   1  LIG1       -0.3558
      9 H           2.7208    2.0004   -0.3816 H       1  LIG1        0.1424
     10 H           1.3740    2.9810   -0.3725 H       1  LIG1        0.1424
     11 N          -1.9324    3.1702   -0.2332 N.1     1  LIG1       -0.1907
     12 C          -1.2652    2.2146   -0.1567 C.1     1  LIG1        0.1032
     13 C          -2.2427   -0.8442   -0.0649 C.ar    1  LIG1        0.0869
     14 C          -2.6193   -2.1826   -0.0865 C.ar    1  LIG1        0.0699
     15 C          -4.0514   -2.2201   -0.1032 C.ar    1  LIG1        0.0997
     16 C          -4.5035   -0.8901   -0.0885 C.ar    1  LIG1        0.0846
     17 N          -3.3959   -0.0902   -0.0695 N.ar    1  LIG1       -0.3493
     18 H          -3.4951    0.9256   -0.0149 H       1  LIG1        0.1661
     19 N          -1.6954   -3.2732   -0.0912 N.pl3   1  LIG1       -0.3553
     20 H          -1.8778   -3.9018    0.6893 H       1  LIG1        0.1424
     21 H          -1.7991   -3.8313   -0.9374 H       1  LIG1        0.1424
     22 N          -5.5178   -4.3431   -0.1365 N.1     1  LIG1       -0.1907
     23 C          -4.8545   -3.3830   -0.1223 C.1     1  LIG1        0.1032
     24 C          -5.8243   -0.3159   -0.0767 C.ar    1  LIG1        0.0869
     25 C          -6.1778    1.0294   -0.0228 C.ar    1  LIG1        0.0699
     26 C          -7.6081    1.0846    0.0017 C.ar    1  LIG1        0.0997
     27 C          -8.0792   -0.2385   -0.0428 C.ar    1  LIG1        0.0846
     28 N          -6.9887   -1.0557   -0.0930 N.ar    1  LIG1       -0.3493
     29 H          -7.1089   -2.0697   -0.1474 H       1  LIG1        0.1661
     30 N          -5.2259    2.0859    0.0120 N.pl3   1  LIG1       -0.3553
     31 H          -5.2053    2.6226   -0.8524 H       1  LIG1        0.1424
     32 H          -5.4027    2.7409    0.7691 H       1  LIG1        0.1424
     33 N          -9.1585    3.1435    0.1041 N.1     1  LIG1       -0.1907
     34 C          -8.4301    2.2326    0.0580 C.1     1  LIG1        0.1032
     35 C          -9.4136   -0.7827   -0.0501 C.ar    1  LIG1        0.0864
     36 C          -9.8055   -2.1142   -0.1052 C.ar    1  LIG1        0.0693
     37 C         -11.2398   -2.1296   -0.1040 C.ar    1  LIG1        0.0903
     38 C         -11.6652   -0.8078   -0.0464 C.ar    1  LIG1        0.0215
     39 N         -10.5622   -0.0133   -0.0124 N.ar    1  LIG1       -0.3568
     40 H         -10.5729    0.9973    0.0310 H       1  LIG1        0.1655
     41 H         -12.6635   -0.3994   -0.0271 H       1  LIG1        0.0820
     42 N          -8.8798   -3.1958   -0.1555 N.pl3   1  LIG1       -0.3553
     43 H          -8.9286   -3.7770    0.6788 H       1  LIG1        0.1424
     44 H          -9.0553   -3.8073   -0.9494 H       1  LIG1        0.1424
     45 N         -12.7008   -4.2573   -0.1962 N.1     1  LIG1       -0.1908
     46 C         -12.0600   -3.2859   -0.1538 C.1     1  LIG1        0.1025
@<TRIPOS>BOND
     1    44    42    1
     2    21    19    1
     3    31    30    1
     4     9     8    1
     5    10     8    1
     6    11    12    3
     7    45    46    3
     8    12     3    1
     9    42    36    1
    10    42    43    1
    11    46    37    1
    12    29    28    1
    13    22    23    3
    14    23    15    1
    15    36    37   ar
    16    36    35   ar
    17    37    38   ar
    18    15    16   ar
    19    15    14   ar
    20    28    24   ar
    21    28    27   ar
    22    19    14    1
    23    19    20    1
    24    16    24    1
    25    16    17   ar
    26    14    13   ar
    27     3     4   ar
    28     3     2   ar
    29    24    25   ar
    30    17    13   ar
    31    17    18    1
    32    13     4    1
    33    35    27    1
    34    35    39   ar
    35     4     5   ar
    36    38    41    1
    37    38    39   ar
    38     2     1   ar
    39     2     8    1
    40    27    26   ar
    41    25    26   ar
    42    25    30    1
    43    39    40    1
    44     1     5   ar
    45     1     7    1
    46     5     6    1
    47    26    34    1
    48    30    32    1
    49    34    33    3
