@<TRIPOS>MOLECULE
mol_data/opt/b3lyp/geoms/mol2/13hd12ff13dh-4if.out
 47 50 0 0 0
SMALL
GASTEIGER

@<TRIPOS>ATOM
      1 C           1.0035   -0.2603    1.2149 C.ar    1  LIG1        0.0244
      2 C           0.7777    1.0161    0.7402 C.ar    1  LIG1        0.0604
      3 C          -0.5632    1.0407    0.2210 C.ar    1  LIG1        0.1007
      4 C          -1.1170   -0.2382    0.4127 C.ar    1  LIG1        0.1053
      5 N          -0.1471   -0.9991    1.0001 N.ar    1  LIG1       -0.3555
      6 H          -0.2967   -1.9484    1.3000 H       1  LIG1        0.1655
      7 H           1.8705   -0.6927    1.6884 H       1  LIG1        0.0826
      8 N           1.6295    2.1167    0.7864 N.pl3   1  LIG1       -0.3558
      9 H           2.6114    1.8917    0.6992 H       1  LIG1        0.1424
     10 H           1.3649    2.8553    0.1458 H       1  LIG1        0.1424
     11 N          -1.4511    3.1374   -0.9858 N.1     1  LIG1       -0.1907
     12 C          -1.1106    2.1653   -0.4388 C.1     1  LIG1        0.1032
     13 C          -2.4005   -0.7941    0.1017 C.ar    1  LIG1        0.1981
     14 C          -3.6476   -0.2718   -0.1445 C.ar    1  LIG1        0.2074
     15 C          -4.5439   -1.3666   -0.3257 C.ar    1  LIG1        0.2074
     16 C          -3.8077   -2.5243   -0.1609 C.ar    1  LIG1        0.1981
     17 O          -2.4936   -2.1748    0.1029 O.2     1  LIG1       -0.4442
     18 O          -3.9917    1.0305   -0.1921 O.3     1  LIG1       -0.5008
     19 H          -4.9382    1.0802   -0.3957 H       1  LIG1        0.2924
     20 O          -5.8343   -1.0993   -0.6241 O.3     1  LIG1       -0.5008
     21 H          -6.4164   -1.8753   -0.5444 H       1  LIG1        0.2924
     22 C          -4.0609   -3.9304   -0.2582 C.ar    1  LIG1        0.1058
     23 C          -5.2577   -4.6724   -0.3320 C.ar    1  LIG1        0.1013
     24 C          -4.9112   -6.0641   -0.3960 C.ar    1  LIG1        0.0685
     25 C          -3.5270   -6.1491   -0.3396 C.ar    1  LIG1        0.0696
     26 N          -3.0491   -4.8388   -0.2824 N.ar    1  LIG1       -0.3491
     27 H          -2.0763   -4.5921   -0.1899 H       1  LIG1        0.1661
     28 N          -7.6120   -3.6279   -0.3524 N.1     1  LIG1       -0.1907
     29 C          -6.5532   -4.1248   -0.3407 C.1     1  LIG1        0.1033
     30 N          -5.8213   -7.1150   -0.4825 N.pl3   1  LIG1       -0.3553
     31 H          -6.7244   -6.8443   -0.8517 H       1  LIG1        0.1424
     32 H          -5.4583   -7.9243   -0.9711 H       1  LIG1        0.1424
     33 C          -2.7027   -8.4074    0.4257 C.ar    1  LIG1       -0.0411
     34 C          -1.7905   -9.4562    0.2382 C.ar    1  LIG1       -0.0548
     35 C          -2.6111   -7.2949   -0.4434 C.ar    1  LIG1        0.0065
     36 C          -0.8022   -9.4251   -0.7393 C.ar    1  LIG1       -0.0199
     37 H          -1.8461  -10.3183    0.8975 H       1  LIG1        0.0622
     38 C          -1.6048   -7.2575   -1.4285 C.ar    1  LIG1       -0.0108
     39 C          -0.7021   -8.3098   -1.5761 C.ar    1  LIG1        0.1175
     40 H          -1.5579   -6.4081   -2.1075 H       1  LIG1        0.0661
     41 H          -0.1023  -10.2444   -0.8634 H       1  LIG1        0.0654
     42 C          -3.6894   -8.4578    1.5688 C.3     1  LIG1       -0.0391
     43 H          -3.4964   -9.3272    2.2030 H       1  LIG1        0.0278
     44 H          -4.7301   -8.5070    1.2316 H       1  LIG1        0.0278
     45 H          -3.6132   -7.5608    2.1932 H       1  LIG1        0.0278
     46 O           0.2831   -8.3146   -2.5237 O.3     1  LIG1       -0.5067
     47 H           0.2280   -7.5030   -3.0449 H       1  LIG1        0.2921
@<TRIPOS>BOND
     1    47    46    1
     2    46    39    1
     3    40    38    1
     4    39    38   ar
     5    39    36   ar
     6    38    35   ar
     7    11    12    3
     8    32    30    1
     9    41    36    1
    10    31    30    1
    11    36    34   ar
    12    20    21    1
    13    20    15    1
    14    30    24    1
    15    35    25    1
    16    35    33   ar
    17    12     3    1
    18    24    25   ar
    19    24    23   ar
    20    19    18    1
    21    28    29    3
    22    29    23    1
    23    25    26   ar
    24    23    22   ar
    25    15    16   ar
    26    15    14   ar
    27    26    22   ar
    28    26    27    1
    29    22    16    1
    30    18    14    1
    31    16    17   ar
    32    14    13   ar
    33    13    17   ar
    34    13     4    1
    35    10     8    1
    36     3     4   ar
    37     3     2   ar
    38    34    33   ar
    39    34    37    1
    40     4     5   ar
    41    33    42    1
    42     9     8    1
    43     2     8    1
    44     2     1   ar
    45     5     1   ar
    46     5     6    1
    47     1     7    1
    48    44    42    1
    49    42    45    1
    50    42    43    1
