@<TRIPOS>MOLECULE
mol_data/opt/b3lyp/geoms/mol2/13hd13hd13hd13hd-.out
 46 49 0 0 0
SMALL
GASTEIGER

@<TRIPOS>ATOM
      1 C           0.8870   -0.0072    1.3985 C.ar    1  LIG1        0.0243
      2 C           0.8733    0.9928    0.4537 C.ar    1  LIG1        0.0604
      3 C          -0.3850    0.8878   -0.2416 C.ar    1  LIG1        0.0990
      4 C          -1.1112   -0.1734    0.3221 C.ar    1  LIG1        0.0842
      5 N          -0.3087   -0.7159    1.2917 N.ar    1  LIG1       -0.3568
      6 H          -0.6621   -1.3154    2.0212 H       1  LIG1        0.1655
      7 H           1.6362   -0.2796    2.1248 H       1  LIG1        0.0826
      8 N           1.8342    1.9695    0.2097 N.pl3   1  LIG1       -0.3558
      9 H           2.7763    1.7045    0.4633 H       1  LIG1        0.1424
     10 H           1.8022    2.3542   -0.7260 H       1  LIG1        0.1424
     11 N          -1.1237    2.3192   -2.2545 N.1     1  LIG1       -0.1907
     12 C          -0.7814    1.6672   -1.3477 C.1     1  LIG1        0.1032
     13 C          -2.4164   -0.7040    0.0236 C.ar    1  LIG1        0.0869
     14 C          -3.6164   -0.0975   -0.3512 C.ar    1  LIG1        0.0699
     15 C          -4.6101   -1.1350   -0.3889 C.ar    1  LIG1        0.0997
     16 C          -4.0052   -2.3531   -0.0281 C.ar    1  LIG1        0.0846
     17 N          -2.6937   -2.0650    0.2153 N.ar    1  LIG1       -0.3493
     18 H          -1.9942   -2.7517    0.4481 H       1  LIG1        0.1661
     19 N          -3.8759    1.2415   -0.5594 N.pl3   1  LIG1       -0.3553
     20 H          -3.1439    1.7808   -1.0055 H       1  LIG1        0.1424
     21 H          -4.7834    1.4295   -0.9645 H       1  LIG1        0.1424
     22 N          -7.0673   -0.8120   -1.0976 N.1     1  LIG1       -0.1907
     23 C          -5.9515   -0.9574   -0.7842 C.1     1  LIG1        0.1032
     24 C          -4.5215   -3.6941    0.0575 C.ar    1  LIG1        0.0869
     25 C          -5.7673   -4.1990    0.4579 C.ar    1  LIG1        0.0699
     26 C          -5.6461   -5.6287    0.4597 C.ar    1  LIG1        0.0997
     27 C          -4.3383   -5.9571    0.0630 C.ar    1  LIG1        0.0846
     28 N          -3.6836   -4.7907   -0.1581 N.ar    1  LIG1       -0.3493
     29 H          -2.7618   -4.8059   -0.5898 H       1  LIG1        0.1661
     30 N          -6.8775   -3.5097    0.8960 N.pl3   1  LIG1       -0.3553
     31 H          -7.0735   -2.6230    0.4478 H       1  LIG1        0.1424
     32 H          -7.7092   -4.0763    0.9949 H       1  LIG1        0.1424
     33 N          -7.4314   -7.3841    1.0757 N.1     1  LIG1       -0.1907
     34 C          -6.6438   -6.5656    0.8035 C.1     1  LIG1        0.1032
     35 C          -3.6950   -7.2257   -0.1610 C.ar    1  LIG1        0.0864
     36 C          -2.4171   -7.4839   -0.6397 C.ar    1  LIG1        0.0693
     37 C          -2.2605   -8.9087   -0.6785 C.ar    1  LIG1        0.0903
     38 C          -3.4495   -9.4652   -0.2239 C.ar    1  LIG1        0.0215
     39 N          -4.2977   -8.4470    0.0802 N.ar    1  LIG1       -0.3568
     40 H          -5.2416   -8.5583    0.4276 H       1  LIG1        0.1655
     41 H          -3.7319  -10.4994   -0.1032 H       1  LIG1        0.0820
     42 N          -1.4875   -6.4651   -1.0197 N.pl3   1  LIG1       -0.3553
     43 H          -0.6089   -6.5803   -0.5166 H       1  LIG1        0.1424
     44 H          -1.2559   -6.5481   -2.0090 H       1  LIG1        0.1424
     45 N          -0.1167  -10.1187   -1.4582 N.1     1  LIG1       -0.1908
     46 C          -1.0962   -9.5986   -1.1028 C.1     1  LIG1        0.1025
@<TRIPOS>BOND
     1    11    12    3
     2    44    42    1
     3    45    46    3
     4    12     3    1
     5    46    37    1
     6    22    23    3
     7    42    36    1
     8    42    43    1
     9    20    19    1
    10    21    19    1
    11    23    15    1
    12    10     8    1
    13    37    36   ar
    14    37    38   ar
    15    36    35   ar
    16    29    28    1
    17    19    14    1
    18    15    14   ar
    19    15    16   ar
    20    14    13   ar
    21     3     4   ar
    22     3     2   ar
    23    38    41    1
    24    38    39   ar
    25    35    27    1
    26    35    39   ar
    27    28    24   ar
    28    28    27   ar
    29    16    24    1
    30    16    17   ar
    31    13    17   ar
    32    13     4    1
    33    24    25   ar
    34    27    26   ar
    35    39    40    1
    36     8     2    1
    37     8     9    1
    38    17    18    1
    39     4     5   ar
    40    31    30    1
    41     2     1   ar
    42    25    26   ar
    43    25    30    1
    44    26    34    1
    45    34    33    3
    46    30    32    1
    47     5     1   ar
    48     5     6    1
    49     1     7    1
