@<TRIPOS>MOLECULE
mol_data/opt/b3lyp/geoms/mol2/13hd13hd-13hd.out
 35 37 0 0 0
SMALL
GASTEIGER

@<TRIPOS>ATOM
      1 C           1.2670   -0.3208   -0.0692 C.ar    1  LIG1        0.0243
      2 C           0.8949    1.0107   -0.0618 C.ar    1  LIG1        0.0604
      3 C          -0.5414    1.0362   -0.0549 C.ar    1  LIG1        0.0990
      4 C          -0.9893   -0.2991   -0.0545 C.ar    1  LIG1        0.0842
      5 N           0.1181   -1.0863   -0.0629 N.ar    1  LIG1       -0.3568
      6 H           0.0296   -2.0989   -0.0709 H       1  LIG1        0.1655
      7 H           2.2462   -0.7729   -0.0642 H       1  LIG1        0.0826
      8 N           1.7166    2.1345    0.0079 N.pl3   1  LIG1       -0.3558
      9 H           2.6276    2.0094   -0.4132 H       1  LIG1        0.1424
     10 H           1.2764    2.9810   -0.3308 H       1  LIG1        0.1424
     11 N          -2.0182    3.1508   -0.0795 N.1     1  LIG1       -0.1907
     12 C          -1.3490    2.1938   -0.0633 C.1     1  LIG1        0.1032
     13 C          -2.3111   -0.8739   -0.0552 C.ar    1  LIG1        0.0869
     14 C          -2.6788   -2.2151   -0.0543 C.ar    1  LIG1        0.0699
     15 C          -4.1109   -2.2594   -0.0584 C.ar    1  LIG1        0.0997
     16 C          -4.5701   -0.9328   -0.0613 C.ar    1  LIG1        0.0846
     17 N          -3.4699   -0.1258   -0.0580 N.ar    1  LIG1       -0.3493
     18 H          -3.5769    0.8912   -0.0616 H       1  LIG1        0.1661
     19 N          -1.7484   -3.3001   -0.0487 N.pl3   1  LIG1       -0.3553
     20 H          -1.8612   -3.8692    0.7887 H       1  LIG1        0.1424
     21 H          -1.9097   -3.9190   -0.8413 H       1  LIG1        0.1424
     22 N          -5.6586   -4.3229   -0.0627 N.1     1  LIG1       -0.1907
     23 C          -4.9362   -3.4056   -0.0603 C.1     1  LIG1        0.1032
     24 C          -5.8996   -0.3764   -0.0680 C.ar    1  LIG1        0.0864
     25 C          -6.2793    0.9596   -0.0700 C.ar    1  LIG1        0.0693
     26 C          -7.7140    0.9874   -0.0808 C.ar    1  LIG1        0.0903
     27 C          -8.1511   -0.3315   -0.0843 C.ar    1  LIG1        0.0215
     28 N          -7.0548   -1.1367   -0.0760 N.ar    1  LIG1       -0.3568
     29 H          -7.0750   -2.1478   -0.0757 H       1  LIG1        0.1655
     30 H          -9.1531   -0.7314   -0.0918 H       1  LIG1        0.0820
     31 N          -5.3424    2.0319   -0.0627 N.pl3   1  LIG1       -0.3553
     32 H          -5.4523    2.6409   -0.8703 H       1  LIG1        0.1424
     33 H          -5.4385    2.6177    0.7636 H       1  LIG1        0.1424
     34 N          -9.1615    3.1264   -0.0929 N.1     1  LIG1       -0.1908
     35 C          -8.5256    2.1508   -0.0873 C.1     1  LIG1        0.1025
@<TRIPOS>BOND
     1    32    31    1
     2    21    19    1
     3     9     8    1
     4    10     8    1
     5    34    35    3
     6    30    27    1
     7    35    26    1
     8    27    26   ar
     9    27    28   ar
    10    26    25   ar
    11    11    12    3
    12    28    29    1
    13    28    24   ar
    14     6     5    1
    15    25    24   ar
    16    25    31    1
    17     1     7    1
    18     1     5   ar
    19     1     2   ar
    20    24    16    1
    21    12     3    1
    22     5     4   ar
    23    31    33    1
    24    22    23    3
    25     2     3   ar
    26     2     8    1
    27    18    17    1
    28    16    15   ar
    29    16    17   ar
    30    23    15    1
    31    15    14   ar
    32    17    13   ar
    33    13     4    1
    34    13    14   ar
    35     3     4   ar
    36    14    19    1
    37    19    20    1
