@<TRIPOS>MOLECULE
mol_data/opt/b3lyp/geoms/mol2/13he13he.out
 26 27 0 0 0
SMALL
GASTEIGER

@<TRIPOS>ATOM
      1 C           1.1678   -0.3358    0.4333 C.ar    1  LIG1        0.0243
      2 C           0.8411    0.9643    0.1274 C.ar    1  LIG1        0.0584
      3 C          -0.5719    0.9937   -0.1650 C.ar    1  LIG1        0.0720
      4 C          -1.0635   -0.3100   -0.0058 C.ar    1  LIG1        0.0821
      5 N           0.0099   -1.1027    0.3198 N.ar    1  LIG1       -0.3569
      6 H          -0.0984   -2.0135    0.7376 H       1  LIG1        0.1655
      7 H           2.1127   -0.7822    0.7009 H       1  LIG1        0.0826
      8 N           1.6680    2.0916    0.1216 N.pl3   1  LIG1       -0.3559
      9 H           2.6226    1.8984   -0.1528 H       1  LIG1        0.1424
     10 H           1.2840    2.8470   -0.4339 H       1  LIG1        0.1424
     11 C          -1.2763    2.1300   -0.6213 C.1     1  LIG1       -0.0656
     12 C          -1.8504    3.1301   -1.0038 C.1     1  LIG1       -0.1138
     13 H          -2.3483    3.9924   -1.3818 H       1  LIG1        0.1232
     14 C          -2.3901   -0.8584   -0.1469 C.ar    1  LIG1        0.0863
     15 C          -3.6490   -0.3532    0.1692 C.ar    1  LIG1        0.0672
     16 C          -4.6089   -1.3921   -0.1116 C.ar    1  LIG1        0.0632
     17 C          -3.9030   -2.4913   -0.5811 C.ar    1  LIG1        0.0195
     18 N          -2.5777   -2.1797   -0.5752 N.ar    1  LIG1       -0.3569
     19 H          -1.8737   -2.6953   -1.0796 H       1  LIG1        0.1655
     20 H          -4.2654   -3.4490   -0.9215 H       1  LIG1        0.0820
     21 N          -3.9628    0.8611    0.7601 N.pl3   1  LIG1       -0.3553
     22 H          -3.3899    1.6431    0.4636 H       1  LIG1        0.1424
     23 H          -4.9516    1.0730    0.7138 H       1  LIG1        0.1424
     24 C          -6.0072   -1.2810    0.0850 C.1     1  LIG1       -0.0663
     25 C          -7.1972   -1.1319    0.2613 C.1     1  LIG1       -0.1138
     26 H          -8.2452   -1.0257    0.4175 H       1  LIG1        0.1232
@<TRIPOS>BOND
     1    13    12    1
     2    19    18    1
     3    12    11    3
     4    20    17    1
     5    11     3    1
     6    17    18   ar
     7    17    16   ar
     8    18    14   ar
     9    10     8    1
    10     3     4   ar
    11     3     2   ar
    12     9     8    1
    13    14     4    1
    14    14    15   ar
    15    16    24    1
    16    16    15   ar
    17     4     5   ar
    18    24    25    3
    19     8     2    1
    20     2     1   ar
    21    15    21    1
    22    25    26    1
    23     5     1   ar
    24     5     6    1
    25     1     7    1
    26    22    21    1
    27    23    21    1
