@<TRIPOS>MOLECULE
mol_data/opt/b3lyp/geoms/mol2/13he4ia4fi13de12lh-13ha13ai6fa-.out
 96 103 0 0 0
SMALL
GASTEIGER

@<TRIPOS>ATOM
      1 C           0.9191    0.6807    2.5019 C.ar    1  LIG1        0.0242
      2 C           1.0479    1.4403    1.3590 C.ar    1  LIG1        0.0583
      3 C          -0.1669    1.2811    0.6019 C.ar    1  LIG1        0.0705
      4 C          -1.0084    0.4221    1.3255 C.ar    1  LIG1        0.0641
      5 N          -0.3165    0.0583    2.4500 N.ar    1  LIG1       -0.3580
      6 H          -0.7254   -0.4767    3.1990 H       1  LIG1        0.1654
      7 H           1.5862    0.5440    3.3386 H       1  LIG1        0.0826
      8 N           2.1126    2.2667    0.9825 N.pl3   1  LIG1       -0.3559
      9 H           3.0222    1.8949    1.2256 H       1  LIG1        0.1424
     10 H           2.0784    2.4962   -0.0045 H       1  LIG1        0.1424
     11 C          -0.3562    1.8191   -0.6933 C.1     1  LIG1       -0.0657
     12 C          -0.4402    2.3025   -1.8030 C.1     1  LIG1       -0.1138
     13 H          -0.5396    2.7068   -2.7832 H       1  LIG1        0.1232
     14 C          -3.4577    0.6233    0.6849 C.ar    1  LIG1       -0.0407
     15 C          -4.6758   -0.0237    0.4585 C.ar    1  LIG1       -0.0504
     16 C          -2.3322   -0.1560    1.0471 C.ar    1  LIG1        0.0025
     17 C          -4.8370   -1.4115    0.5942 C.ar    1  LIG1       -0.0141
     18 H          -5.5355    0.5776    0.1860 H       1  LIG1        0.0626
     19 C          -2.4914   -1.5468    1.1881 C.ar    1  LIG1       -0.0518
     20 C          -3.7151   -2.1664    0.9712 C.ar    1  LIG1       -0.0533
     21 H          -1.6233   -2.1514    1.4355 H       1  LIG1        0.0624
     22 C          -3.3949    2.1280    0.5790 C.3     1  LIG1       -0.0391
     23 H          -4.4005    2.5563    0.6004 H       1  LIG1        0.0278
     24 H          -2.9097    2.4460   -0.3489 H       1  LIG1        0.0278
     25 H          -2.8155    2.5623    1.3994 H       1  LIG1        0.0278
     26 H          -3.7928   -3.2461    1.0553 H       1  LIG1        0.0624
     27 C          -7.0360   -1.7435   -0.6483 C.ar    1  LIG1        0.1252
     28 C          -8.2376   -2.4303   -0.7954 C.ar    1  LIG1       -0.0102
     29 C          -6.1495   -2.0759    0.3980 C.ar    1  LIG1        0.0239
     30 C          -8.6313   -3.4463    0.0913 C.ar    1  LIG1        0.0060
     31 H          -8.8831   -2.1753   -1.6300 H       1  LIG1        0.0661
     32 C          -6.5614   -3.0935    1.2698 C.ar    1  LIG1       -0.0470
     33 C          -7.7699   -3.7863    1.1621 C.ar    1  LIG1       -0.0405
     34 H          -5.9098   -3.3316    2.1057 H       1  LIG1        0.0628
     35 O          -6.6731   -0.7624   -1.5253 O.3     1  LIG1       -0.5061
     36 H          -7.3840   -0.6359   -2.1682 H       1  LIG1        0.2922
     37 C          -8.1050   -4.8201    2.2164 C.3     1  LIG1       -0.0391
     38 H          -7.5063   -4.6495    3.1148 H       1  LIG1        0.0278
     39 H          -7.8815   -5.8464    1.8911 H       1  LIG1        0.0278
     40 H          -9.1582   -4.7881    2.5099 H       1  LIG1        0.0278
     41 C          -9.9315   -4.0874   -0.1397 C.ar    1  LIG1        0.0662
     42 C         -11.1253   -3.5657   -0.6513 C.ar    1  LIG1        0.0930
     43 C         -12.0965   -4.6286   -0.7214 C.ar    1  LIG1        0.0710
     44 C         -11.4676   -5.7753   -0.2246 C.ar    1  LIG1        0.1031
     45 N         -10.1795   -5.4137    0.1109 N.ar    1  LIG1       -0.3496
     46 H          -9.4968   -6.0759    0.4433 H       1  LIG1        0.1661
     47 N         -11.5730   -1.1244   -1.3644 N.1     1  LIG1       -0.1908
     48 C         -11.3684   -2.2233   -1.0354 C.1     1  LIG1        0.1025
     49 C         -13.4016   -4.5208   -1.2541 C.1     1  LIG1       -0.0661
     50 C         -14.5110   -4.4054   -1.7248 C.1     1  LIG1       -0.1138
     51 H         -15.4817   -4.3067   -2.1519 H       1  LIG1        0.1232
     52 C         -11.8984   -7.1348   -0.0580 C.ar    1  LIG1        0.1963
     53 C         -13.0966   -7.7931    0.1273 C.ar    1  LIG1        0.1886
     54 C         -12.8168   -9.1932    0.1819 C.ar    1  LIG1        0.1155
     55 C         -11.4481   -9.3312    0.0833 C.ar    1  LIG1        0.1779
     56 O         -10.8851   -8.0824   -0.0780 O.2     1  LIG1       -0.4461
     57 O         -14.3674   -7.3197    0.2395 O.3     1  LIG1       -0.4896
     58 C         -14.5980   -6.4061    1.3231 C.3     1  LIG1        0.0791
     59 H         -15.6692   -6.1998    1.3188 H       1  LIG1        0.0660
     60 H         -14.3112   -6.8610    2.2784 H       1  LIG1        0.0660
     61 H         -14.0539   -5.4698    1.1795 H       1  LIG1        0.0660
     62 N         -13.7807  -10.2246    0.3082 N.pl3   1  LIG1       -0.3521
     63 H         -14.6806   -9.8075    0.5339 H       1  LIG1        0.1425
     64 H         -13.8929  -10.7302   -0.5687 H       1  LIG1        0.1425
     65 C         -10.5683  -10.4570    0.1009 C.ar    1  LIG1        0.1055
     66 C         -10.7340  -11.7413    0.6412 C.ar    1  LIG1        0.0539
     67 C          -9.5500  -12.4717    0.3493 C.ar    1  LIG1       -0.0135
     68 C          -8.6819  -11.6356   -0.3401 C.ar    1  LIG1        0.0652
     69 N          -9.2861  -10.4012   -0.4495 N.ar    1  LIG1       -0.3491
     70 H          -9.0290   -9.7089   -1.1362 H       1  LIG1        0.1661
     71 N         -11.7889  -12.1719    1.4316 N.pl3   1  LIG1       -0.3562
     72 H         -12.6635  -11.6652    1.2903 H       1  LIG1        0.1424
     73 H         -11.9104  -13.1753    1.4472 H       1  LIG1        0.1424
     74 H          -9.3219  -13.4750    0.6808 H       1  LIG1        0.0658
     75 C          -7.3580  -11.8889   -0.8548 C.ar    1  LIG1        0.0636
     76 C          -6.7408  -13.0636   -1.2446 C.ar    1  LIG1       -0.0315
     77 C          -5.4083  -12.7662   -1.6531 C.ar    1  LIG1       -0.0244
     78 C          -5.2288  -11.3967   -1.5050 C.ar    1  LIG1        0.0550
     79 N          -6.4464  -10.8622   -1.0633 N.ar    1  LIG1       -0.3527
     80 H          -6.4912   -9.9941   -0.5469 H       1  LIG1        0.1660
     81 H          -7.2169  -14.0337   -1.2848 H       1  LIG1        0.0642
     82 C          -4.4231  -13.7557   -2.2045 C.3     1  LIG1       -0.0377
     83 H          -3.9655  -14.3601   -1.4114 H       1  LIG1        0.0278
     84 H          -3.6156  -13.2584   -2.7480 H       1  LIG1        0.0278
     85 H          -4.9129  -14.4516   -2.8935 H       1  LIG1        0.0278
     86 C          -4.2091   -9.2699   -2.4062 C.ar    1  LIG1        0.2216
     87 C          -4.0744  -10.5304   -1.7582 C.ar    1  LIG1        0.0599
     88 C          -2.7754  -10.8959   -1.3854 C.ar    1  LIG1       -0.0461
     89 C          -1.7035  -10.0427   -1.6441 C.ar    1  LIG1       -0.0427
     90 C          -1.9743   -8.8237   -2.2586 C.ar    1  LIG1        0.0314
     91 N          -3.2011   -8.4414   -2.6360 N.ar    1  LIG1       -0.2209
     92 H          -2.6193  -11.8389   -0.8714 H       1  LIG1        0.0626
     93 H          -1.1740   -8.1155   -2.4641 H       1  LIG1        0.0831
     94 O          -5.4183   -8.8200   -2.8365 O.3     1  LIG1       -0.4919
     95 H          -6.0574   -9.5460   -2.7639 H       1  LIG1        0.2937
     96 H          -0.6915  -10.3086   -1.3587 H       1  LIG1        0.0633
@<TRIPOS>BOND
     1    85    82    1
     2    94    95    1
     3    94    86    1
     4    13    12    1
     5    84    82    1
     6    91    86   ar
     7    91    90   ar
     8    93    90    1
     9    86    87   ar
    10    90    89   ar
    11    82    77    1
    12    82    83    1
    13    36    35    1
    14    51    50    1
    15    12    11    3
    16    87    78    1
    17    87    88   ar
    18    50    49    3
    19    77    78   ar
    20    77    76   ar
    21    89    88   ar
    22    89    96    1
    23    31    28    1
    24    35    27    1
    25    78    79   ar
    26    88    92    1
    27    47    48    3
    28    81    76    1
    29    49    43    1
    30    76    75   ar
    31    70    69    1
    32    79    75   ar
    33    79    80    1
    34    48    42    1
    35    75    68    1
    36    28    27   ar
    37    28    30   ar
    38    43    42   ar
    39    43    44   ar
    40    11     3    1
    41    42    41   ar
    42    27    29   ar
    43    64    62    1
    44    69    68   ar
    45    69    65   ar
    46    24    22    1
    47    68    67   ar
    48    44    52    1
    49    44    45   ar
    50    41    30    1
    51    41    45   ar
    52    56    52   ar
    53    56    55   ar
    54    52    53   ar
    55    10     8    1
    56    55    65    1
    57    55    54   ar
    58    30    33   ar
    59    65    66   ar
    60    45    46    1
    61    53    54   ar
    62    53    57    1
    63    54    62    1
    64    18    15    1
    65    57    58    1
    66    62    63    1
    67    67    66   ar
    68    67    74    1
    69    29    17    1
    70    29    32   ar
    71    15    17   ar
    72    15    14   ar
    73    22    23    1
    74    22    14    1
    75    22    25    1
    76    17    20   ar
    77     3     4   ar
    78     3     2   ar
    79    66    71    1
    80    14    16   ar
    81    20    26    1
    82    20    19   ar
    83     8     9    1
    84     8     2    1
    85    16    19   ar
    86    16     4    1
    87    33    32   ar
    88    33    37    1
    89    61    58    1
    90    19    21    1
    91    32    34    1
    92    72    71    1
    93    59    58    1
    94    58    60    1
    95     4     5   ar
    96     2     1   ar
    97    71    73    1
    98    39    37    1
    99    37    40    1
   100    37    38    1
   101     5     1   ar
   102     5     6    1
   103     1     7    1
