@<TRIPOS>MOLECULE
mol_data/opt/b3lyp/geoms/mol2/13he13he-13he.out
 38 40 0 0 0
SMALL
GASTEIGER

@<TRIPOS>ATOM
      1 C           1.2704   -0.3455   -0.1172 C.ar    1  LIG1        0.0243
      2 C           0.9066    0.9846   -0.0352 C.ar    1  LIG1        0.0584
      3 C          -0.5292    1.0294    0.0186 C.ar    1  LIG1        0.0720
      4 C          -0.9839   -0.3013   -0.0291 C.ar    1  LIG1        0.0821
      5 N           0.1158   -1.1030   -0.1087 N.ar    1  LIG1       -0.3569
      6 H           0.0159   -2.1108   -0.1812 H       1  LIG1        0.1655
      7 H           2.2462   -0.8038   -0.1602 H       1  LIG1        0.0826
      8 N           1.7411    2.1058    0.0588 N.pl3   1  LIG1       -0.3559
      9 H           2.5935    2.0213   -0.4809 H       1  LIG1        0.1424
     10 H           1.2555    2.9608   -0.1869 H       1  LIG1        0.1424
     11 C          -1.3125    2.2021    0.1056 C.1     1  LIG1       -0.0656
     12 C          -1.9638    3.2255    0.1681 C.1     1  LIG1       -0.1138
     13 H          -2.5387    4.1150    0.2760 H       1  LIG1        0.1232
     14 C          -2.3094   -0.8655   -0.0328 C.ar    1  LIG1        0.0868
     15 C          -2.6966   -2.1993   -0.0682 C.ar    1  LIG1        0.0679
     16 C          -4.1298   -2.2380   -0.0897 C.ar    1  LIG1        0.0727
     17 C          -4.5743   -0.9053   -0.0647 C.ar    1  LIG1        0.0826
     18 N          -3.4619   -0.1050   -0.0313 N.ar    1  LIG1       -0.3493
     19 H          -3.5079    0.9050    0.0659 H       1  LIG1        0.1661
     20 N          -1.7816   -3.2997   -0.0878 N.pl3   1  LIG1       -0.3553
     21 H          -1.8118   -3.8011    0.7994 H       1  LIG1        0.1424
     22 H          -2.0602   -3.9734   -0.7988 H       1  LIG1        0.1424
     23 C          -4.9307   -3.4032   -0.1328 C.1     1  LIG1       -0.0656
     24 C          -5.6059   -4.4127   -0.1638 C.1     1  LIG1       -0.1138
     25 H          -6.1828   -5.3073   -0.2039 H       1  LIG1        0.1232
     26 C          -5.9022   -0.3518   -0.0552 C.ar    1  LIG1        0.0863
     27 C          -6.3215    0.9719   -0.1294 C.ar    1  LIG1        0.0672
     28 C          -7.7512    0.9811   -0.0100 C.ar    1  LIG1        0.0632
     29 C          -8.1514   -0.3454    0.1223 C.ar    1  LIG1        0.0195
     30 N          -7.0402   -1.1296    0.0812 N.ar    1  LIG1       -0.3569
     31 H          -7.0170   -2.1379    0.1407 H       1  LIG1        0.1655
     32 H          -9.1405   -0.7616    0.2331 H       1  LIG1        0.0820
     33 N          -5.4612    2.0891   -0.2741 N.pl3   1  LIG1       -0.3553
     34 H          -5.1359    2.1905   -1.2337 H       1  LIG1        0.1424
     35 H          -5.9547    2.9436   -0.0305 H       1  LIG1        0.1424
     36 C          -8.5692    2.1380   -0.0268 C.1     1  LIG1       -0.0663
     37 C          -9.2251    3.1570   -0.0463 C.1     1  LIG1       -0.1138
     38 H          -9.8221    4.0387   -0.0614 H       1  LIG1        0.1232
@<TRIPOS>BOND
     1    34    33    1
     2    22    20    1
     3     9     8    1
     4    33    27    1
     5    33    35    1
     6    25    24    1
     7    10     8    1
     8     6     5    1
     9    24    23    3
    10     7     1    1
    11    23    16    1
    12    27    26   ar
    13    27    28   ar
    14     1     5   ar
    15     1     2   ar
    16     5     4   ar
    17    16    15   ar
    18    16    17   ar
    19    20    15    1
    20    20    21    1
    21    15    14   ar
    22    17    26    1
    23    17    18   ar
    24    38    37    1
    25    26    30   ar
    26    37    36    3
    27     2     3   ar
    28     2     8    1
    29    14    18   ar
    30    14     4    1
    31    18    19    1
    32     4     3   ar
    33    36    28    1
    34    28    29   ar
    35     3    11    1
    36    30    29   ar
    37    30    31    1
    38    11    12    3
    39    29    32    1
    40    12    13    1
