@<TRIPOS>MOLECULE
mol_data/opt/b3lyp/geoms/mol2/13he12hl-4af-12da.out
 46 49 0 0 0
SMALL
GASTEIGER

@<TRIPOS>ATOM
      1 C           1.2502   -0.0109    0.3933 C.ar    1  LIG1        0.0243
      2 C           0.9144    1.2489   -0.0553 C.ar    1  LIG1        0.0584
      3 C          -0.4988    1.2436   -0.3300 C.ar    1  LIG1        0.0736
      4 C          -0.9803   -0.0431   -0.0164 C.ar    1  LIG1        0.1015
      5 N           0.0952   -0.7736    0.4050 N.ar    1  LIG1       -0.3556
      6 H           0.0221   -1.7275    0.7173 H       1  LIG1        0.1655
      7 H           2.1985   -0.4183    0.7065 H       1  LIG1        0.0826
      8 N           1.7397    2.3691   -0.1836 N.pl3   1  LIG1       -0.3559
      9 H           2.6896    2.1491   -0.4546 H       1  LIG1        0.1424
     10 H           1.3462    3.0679   -0.8029 H       1  LIG1        0.1424
     11 C          -1.1904    2.3343   -0.9019 C.1     1  LIG1       -0.0656
     12 C          -1.7187    3.3077   -1.4026 C.1     1  LIG1       -0.1138
     13 H          -2.1806    4.1480   -1.8666 H       1  LIG1        0.1232
     14 C          -2.2852   -0.6394   -0.0712 C.ar    1  LIG1        0.1773
     15 C          -3.5847   -0.1688   -0.0945 C.ar    1  LIG1        0.1155
     16 C          -4.4172   -1.3328   -0.0810 C.ar    1  LIG1        0.1870
     17 C          -3.6082   -2.4474   -0.0444 C.ar    1  LIG1        0.1792
     18 O          -2.3033   -2.0264   -0.0343 O.2     1  LIG1       -0.4476
     19 N          -4.0862    1.1235   -0.0402 N.pl3   1  LIG1       -0.3521
     20 H          -3.4387    1.8451   -0.3384 H       1  LIG1        0.1425
     21 H          -4.9793    1.2034   -0.5124 H       1  LIG1        0.1425
     22 O          -5.7841   -1.2942   -0.1210 O.3     1  LIG1       -0.4896
     23 C          -6.3921   -0.9934    1.1488 C.3     1  LIG1        0.0791
     24 H          -7.4662   -0.9320    0.9659 H       1  LIG1        0.0660
     25 H          -6.1870   -1.7894    1.8734 H       1  LIG1        0.0660
     26 H          -6.0265   -0.0392    1.5424 H       1  LIG1        0.0660
     27 C          -5.1791   -4.3743   -0.1347 C.ar    1  LIG1       -0.0501
     28 C          -5.4024   -5.7403   -0.1089 C.ar    1  LIG1       -0.0469
     29 C          -3.8652   -3.8720   -0.0396 C.ar    1  LIG1        0.0245
     30 C          -4.3532   -6.6755   -0.0016 C.ar    1  LIG1        0.0599
     31 H          -6.4218   -6.1031   -0.1703 H       1  LIG1        0.0626
     32 C          -2.8068   -4.7898    0.0621 C.ar    1  LIG1       -0.0087
     33 C          -3.0346   -6.1641    0.0752 C.ar    1  LIG1        0.1282
     34 H          -1.7859   -4.4229    0.1186 H       1  LIG1        0.0661
     35 H          -6.0103   -3.6881   -0.2349 H       1  LIG1        0.0625
     36 O          -1.9970   -7.0454    0.1432 O.3     1  LIG1       -0.5060
     37 H          -1.1686   -6.5479    0.1320 H       1  LIG1        0.2922
     38 C          -4.6518   -8.1004    0.0022 C.ar    1  LIG1        0.1556
     39 C          -5.7063   -8.8421   -0.5171 C.ar    1  LIG1        0.0975
     40 C          -5.4643  -10.2157   -0.1633 C.ar    1  LIG1       -0.0058
     41 C          -4.2996  -10.2187    0.5297 C.ar    1  LIG1        0.0939
     42 O          -3.8023   -8.9525    0.6373 O.2     1  LIG1       -0.4615
     43 H          -3.7105  -10.9943    0.9921 H       1  LIG1        0.1030
     44 N          -7.7207   -8.0067   -1.9012 N.1     1  LIG1       -0.1907
     45 C          -6.8050   -8.3701   -1.2792 C.1     1  LIG1        0.1030
     46 H          -6.0858  -11.0620   -0.4132 H       1  LIG1        0.0662
@<TRIPOS>BOND
     1    44    45    3
     2    13    12    1
     3    12    11    3
     4    45    39    1
     5    11     3    1
     6    10     8    1
     7    39    40   ar
     8    39    38   ar
     9    21    19    1
    10     9     8    1
    11    46    40    1
    12    20    19    1
    13     3     2   ar
    14     3     4   ar
    15    35    27    1
    16     8     2    1
    17    31    28    1
    18    40    41   ar
    19    27    28   ar
    20    27    29   ar
    21    22    16    1
    22    22    23    1
    23    28    30   ar
    24    15    16   ar
    25    15    14   ar
    26    15    19    1
    27    16    17   ar
    28    14    18   ar
    29    14     4    1
    30     2     1   ar
    31    17    29    1
    32    17    18   ar
    33    29    32   ar
    34     4     5   ar
    35    30    38    1
    36    30    33   ar
    37    38    42   ar
    38    32    33   ar
    39    32    34    1
    40    33    36    1
    41    37    36    1
    42     1     5   ar
    43     1     7    1
    44     5     6    1
    45    41    42   ar
    46    41    43    1
    47    24    23    1
    48    23    26    1
    49    23    25    1
