@<TRIPOS>MOLECULE
mol_data/opt/b3lyp/geoms/mol2/13he12ii-4fl-12df-.out
 51 54 0 0 0
SMALL
GASTEIGER

@<TRIPOS>ATOM
      1 C           1.1600   -0.3856   -0.0435 C.ar    1  LIG1        0.0243
      2 C           0.8063    0.8746   -0.4818 C.ar    1  LIG1        0.0584
      3 C          -0.6304    0.9413   -0.4812 C.ar    1  LIG1        0.0735
      4 C          -1.1045   -0.2994   -0.0164 C.ar    1  LIG1        0.0998
      5 N          -0.0044   -1.0761    0.2277 N.ar    1  LIG1       -0.3556
      6 H          -0.0631   -2.0249    0.5587 H       1  LIG1        0.1655
      7 H           2.1300   -0.8339    0.1042 H       1  LIG1        0.0826
      8 N           1.6465    1.9385   -0.8238 N.pl3   1  LIG1       -0.3559
      9 H           2.4965    1.6525   -1.2932 H       1  LIG1        0.1424
     10 H           1.1608    2.6421   -1.3686 H       1  LIG1        0.1424
     11 C          -1.3561    2.0469   -0.9828 C.1     1  LIG1       -0.0656
     12 C          -1.8968    3.0283   -1.4483 C.1     1  LIG1       -0.1138
     13 H          -2.4007    3.8759   -1.8505 H       1  LIG1        0.1232
     14 C          -2.4271   -0.8384    0.1870 C.ar    1  LIG1        0.1561
     15 C          -3.6588   -0.3194    0.5146 C.ar    1  LIG1        0.0003
     16 C          -4.5650   -1.4340    0.5776 C.ar    1  LIG1       -0.0010
     17 C          -3.8276   -2.5616    0.2936 C.ar    1  LIG1        0.1425
     18 O          -2.5153   -2.2050    0.0677 O.2     1  LIG1       -0.4527
     19 C          -4.0011    1.1044    0.8298 C.3     1  LIG1       -0.0358
     20 H          -4.6612    1.1584    1.7024 H       1  LIG1        0.0279
     21 H          -4.5206    1.5940   -0.0020 H       1  LIG1        0.0279
     22 H          -3.1072    1.6920    1.0421 H       1  LIG1        0.0279
     23 C          -6.0074   -1.3420    0.9746 C.3     1  LIG1       -0.0358
     24 H          -6.3812   -2.2912    1.3592 H       1  LIG1        0.0279
     25 H          -6.6418   -1.0633    0.1260 H       1  LIG1        0.0279
     26 H          -6.1421   -0.5815    1.7506 H       1  LIG1        0.0279
     27 C          -5.2866   -4.5464   -0.2742 C.ar    1  LIG1        0.1284
     28 C          -5.4803   -5.9230   -0.2870 C.ar    1  LIG1       -0.0052
     29 C          -4.0912   -3.9941    0.2409 C.ar    1  LIG1        0.0624
     30 C          -4.4939   -6.8271    0.1522 C.ar    1  LIG1        0.0637
     31 H          -6.4240   -6.3040   -0.6622 H       1  LIG1        0.0662
     32 C          -3.1054   -4.9014    0.6635 C.ar    1  LIG1       -0.0051
     33 C          -3.2774   -6.2801    0.6258 C.ar    1  LIG1        0.1317
     34 H          -2.1681   -4.5236    1.0545 H       1  LIG1        0.0662
     35 O          -6.2339   -3.6945   -0.7670 O.3     1  LIG1       -0.5060
     36 H          -6.9507   -4.2119   -1.1582 H       1  LIG1        0.2922
     37 O          -2.2513   -7.0666    1.1025 O.3     1  LIG1       -0.4944
     38 C          -1.3717   -7.5737    0.0996 C.3     1  LIG1        0.0788
     39 H          -0.5942   -8.1323    0.6243 H       1  LIG1        0.0660
     40 H          -1.8913   -8.2470   -0.5928 H       1  LIG1        0.0660
     41 H          -0.9116   -6.7580   -0.4730 H       1  LIG1        0.0660
     42 C          -4.7703   -8.2569    0.1011 C.ar    1  LIG1        0.1594
     43 C          -5.7139   -9.0067   -0.5967 C.ar    1  LIG1        0.1388
     44 C          -5.5046  -10.3787   -0.2178 C.ar    1  LIG1        0.1728
     45 C          -4.4669  -10.3826    0.6638 C.ar    1  LIG1        0.1352
     46 O          -4.0234   -9.0981    0.8563 O.2     1  LIG1       -0.4577
     47 H          -3.9552  -11.1545    1.2148 H       1  LIG1        0.1068
     48 N          -7.4968   -8.1933   -2.2758 N.1     1  LIG1       -0.1906
     49 C          -6.6884   -8.5603   -1.5212 C.1     1  LIG1        0.1067
     50 O          -6.2566  -11.3885   -0.7150 O.3     1  LIG1       -0.5028
     51 H          -5.9608  -12.2287   -0.3410 H       1  LIG1        0.2923
@<TRIPOS>BOND
     1    48    49    3
     2    13    12    1
     3    49    43    1
     4    12    11    3
     5    10     8    1
     6     9     8    1
     7    36    35    1
     8    11     3    1
     9     8     2    1
    10    35    27    1
    11    50    51    1
    12    50    44    1
    13    31    28    1
    14    43    44   ar
    15    43    42   ar
    16    40    38    1
    17     2     3   ar
    18     2     1   ar
    19     3     4   ar
    20    41    38    1
    21    28    27   ar
    22    28    30   ar
    23    27    29   ar
    24    44    45   ar
    25     1     7    1
    26     1     5   ar
    27     4    14    1
    28     4     5   ar
    29    21    19    1
    30    18    14   ar
    31    18    17   ar
    32    38    39    1
    33    38    37    1
    34    42    30    1
    35    42    46   ar
    36    25    23    1
    37    30    33   ar
    38    14    15   ar
    39     5     6    1
    40    29    17    1
    41    29    32   ar
    42    17    16   ar
    43    15    16   ar
    44    15    19    1
    45    16    23    1
    46    33    32   ar
    47    33    37    1
    48    32    34    1
    49    45    46   ar
    50    45    47    1
    51    19    22    1
    52    19    20    1
    53    23    24    1
    54    23    26    1
