@<TRIPOS>MOLECULE
mol_data/opt/b3lyp/geoms/mol2/13he13he-4he13he.out
 52 55 0 0 0
SMALL
GASTEIGER

@<TRIPOS>ATOM
      1 C           1.3873   -0.4468    0.1497 C.ar    1  LIG1        0.0243
      2 C           1.0313    0.8481    0.4758 C.ar    1  LIG1        0.0584
      3 C          -0.4033    0.9181    0.4253 C.ar    1  LIG1        0.0720
      4 C          -0.8644   -0.3628    0.0692 C.ar    1  LIG1        0.0821
      5 N           0.2288   -1.1599   -0.0886 N.ar    1  LIG1       -0.3569
      6 H           0.1245   -2.1277   -0.3778 H       1  LIG1        0.1655
      7 H           2.3591   -0.9112    0.0878 H       1  LIG1        0.0826
      8 N           1.8665    1.9031    0.8632 N.pl3   1  LIG1       -0.3559
      9 H           2.7654    1.9003    0.3976 H       1  LIG1        0.1424
     10 H           1.4180    2.8049    0.7529 H       1  LIG1        0.1424
     11 C          -1.1907    2.0642    0.6777 C.1     1  LIG1       -0.0656
     12 C          -1.8608    3.0571    0.8812 C.1     1  LIG1       -0.1138
     13 H          -2.4513    3.9171    1.0954 H       1  LIG1        0.1232
     14 C          -2.1932   -0.8740   -0.1452 C.ar    1  LIG1        0.0867
     15 C          -2.6045   -2.1483   -0.5114 C.ar    1  LIG1        0.0679
     16 C          -4.0336   -2.1352   -0.6116 C.ar    1  LIG1        0.0712
     17 C          -4.4639   -0.8354   -0.2951 C.ar    1  LIG1        0.0662
     18 N          -3.3282   -0.1008   -0.0287 N.ar    1  LIG1       -0.3505
     19 H          -3.3279    0.8537    0.3104 H       1  LIG1        0.1660
     20 N          -1.7079   -3.2394   -0.7481 N.pl3   1  LIG1       -0.3553
     21 H          -1.8576   -3.9694   -0.0522 H       1  LIG1        0.1424
     22 H          -1.9183   -3.6721   -1.6462 H       1  LIG1        0.1424
     23 C          -4.8140   -3.2487   -1.0085 C.1     1  LIG1       -0.0657
     24 C          -5.4254   -4.2369   -1.3544 C.1     1  LIG1       -0.1138
     25 H          -5.9872   -5.0882   -1.6612 H       1  LIG1        0.1232
     26 C          -6.1043    1.0876   -0.4853 C.ar    1  LIG1        0.0345
     27 C          -7.4073    1.5641   -0.3225 C.ar    1  LIG1       -0.0301
     28 C          -5.8114   -0.2736   -0.1924 C.ar    1  LIG1        0.0214
     29 C          -8.4762    0.7574    0.1023 C.ar    1  LIG1        0.0173
     30 H          -7.5941    2.6179   -0.5023 H       1  LIG1        0.0643
     31 C          -6.8716   -1.0798    0.2319 C.ar    1  LIG1       -0.0348
     32 C          -8.1860   -0.6124    0.3808 C.ar    1  LIG1        0.0346
     33 H          -6.6729   -2.1187    0.4652 H       1  LIG1        0.0637
     34 N          -5.0940    1.9738   -0.8747 N.pl3   1  LIG1       -0.3574
     35 H          -4.3816    1.5748   -1.4738 H       1  LIG1        0.1423
     36 H          -5.4382    2.8509   -1.2428 H       1  LIG1        0.1423
     37 C          -9.1677   -1.5593    0.8081 C.1     1  LIG1       -0.0690
     38 C          -9.9645   -2.3922    1.1871 C.1     1  LIG1       -0.1139
     39 H         -10.6611   -3.1429    1.4806 H       1  LIG1        0.1232
     40 C          -9.7974    1.3573    0.2394 C.ar    1  LIG1        0.0699
     41 C         -10.3299    2.5222   -0.3232 C.ar    1  LIG1        0.0658
     42 C         -11.6571    2.6916    0.1905 C.ar    1  LIG1        0.0632
     43 C         -11.8951    1.6221    1.0501 C.ar    1  LIG1        0.0195
     44 N         -10.7928    0.8391    1.0658 N.ar    1  LIG1       -0.3580
     45 H         -10.7029   -0.0448    1.5457 H       1  LIG1        0.1654
     46 H         -12.7761    1.3836    1.6257 H       1  LIG1        0.0820
     47 N          -9.7155    3.4149   -1.2120 N.pl3   1  LIG1       -0.3554
     48 H          -9.2180    2.9488   -1.9633 H       1  LIG1        0.1424
     49 H         -10.3929    4.0661   -1.5961 H       1  LIG1        0.1424
     50 C         -12.5354    3.7481   -0.1528 C.1     1  LIG1       -0.0663
     51 C         -13.2488    4.6689   -0.4889 C.1     1  LIG1       -0.1138
     52 H         -13.8918    5.4735   -0.7598 H       1  LIG1        0.1232
@<TRIPOS>BOND
     1    48    47    1
     2    25    24    1
     3    22    20    1
     4    49    47    1
     5    35    34    1
     6    24    23    3
     7    36    34    1
     8    47    41    1
     9    23    16    1
    10    34    26    1
    11    52    51    1
    12    20    15    1
    13    20    21    1
    14    16    15   ar
    15    16    17   ar
    16    15    14   ar
    17    30    27    1
    18    51    50    3
    19    26    27   ar
    20    26    28   ar
    21     6     5    1
    22    41    42   ar
    23    41    40   ar
    24    27    29   ar
    25    17    28    1
    26    17    18   ar
    27    28    31   ar
    28    50    42    1
    29    14    18   ar
    30    14     4    1
    31     5     4   ar
    32     5     1   ar
    33    18    19    1
    34     4     3   ar
    35     7     1    1
    36    29    40    1
    37    29    32   ar
    38     1     2   ar
    39    42    43   ar
    40    31    32   ar
    41    31    33    1
    42    40    44   ar
    43    32    37    1
    44     9     8    1
    45     3     2   ar
    46     3    11    1
    47     2     8    1
    48    11    12    3
    49    10     8    1
    50    37    38    3
    51    12    13    1
    52    43    44   ar
    53    43    46    1
    54    44    45    1
    55    38    39    1
