@<TRIPOS>MOLECULE
mol_data/opt/b3lyp/geoms/mol2/13he13he-13he-13he-.out
 50 53 0 0 0
SMALL
GASTEIGER

@<TRIPOS>ATOM
      1 C           1.2829   -0.1854    0.1994 C.ar    1  LIG1        0.0243
      2 C           0.8324    1.0788    0.5262 C.ar    1  LIG1        0.0584
      3 C          -0.6047    1.0380    0.4936 C.ar    1  LIG1        0.0720
      4 C          -0.9700   -0.2764    0.1467 C.ar    1  LIG1        0.0821
      5 N           0.1789   -0.9874   -0.0210 N.ar    1  LIG1       -0.3569
      6 H           0.1480   -1.9602   -0.3087 H       1  LIG1        0.1655
      7 H           2.2866   -0.5743    0.1277 H       1  LIG1        0.0826
      8 N           1.5889    2.1956    0.9015 N.pl3   1  LIG1       -0.3559
      9 H           2.4863    2.2515    0.4366 H       1  LIG1        0.1424
     10 H           1.0782    3.0625    0.7822 H       1  LIG1        0.1424
     11 C          -1.4726    2.1206    0.7625 C.1     1  LIG1       -0.0656
     12 C          -2.2088    3.0628    0.9834 C.1     1  LIG1       -0.1138
     13 H          -2.8361    3.8891    1.2260 H       1  LIG1        0.1232
     14 C          -2.2595   -0.8828   -0.0514 C.ar    1  LIG1        0.0868
     15 C          -2.5921   -2.1866   -0.3799 C.ar    1  LIG1        0.0679
     16 C          -4.0232   -2.2613   -0.4859 C.ar    1  LIG1        0.0727
     17 C          -4.5303   -0.9831   -0.1952 C.ar    1  LIG1        0.0826
     18 N          -3.4429   -0.1744    0.0530 N.ar    1  LIG1       -0.3493
     19 H          -3.4850    0.7580    0.4421 H       1  LIG1        0.1661
     20 N          -1.6305   -3.2249   -0.5907 N.pl3   1  LIG1       -0.3553
     21 H          -1.6776   -3.9056    0.1671 H       1  LIG1        0.1424
     22 H          -1.8559   -3.7409   -1.4395 H       1  LIG1        0.1424
     23 C          -4.7465   -3.4023   -0.9019 C.1     1  LIG1       -0.0656
     24 C          -5.3348   -4.4042   -1.2556 C.1     1  LIG1       -0.1138
     25 H          -5.8487   -5.2670   -1.6107 H       1  LIG1        0.1232
     26 C          -5.8716   -0.4619   -0.1614 C.ar    1  LIG1        0.0868
     27 C          -7.0842   -1.0146    0.2473 C.ar    1  LIG1        0.0679
     28 C          -8.0845    0.0124    0.1399 C.ar    1  LIG1        0.0727
     29 C          -7.4544    1.1840   -0.3137 C.ar    1  LIG1        0.0826
     30 N          -6.1341    0.8750   -0.4922 N.ar    1  LIG1       -0.3493
     31 H          -5.4316    1.5381   -0.7774 H       1  LIG1        0.1661
     32 N          -7.3184   -2.2801    0.7593 N.pl3   1  LIG1       -0.3553
     33 H          -8.3022   -2.5157    0.7928 H       1  LIG1        0.1424
     34 H          -6.7587   -3.0211    0.3533 H       1  LIG1        0.1424
     35 C          -9.4615   -0.1839    0.3863 C.1     1  LIG1       -0.0656
     36 C         -10.6360   -0.3911    0.6174 C.1     1  LIG1       -0.1138
     37 H         -11.6729   -0.5807    0.7701 H       1  LIG1        0.1232
     38 C          -7.9756    2.4930   -0.6175 C.ar    1  LIG1        0.0863
     39 C          -8.9487    3.2755    0.0010 C.ar    1  LIG1        0.0672
     40 C          -8.9778    4.5429   -0.6867 C.ar    1  LIG1        0.0632
     41 C          -8.0226    4.4900   -1.6915 C.ar    1  LIG1        0.0195
     42 N          -7.4029    3.2786   -1.6294 N.ar    1  LIG1       -0.3569
     43 H          -6.8703    2.8863   -2.3905 H       1  LIG1        0.1655
     44 H          -7.7663    5.2259   -2.4379 H       1  LIG1        0.0820
     45 N          -9.6832    2.9912    1.1398 N.pl3   1  LIG1       -0.3553
     46 H         -10.4543    3.6319    1.2795 H       1  LIG1        0.1424
     47 H          -9.9627    2.0223    1.2427 H       1  LIG1        0.1424
     48 C          -9.8283    5.6264   -0.3563 C.1     1  LIG1       -0.0663
     49 C         -10.5841    6.5195   -0.0399 C.1     1  LIG1       -0.1138
     50 H         -11.2335    7.3205    0.2265 H       1  LIG1        0.1232
@<TRIPOS>BOND
     1    44    41    1
     2    43    42    1
     3    41    42   ar
     4    41    40   ar
     5    42    38   ar
     6    25    24    1
     7    22    20    1
     8    24    23    3
     9    23    16    1
    10    31    30    1
    11    40    48    1
    12    40    39   ar
    13    38    29    1
    14    38    39   ar
    15    20    15    1
    16    20    21    1
    17    30    29   ar
    18    30    26   ar
    19    16    15   ar
    20    16    17   ar
    21    15    14   ar
    22    48    49    3
    23    29    28   ar
    24     6     5    1
    25    17    26    1
    26    17    18   ar
    27    26    27   ar
    28    14    18   ar
    29    14     4    1
    30    49    50    1
    31     5     4   ar
    32     5     1   ar
    33    39    45    1
    34    18    19    1
    35     7     1    1
    36    28    27   ar
    37    28    35    1
    38     4     3   ar
    39     1     2   ar
    40    27    32    1
    41    34    32    1
    42    35    36    3
    43     9     8    1
    44     3     2   ar
    45     3    11    1
    46     2     8    1
    47    36    37    1
    48    32    33    1
    49    11    12    3
    50    10     8    1
    51    12    13    1
    52    45    47    1
    53    45    46    1
