@<TRIPOS>MOLECULE
mol_data/opt/b3lyp/geoms/mol2/13he13he-.out
 26 27 0 0 0
SMALL
GASTEIGER

@<TRIPOS>ATOM
      1 C           1.1924   -0.3099   -0.0988 C.ar    1  LIG1        0.0243
      2 C           0.8274    1.0211   -0.0413 C.ar    1  LIG1        0.0584
      3 C          -0.6096    1.0649   -0.0055 C.ar    1  LIG1        0.0720
      4 C          -1.0613   -0.2669   -0.0388 C.ar    1  LIG1        0.0821
      5 N           0.0372   -1.0684   -0.0939 N.ar    1  LIG1       -0.3569
      6 H          -0.0632   -2.0775   -0.1467 H       1  LIG1        0.1655
      7 H           2.1686   -0.7681   -0.1261 H       1  LIG1        0.0826
      8 N           1.6603    2.1438    0.0449 N.pl3   1  LIG1       -0.3559
      9 H           2.5308    2.0403   -0.4614 H       1  LIG1        0.1424
     10 H           1.1878    2.9924   -0.2443 H       1  LIG1        0.1424
     11 C          -1.4027    2.2338    0.0423 C.1     1  LIG1       -0.0656
     12 C          -2.0726    3.2477    0.0703 C.1     1  LIG1       -0.1138
     13 H          -2.6433    4.1456    0.1184 H       1  LIG1        0.1232
     14 C          -2.3896   -0.8266   -0.0419 C.ar    1  LIG1        0.0863
     15 C          -2.7950   -2.1542   -0.0725 C.ar    1  LIG1        0.0672
     16 C          -4.2320   -2.1698   -0.0779 C.ar    1  LIG1        0.0632
     17 C          -4.6448   -0.8431   -0.0484 C.ar    1  LIG1        0.0195
     18 N          -3.5321   -0.0529   -0.0235 N.ar    1  LIG1       -0.3569
     19 H          -3.5147    0.9575   -0.0007 H       1  LIG1        0.1655
     20 H          -5.6399   -0.4264   -0.0435 H       1  LIG1        0.0820
     21 N          -1.8896   -3.2636   -0.0921 N.pl3   1  LIG1       -0.3553
     22 H          -1.9707   -3.7976    0.7725 H       1  LIG1        0.1424
     23 H          -2.1466   -3.9078   -0.8381 H       1  LIG1        0.1424
     24 C          -5.0502   -3.3269   -0.1119 C.1     1  LIG1       -0.0663
     25 C          -5.7130   -4.3408   -0.1429 C.1     1  LIG1       -0.1138
     26 H          -6.3130   -5.2203   -0.1685 H       1  LIG1        0.1232
@<TRIPOS>BOND
     1    23    21    1
     2     9     8    1
     3    10     8    1
     4    26    25    1
     5     6     5    1
     6    25    24    3
     7     7     1    1
     8    24    16    1
     9     1     5   ar
    10     1     2   ar
    11     5     4   ar
    12    21    15    1
    13    21    22    1
    14    16    15   ar
    15    16    17   ar
    16    15    14   ar
    17    17    20    1
    18    17    18   ar
    19    14     4    1
    20    14    18   ar
    21     2     3   ar
    22     2     8    1
    23     4     3   ar
    24    18    19    1
    25     3    11    1
    26    11    12    3
    27    12    13    1
