@<TRIPOS>MOLECULE
mol_data/opt/b3lyp/geoms/mol2/13he13he13he-13he-.out
 50 53 0 0 0
SMALL
GASTEIGER

@<TRIPOS>ATOM
      1 C           1.2024   -0.1356    0.6761 C.ar    1  LIG1        0.0243
      2 C           0.9039    1.0879    0.1233 C.ar    1  LIG1        0.0584
      3 C          -0.5084    1.0929   -0.1697 C.ar    1  LIG1        0.0720
      4 C          -1.0297   -0.1456    0.2397 C.ar    1  LIG1        0.0821
      5 N           0.0271   -0.8795    0.7165 N.ar    1  LIG1       -0.3569
      6 H          -0.0925   -1.7151    1.2664 H       1  LIG1        0.1655
      7 H           2.1373   -0.5425    1.0281 H       1  LIG1        0.0826
      8 N           1.7574    2.1734   -0.0993 N.pl3   1  LIG1       -0.3559
      9 H           2.7049    1.9059   -0.3335 H       1  LIG1        0.1424
     10 H           1.3888    2.8139   -0.7927 H       1  LIG1        0.1424
     11 C          -1.1811    2.1342   -0.8461 C.1     1  LIG1       -0.0656
     12 C          -1.7229    3.0558   -1.4239 C.1     1  LIG1       -0.1138
     13 H          -2.1919    3.8396   -1.9716 H       1  LIG1        0.1232
     14 C          -2.3641   -0.6891    0.2041 C.ar    1  LIG1        0.0868
     15 C          -3.6175   -0.0981    0.3823 C.ar    1  LIG1        0.0679
     16 C          -4.5948   -1.1498    0.3387 C.ar    1  LIG1        0.0727
     17 C          -3.9018   -2.3583    0.1439 C.ar    1  LIG1        0.0826
     18 N          -2.5732   -2.0639    0.0877 N.ar    1  LIG1       -0.3493
     19 H          -1.9072   -2.7657   -0.2226 H       1  LIG1        0.1661
     20 N          -3.9045    1.2256    0.6770 N.pl3   1  LIG1       -0.3553
     21 H          -3.2942    1.9055    0.2376 H       1  LIG1        0.1424
     22 H          -4.8821    1.4555    0.5516 H       1  LIG1        0.1424
     23 C          -5.9899   -0.9824    0.4905 C.1     1  LIG1       -0.0656
     24 C          -7.1881   -0.8185    0.6138 C.1     1  LIG1       -0.1138
     25 H          -8.2306   -0.6574    0.7620 H       1  LIG1        0.1232
     26 C          -4.3737   -3.7019   -0.0435 C.ar    1  LIG1        0.0868
     27 C          -3.6662   -4.8688   -0.2892 C.ar    1  LIG1        0.0679
     28 C          -4.6161   -5.9340   -0.4437 C.ar    1  LIG1        0.0727
     29 C          -5.8957   -5.3799   -0.2659 C.ar    1  LIG1        0.0826
     30 N          -5.7165   -4.0358   -0.0341 N.ar    1  LIG1       -0.3493
     31 H          -6.4402   -3.3935    0.2587 H       1  LIG1        0.1661
     32 N          -2.2414   -4.9304   -0.3984 N.pl3   1  LIG1       -0.3553
     33 H          -1.8462   -5.3925    0.4203 H       1  LIG1        0.1424
     34 H          -1.9804   -5.5096   -1.1947 H       1  LIG1        0.1424
     35 C          -4.2923   -7.2630   -0.8004 C.1     1  LIG1       -0.0656
     36 C          -3.9754   -8.3961   -1.1011 C.1     1  LIG1       -0.1138
     37 H          -3.7045   -9.3783   -1.4118 H       1  LIG1        0.1232
     38 C          -7.2133   -5.9595   -0.3175 C.ar    1  LIG1        0.0863
     39 C          -7.7089   -7.2021    0.0766 C.ar    1  LIG1        0.0672
     40 C          -9.1345   -7.1787   -0.1329 C.ar    1  LIG1        0.0632
     41 C          -9.4575   -5.9260   -0.6370 C.ar    1  LIG1        0.0195
     42 N          -8.3150   -5.1934   -0.7226 N.ar    1  LIG1       -0.3569
     43 H          -8.2295   -4.3370   -1.2472 H       1  LIG1        0.1655
     44 H         -10.4142   -5.5332   -0.9449 H       1  LIG1        0.0820
     45 N          -7.0282   -8.2471    0.6793 N.pl3   1  LIG1       -0.3553
     46 H          -7.5695   -9.1022    0.7059 H       1  LIG1        0.1424
     47 H          -6.0838   -8.3987    0.3444 H       1  LIG1        0.1424
     48 C         -10.0142   -8.2518    0.1512 C.1     1  LIG1       -0.0663
     49 C         -10.7225   -9.2029    0.4021 C.1     1  LIG1       -0.1138
     50 H         -11.3654  -10.0225    0.6238 H       1  LIG1        0.1232
@<TRIPOS>BOND
     1    13    12    1
     2    12    11    3
     3    37    36    1
     4    43    42    1
     5    34    32    1
     6    36    35    3
     7    44    41    1
     8    11     3    1
     9    35    28    1
    10    10     8    1
    11    42    41   ar
    12    42    38   ar
    13    41    40   ar
    14    28    27   ar
    15    28    29   ar
    16    32    27    1
    17    32    33    1
    18     9     8    1
    19    38    29    1
    20    38    39   ar
    21    27    26   ar
    22    29    30   ar
    23    19    18    1
    24     3     2   ar
    25     3     4   ar
    26    40    39   ar
    27    40    48    1
    28     8     2    1
    29    26    30   ar
    30    26    17    1
    31    30    31    1
    32    39    45    1
    33    18    17   ar
    34    18    14   ar
    35     2     1   ar
    36    17    16   ar
    37    48    49    3
    38    14     4    1
    39    14    15   ar
    40    21    20    1
    41     4     5   ar
    42    16    15   ar
    43    16    23    1
    44    47    45    1
    45    15    20    1
    46    49    50    1
    47    23    24    3
    48    22    20    1
    49    24    25    1
    50     1     5   ar
    51     1     7    1
    52    45    46    1
    53     5     6    1
