@<TRIPOS>MOLECULE
mol_data/opt/b3lyp/geoms/mol2/13he13he13he.out
 38 40 0 0 0
SMALL
GASTEIGER

@<TRIPOS>ATOM
      1 C           1.1930   -0.2596    0.4034 C.ar    1  LIG1        0.0243
      2 C           0.8769    0.9601   -0.1464 C.ar    1  LIG1        0.0584
      3 C          -0.5536    0.9889   -0.3358 C.ar    1  LIG1        0.0720
      4 C          -1.0664   -0.2321    0.1330 C.ar    1  LIG1        0.0821
      5 N           0.0096   -0.9834    0.5378 N.ar    1  LIG1       -0.3569
      6 H          -0.0916   -1.7896    1.1336 H       1  LIG1        0.1655
      7 H           2.1443   -0.6807    0.6885 H       1  LIG1        0.0826
      8 N           1.7308    2.0246   -0.4520 N.pl3   1  LIG1       -0.3559
      9 H           2.6539    1.7357   -0.7495 H       1  LIG1        0.1424
     10 H           1.3235    2.6610   -1.1271 H       1  LIG1        0.1424
     11 C          -1.2558    2.0317   -0.9783 C.1     1  LIG1       -0.0656
     12 C          -1.8250    2.9530   -1.5301 C.1     1  LIG1       -0.1138
     13 H          -2.3199    3.7355   -2.0565 H       1  LIG1        0.1232
     14 C          -2.4075   -0.7475    0.2097 C.ar    1  LIG1        0.0868
     15 C          -3.6328   -0.1382    0.4425 C.ar    1  LIG1        0.0679
     16 C          -4.6320   -1.1804    0.5036 C.ar    1  LIG1        0.0727
     17 C          -3.9866   -2.4055    0.2998 C.ar    1  LIG1        0.0826
     18 N          -2.6344   -2.1408    0.1768 N.ar    1  LIG1       -0.3493
     19 H          -2.0652   -2.7290   -0.4173 H       1  LIG1        0.1661
     20 N          -3.8957    1.1892    0.7223 N.pl3   1  LIG1       -0.3553
     21 H          -3.3058    1.8626    0.2476 H       1  LIG1        0.1424
     22 H          -4.8791    1.4219    0.6713 H       1  LIG1        0.1424
     23 C          -5.9919   -0.9424    0.8077 C.1     1  LIG1       -0.0656
     24 C          -7.1521   -0.6756    1.0456 C.1     1  LIG1       -0.1138
     25 H          -8.1637   -0.4772    1.3135 H       1  LIG1        0.1232
     26 C          -4.4672   -3.7571    0.1961 C.ar    1  LIG1        0.0863
     27 C          -5.6634   -4.3113   -0.2657 C.ar    1  LIG1        0.0672
     28 C          -5.4988   -5.7439   -0.2701 C.ar    1  LIG1        0.0632
     29 C          -4.2205   -6.0132    0.1970 C.ar    1  LIG1        0.0195
     30 N          -3.5971   -4.8298    0.4467 N.ar    1  LIG1       -0.3569
     31 H          -2.7709   -4.7345    1.0163 H       1  LIG1        0.1655
     32 H          -3.7365   -6.9628    0.3662 H       1  LIG1        0.0820
     33 N          -6.8228   -3.6787   -0.6544 N.pl3   1  LIG1       -0.3553
     34 H          -6.8007   -2.6742   -0.7455 H       1  LIG1        0.1424
     35 H          -7.3736   -4.1662   -1.3462 H       1  LIG1        0.1424
     36 C          -6.4719   -6.6735   -0.7117 C.1     1  LIG1       -0.0663
     37 C          -7.3295   -7.4319   -1.1094 C.1     1  LIG1       -0.1138
     38 H          -8.0774   -8.1150   -1.4380 H       1  LIG1        0.1232
@<TRIPOS>BOND
     1    13    12    1
     2    12    11    3
     3    38    37    1
     4    35    33    1
     5    10     8    1
     6    37    36    3
     7    11     3    1
     8     9     8    1
     9    34    33    1
    10    36    28    1
    11    33    27    1
    12     8     2    1
    13    19    18    1
    14     3     2   ar
    15     3     4   ar
    16    28    27   ar
    17    28    29   ar
    18    27    26   ar
    19     2     1   ar
    20     4    14    1
    21     4     5   ar
    22    18    14   ar
    23    18    17   ar
    24    26    17    1
    25    26    30   ar
    26    29    32    1
    27    29    30   ar
    28    14    15   ar
    29    21    20    1
    30    17    16   ar
    31     1     5   ar
    32     1     7    1
    33    15    16   ar
    34    15    20    1
    35    30    31    1
    36    16    23    1
    37     5     6    1
    38    22    20    1
    39    23    24    3
    40    24    25    1
