@<TRIPOS>MOLECULE
mol_data/opt/b3lyp/geoms/mol2/13he13he-13he-13he.out
 50 53 0 0 0
SMALL
GASTEIGER

@<TRIPOS>ATOM
      1 C           1.2816   -0.2701   -0.0328 C.ar    1  LIG1        0.0243
      2 C           0.8847    0.9661    0.4377 C.ar    1  LIG1        0.0584
      3 C          -0.5523    0.9546    0.5007 C.ar    1  LIG1        0.0720
      4 C          -0.9721   -0.3148    0.0600 C.ar    1  LIG1        0.0821
      5 N           0.1460   -1.0275   -0.2499 N.ar    1  LIG1       -0.3569
      6 H           0.0719   -1.9713   -0.6161 H       1  LIG1        0.1655
      7 H           2.2684   -0.6687   -0.2090 H       1  LIG1        0.0826
      8 N           1.6911    2.0302    0.8606 N.pl3   1  LIG1       -0.3559
      9 H           2.5555    2.1132    0.3401 H       1  LIG1        0.1424
     10 H           1.1934    2.9129    0.8533 H       1  LIG1        0.1424
     11 C          -1.3679    2.0208    0.9414 C.1     1  LIG1       -0.0656
     12 C          -2.0519    2.9549    1.3129 C.1     1  LIG1       -0.1138
     13 H          -2.6262    3.7598    1.7084 H       1  LIG1        0.1232
     14 C          -2.2843   -0.8812   -0.1067 C.ar    1  LIG1        0.0868
     15 C          -2.6591   -2.1539   -0.5065 C.ar    1  LIG1        0.0679
     16 C          -4.0942   -2.2000   -0.5377 C.ar    1  LIG1        0.0727
     17 C          -4.5598   -0.9361   -0.1332 C.ar    1  LIG1        0.0826
     18 N          -3.4466   -0.1655    0.1117 N.ar    1  LIG1       -0.3493
     19 H          -3.4581    0.7568    0.5253 H       1  LIG1        0.1661
     20 N          -1.7317   -3.1903   -0.8430 N.pl3   1  LIG1       -0.3553
     21 H          -1.7353   -3.9125   -0.1232 H       1  LIG1        0.1424
     22 H          -2.0262   -3.6536   -1.7010 H       1  LIG1        0.1424
     23 C          -4.8568   -3.3008   -0.9897 C.1     1  LIG1       -0.0656
     24 C          -5.4762   -4.2706   -1.3788 C.1     1  LIG1       -0.1138
     25 H          -6.0193   -5.1007   -1.7665 H       1  LIG1        0.1232
     26 C          -5.8848   -0.3923    0.0113 C.ar    1  LIG1        0.0868
     27 C          -7.0918   -0.9613    0.4287 C.ar    1  LIG1        0.0679
     28 C          -8.0643    0.0937    0.4807 C.ar    1  LIG1        0.0727
     29 C          -7.4144    1.2811    0.1008 C.ar    1  LIG1        0.0826
     30 N          -6.1133    0.9743   -0.1538 N.ar    1  LIG1       -0.3493
     31 H          -5.5122    1.6517   -0.6175 H       1  LIG1        0.1661
     32 N          -7.3252   -2.2609    0.8493 N.pl3   1  LIG1       -0.3553
     33 H          -8.3101   -2.4854    0.9110 H       1  LIG1        0.1424
     34 H          -6.8010   -2.9739    0.3551 H       1  LIG1        0.1424
     35 C          -9.4186   -0.0529    0.8580 C.1     1  LIG1       -0.0656
     36 C         -10.5827   -0.1975    1.1752 C.1     1  LIG1       -0.1138
     37 H         -11.5956   -0.3384    1.4734 H       1  LIG1        0.1232
     38 C          -7.9083    2.6175   -0.0971 C.ar    1  LIG1        0.0863
     39 C          -7.2402    3.7492   -0.5496 C.ar    1  LIG1        0.0672
     40 C          -8.1954    4.8186   -0.6178 C.ar    1  LIG1        0.0632
     41 C          -9.4129    4.2930   -0.1985 C.ar    1  LIG1        0.0195
     42 N          -9.2235    2.9798    0.1168 N.ar    1  LIG1       -0.3569
     43 H          -9.9297    2.3339    0.4418 H       1  LIG1        0.1655
     44 H         -10.3771    4.7680   -0.1063 H       1  LIG1        0.0820
     45 N          -5.8524    3.7709   -0.8888 N.pl3   1  LIG1       -0.3553
     46 H          -5.7052    4.3432   -1.7176 H       1  LIG1        0.1424
     47 H          -5.3053    4.2059   -0.1465 H       1  LIG1        0.1424
     48 C          -7.9283    6.1443   -1.0430 C.1     1  LIG1       -0.0663
     49 C          -7.6577    7.2650   -1.4153 C.1     1  LIG1       -0.1138
     50 H          -7.4395    8.2562   -1.7382 H       1  LIG1        0.1232
@<TRIPOS>BOND
     1    25    24    1
     2    50    49    1
     3    46    45    1
     4    22    20    1
     5    49    48    3
     6    24    23    3
     7    48    40    1
     8    23    16    1
     9    45    39    1
    10    45    47    1
    11    20    15    1
    12    20    21    1
    13    40    39   ar
    14    40    41   ar
    15    31    30    1
    16     6     5    1
    17    39    38   ar
    18    16    15   ar
    19    16    17   ar
    20    15    14   ar
    21     5     1   ar
    22     5     4   ar
    23     7     1    1
    24    41    44    1
    25    41    42   ar
    26    30    26   ar
    27    30    29   ar
    28    17    26    1
    29    17    18   ar
    30    14     4    1
    31    14    18   ar
    32    38    29    1
    33    38    42   ar
    34     1     2   ar
    35    26    27   ar
    36     4     3   ar
    37    29    28   ar
    38    18    19    1
    39    42    43    1
    40     9     8    1
    41    34    32    1
    42    27    28   ar
    43    27    32    1
    44     2     3   ar
    45     2     8    1
    46    28    35    1
    47     3    11    1
    48    32    33    1
    49    10     8    1
    50    35    36    3
    51    11    12    3
    52    36    37    1
    53    12    13    1
