@<TRIPOS>MOLECULE
mol_data/opt/b3lyp/geoms/mol2/13he13he13he13he.out
 50 53 0 0 0
SMALL
GASTEIGER

@<TRIPOS>ATOM
      1 C           0.8063   -0.0464    1.7097 C.ar    1  LIG1        0.0243
      2 C           0.8097    0.9898    0.8065 C.ar    1  LIG1        0.0584
      3 C          -0.4298    0.9201    0.0702 C.ar    1  LIG1        0.0720
      4 C          -1.1616   -0.1645    0.5743 C.ar    1  LIG1        0.0821
      5 N          -0.3803   -0.7582    1.5384 N.ar    1  LIG1       -0.3569
      6 H          -0.7662   -1.3600    2.2495 H       1  LIG1        0.1655
      7 H           1.5413   -0.3499    2.4387 H       1  LIG1        0.0826
      8 N           1.7815    1.9758    0.6152 N.pl3   1  LIG1       -0.3559
      9 H           2.7267    1.6611    0.7921 H       1  LIG1        0.1424
     10 H           1.7148    2.4108   -0.2974 H       1  LIG1        0.1424
     11 C          -0.7646    1.7501   -1.0228 C.1     1  LIG1       -0.0656
     12 C          -1.0217    2.4890   -1.9523 C.1     1  LIG1       -0.1138
     13 H          -1.2332    3.1062   -2.7942 H       1  LIG1        0.1232
     14 C          -2.4615   -0.6831    0.2288 C.ar    1  LIG1        0.0868
     15 C          -3.6564   -0.0546   -0.1134 C.ar    1  LIG1        0.0679
     16 C          -4.6539   -1.0789   -0.2653 C.ar    1  LIG1        0.0727
     17 C          -4.0485   -2.3181    0.0066 C.ar    1  LIG1        0.0826
     18 N          -2.7354   -2.0556    0.2940 N.ar    1  LIG1       -0.3493
     19 H          -2.0594   -2.7504    0.5665 H       1  LIG1        0.1661
     20 N          -3.9076    1.3048   -0.2122 N.pl3   1  LIG1       -0.3553
     21 H          -3.1429    1.8560   -0.5849 H       1  LIG1        0.1424
     22 H          -4.7852    1.5096   -0.6731 H       1  LIG1        0.1424
     23 C          -5.9827   -0.8484   -0.6859 C.1     1  LIG1       -0.0656
     24 C          -7.1204   -0.6093   -1.0383 C.1     1  LIG1       -0.1138
     25 H          -8.1041   -0.4094   -1.3945 H       1  LIG1        0.1232
     26 C          -4.5721   -3.6602   -0.0201 C.ar    1  LIG1        0.0868
     27 C          -5.7873   -4.1928    0.4051 C.ar    1  LIG1        0.0679
     28 C          -5.7200   -5.6178    0.2261 C.ar    1  LIG1        0.0727
     29 C          -4.4519   -5.9296   -0.2925 C.ar    1  LIG1        0.0826
     30 N          -3.7817   -4.7438   -0.4273 N.ar    1  LIG1       -0.3493
     31 H          -2.8533   -4.6601   -0.8080 H       1  LIG1        0.1661
     32 N          -6.8521   -3.5267    0.9898 N.pl3   1  LIG1       -0.3553
     33 H          -7.0232   -2.5941    0.6313 H       1  LIG1        0.1424
     34 H          -7.6960   -4.0847    1.0210 H       1  LIG1        0.1424
     35 C          -6.7873   -6.5089    0.4768 C.1     1  LIG1       -0.0656
     36 C          -7.7242   -7.2447    0.7137 C.1     1  LIG1       -0.1138
     37 H          -8.5595   -7.8864    0.8720 H       1  LIG1        0.1232
     38 C          -3.8641   -7.1860   -0.6865 C.ar    1  LIG1        0.0863
     39 C          -3.9184   -8.4560   -0.1174 C.ar    1  LIG1        0.0672
     40 C          -3.0482   -9.3080   -0.8904 C.ar    1  LIG1        0.0632
     41 C          -2.4940   -8.5293   -1.8956 C.ar    1  LIG1        0.0195
     42 N          -2.9554   -7.2549   -1.7540 N.ar    1  LIG1       -0.3569
     43 H          -2.9333   -6.5724   -2.4962 H       1  LIG1        0.1655
     44 H          -1.8232   -8.8092   -2.6932 H       1  LIG1        0.0820
     45 N          -4.5641   -8.8491    1.0433 N.pl3   1  LIG1       -0.3553
     46 H          -5.4609   -8.4057    1.2072 H       1  LIG1        0.1424
     47 H          -4.6098   -9.8554    1.1439 H       1  LIG1        0.1424
     48 C          -2.8136  -10.6803   -0.6289 C.1     1  LIG1       -0.0663
     49 C          -2.6547  -11.8534   -0.3689 C.1     1  LIG1       -0.1138
     50 H          -2.4945  -12.8841   -0.1539 H       1  LIG1        0.1232
@<TRIPOS>BOND
     1    13    12    1
     2    44    41    1
     3    43    42    1
     4    12    11    3
     5    41    42   ar
     6    41    40   ar
     7    42    38   ar
     8    25    24    1
     9    24    23    3
    10    11     3    1
    11    40    48    1
    12    40    39   ar
    13    31    30    1
    14    38    29    1
    15    38    39   ar
    16    23    16    1
    17    22    20    1
    18    48    49    3
    19    21    20    1
    20    30    29   ar
    21    30    26   ar
    22    49    50    1
    23    10     8    1
    24    29    28   ar
    25    16    15   ar
    26    16    17   ar
    27    20    15    1
    28    39    45    1
    29    15    14   ar
    30    26    17    1
    31    26    27   ar
    32    17    18   ar
    33     3     4   ar
    34     3     2   ar
    35    28    27   ar
    36    28    35    1
    37    14    18   ar
    38    14     4    1
    39    18    19    1
    40    27    32    1
    41    35    36    3
    42     4     5   ar
    43     8     9    1
    44     8     2    1
    45    33    32    1
    46    36    37    1
    47     2     1   ar
    48    32    34    1
    49    45    47    1
    50    45    46    1
    51     5     1   ar
    52     5     6    1
    53     1     7    1
