@<TRIPOS>MOLECULE
mol_data/opt/b3lyp/geoms/mol2/13he4la4fh12fh.out
 52 55 0 0 0
SMALL
GASTEIGER

@<TRIPOS>ATOM
      1 C           1.1334   -0.0041    0.7295 C.ar    1  LIG1        0.0444
      2 C           0.5935    1.2321    1.0088 C.ar    1  LIG1        0.1376
      3 C          -0.7980    1.2158    0.6913 C.ar    1  LIG1        0.0177
      4 C          -1.0726   -0.0648    0.2080 C.ar    1  LIG1        0.0713
      5 N           0.1003   -0.7950    0.2665 N.ar    1  LIG1       -0.3562
      6 H           0.2207   -1.6781   -0.2030 H       1  LIG1        0.1655
      7 H           2.1406   -0.3724    0.8391 H       1  LIG1        0.0844
      8 O           1.3063    2.2786    1.5296 O.3     1  LIG1       -0.5050
      9 H           0.6945    3.0058    1.6990 H       1  LIG1        0.2922
     10 C          -1.7608    2.3359    0.9631 C.3     1  LIG1       -0.0342
     11 H          -2.6854    2.2238    0.3922 H       1  LIG1        0.0279
     12 H          -1.3311    3.3087    0.6865 H       1  LIG1        0.0279
     13 H          -2.0335    2.3946    2.0255 H       1  LIG1        0.0279
     14 C          -2.2939   -0.6836   -0.2611 C.ar    1  LIG1        0.0883
     15 C          -3.3210   -0.2005   -1.0623 C.ar    1  LIG1        0.0943
     16 C          -4.2551   -1.2588   -1.2211 C.ar    1  LIG1        0.1636
     17 C          -3.7986   -2.3788   -0.5397 C.ar    1  LIG1        0.0924
     18 N          -2.5545   -2.0326   -0.0093 N.ar    1  LIG1       -0.3486
     19 H          -2.2266   -2.4550    0.8486 H       1  LIG1        0.1661
     20 N          -3.4528    1.0697   -1.6409 N.pl3   1  LIG1       -0.3534
     21 H          -2.5621    1.4590   -1.9310 H       1  LIG1        0.1425
     22 H          -4.1021    1.0531   -2.4201 H       1  LIG1        0.1425
     23 O          -5.3569   -1.1200   -2.0260 O.3     1  LIG1       -0.5031
     24 H          -5.6156   -1.9901   -2.3585 H       1  LIG1        0.2923
     25 C          -3.5594   -4.8387   -0.1681 C.ar    1  LIG1        0.0376
     26 C          -4.3663   -3.7057   -0.4050 C.ar    1  LIG1        0.0212
     27 C          -5.7449   -3.9470   -0.5162 C.ar    1  LIG1       -0.0336
     28 C          -6.2554   -5.2450   -0.3789 C.ar    1  LIG1        0.0513
     29 C          -5.3484   -6.2959   -0.0861 C.ar    1  LIG1        0.0876
     30 N          -4.0271   -6.0733   -0.0082 N.ar    1  LIG1       -0.2531
     31 H          -6.4378   -3.1289   -0.6840 H       1  LIG1        0.0637
     32 H          -2.4771   -4.7299   -0.1219 H       1  LIG1        0.0836
     33 C          -7.6518   -5.4684   -0.5790 C.1     1  LIG1       -0.0675
     34 C          -8.8337   -5.6141   -0.7910 C.1     1  LIG1       -0.1138
     35 H          -9.8754   -5.7668   -0.9536 H       1  LIG1        0.1232
     36 C          -6.6665   -8.1106    1.1320 C.ar    1  LIG1        0.0341
     37 C          -7.0081   -9.4686    1.2346 C.ar    1  LIG1       -0.0422
     38 C          -5.7832   -7.7119    0.0942 C.ar    1  LIG1        0.0204
     39 C          -6.5010  -10.4231    0.3572 C.ar    1  LIG1       -0.0188
     40 H          -7.6778   -9.7765    2.0308 H       1  LIG1        0.0631
     41 C          -5.2580   -8.6743   -0.7635 C.ar    1  LIG1       -0.0096
     42 C          -5.6121  -10.0243   -0.6479 C.ar    1  LIG1        0.1208
     43 H          -4.5602   -8.3855   -1.5413 H       1  LIG1        0.0661
     44 H          -6.7931  -11.4598    0.4716 H       1  LIG1        0.0654
     45 C          -7.1666   -7.1920    2.1053 C.1     1  LIG1       -0.0690
     46 C          -7.5910   -6.4508    2.9631 C.1     1  LIG1       -0.1139
     47 H          -7.9650   -5.7821    3.7028 H       1  LIG1        0.1232
     48 O          -5.0411  -10.8634   -1.5581 O.3     1  LIG1       -0.4951
     49 C          -5.3493  -12.2471   -1.4834 C.3     1  LIG1        0.0788
     50 H          -4.7888  -12.7234   -2.2888 H       1  LIG1        0.0660
     51 H          -5.0394  -12.6795   -0.5236 H       1  LIG1        0.0660
     52 H          -6.4208  -12.4324   -1.6314 H       1  LIG1        0.0660
@<TRIPOS>BOND
     1    22    20    1
     2    24    23    1
     3    50    49    1
     4    23    16    1
     5    21    20    1
     6    20    15    1
     7    52    49    1
     8    48    49    1
     9    48    42    1
    10    43    41    1
    11    49    51    1
    12    16    15   ar
    13    16    17   ar
    14    15    14   ar
    15    35    34    1
    16    34    33    3
    17    41    42   ar
    18    41    38   ar
    19    31    27    1
    20    42    39   ar
    21    33    28    1
    22    17    26    1
    23    17    18   ar
    24    27    26   ar
    25    27    28   ar
    26    26    25   ar
    27    28    29   ar
    28    14    18   ar
    29    14     4    1
    30     6     5    1
    31    25    32    1
    32    25    30   ar
    33    29    30   ar
    34    29    38    1
    35    18    19    1
    36    38    36   ar
    37     4     5   ar
    38     4     3   ar
    39     5     1   ar
    40    39    44    1
    41    39    37   ar
    42    11    10    1
    43    12    10    1
    44     3    10    1
    45     3     2   ar
    46     1     7    1
    47     1     2   ar
    48    10    13    1
    49     2     8    1
    50    36    37   ar
    51    36    45    1
    52    37    40    1
    53     8     9    1
    54    45    46    3
    55    46    47    1
