@<TRIPOS>MOLECULE
mol_data/opt/b3lyp/geoms/mol2/13he13he13he13he-.out
 50 53 0 0 0
SMALL
GASTEIGER

@<TRIPOS>ATOM
      1 C           0.7438    0.0775    1.7327 C.ar    1  LIG1        0.0243
      2 C           0.7411    1.0698    0.7815 C.ar    1  LIG1        0.0584
      3 C          -0.4866    0.9432    0.0332 C.ar    1  LIG1        0.0720
      4 C          -1.2062   -0.1301    0.5787 C.ar    1  LIG1        0.0821
      5 N          -0.4274   -0.6633    1.5792 N.ar    1  LIG1       -0.3569
      6 H          -0.8118   -1.2429    2.3092 H       1  LIG1        0.1655
      7 H           1.4744   -0.1782    2.4841 H       1  LIG1        0.0826
      8 N           1.6985    2.0633    0.5561 N.pl3   1  LIG1       -0.3559
      9 H           2.6466    1.7718    0.7558 H       1  LIG1        0.1424
     10 H           1.6348    2.4536   -0.3768 H       1  LIG1        0.1424
     11 C          -0.8189    1.7135   -1.1032 C.1     1  LIG1       -0.0656
     12 C          -1.0740    2.4019   -2.0713 C.1     1  LIG1       -0.1138
     13 H          -1.2822    2.9719   -2.9466 H       1  LIG1        0.1232
     14 C          -2.4912   -0.6896    0.2442 C.ar    1  LIG1        0.0868
     15 C          -3.6908   -0.1044   -0.1538 C.ar    1  LIG1        0.0679
     16 C          -4.6694   -1.1530   -0.2554 C.ar    1  LIG1        0.0727
     17 C          -4.0466   -2.3627    0.1030 C.ar    1  LIG1        0.0826
     18 N          -2.7462   -2.0575    0.4011 N.ar    1  LIG1       -0.3493
     19 H          -2.0449   -2.7370    0.6470 H       1  LIG1        0.1661
     20 N          -3.9652    1.2420   -0.3357 N.pl3   1  LIG1       -0.3553
     21 H          -3.2046    1.7848   -0.7289 H       1  LIG1        0.1424
     22 H          -4.8383    1.4016   -0.8226 H       1  LIG1        0.1424
     23 C          -5.9906   -0.9643   -0.7175 C.1     1  LIG1       -0.0656
     24 C          -7.1199   -0.7533   -1.1130 C.1     1  LIG1       -0.1138
     25 H          -8.0936   -0.5822   -1.5094 H       1  LIG1        0.1232
     26 C          -4.5339   -3.7175    0.1490 C.ar    1  LIG1        0.0868
     27 C          -5.7706   -4.2506    0.5252 C.ar    1  LIG1        0.0679
     28 C          -5.6497   -5.6808    0.4797 C.ar    1  LIG1        0.0727
     29 C          -4.3338   -5.9773    0.0847 C.ar    1  LIG1        0.0826
     30 N          -3.6808   -4.7962   -0.0886 N.ar    1  LIG1       -0.3493
     31 H          -2.7647   -4.7863   -0.5299 H       1  LIG1        0.1661
     32 N          -6.8883   -3.5751    0.9876 N.pl3   1  LIG1       -0.3553
     33 H          -7.0486   -2.6682    0.5637 H       1  LIG1        0.1424
     34 H          -7.7233   -4.1469    0.9908 H       1  LIG1        0.1424
     35 C          -6.6738   -6.6041    0.7913 C.1     1  LIG1       -0.0656
     36 C          -7.5667   -7.3851    1.0547 C.1     1  LIG1       -0.1138
     37 H          -8.3571   -8.0551    1.3017 H       1  LIG1        0.1232
     38 C          -3.6769   -7.2288   -0.1860 C.ar    1  LIG1        0.0863
     39 C          -2.3931   -7.4734   -0.6577 C.ar    1  LIG1        0.0672
     40 C          -2.2356   -8.8963   -0.7708 C.ar    1  LIG1        0.0632
     41 C          -3.4367   -9.4636   -0.3607 C.ar    1  LIG1        0.0195
     42 N          -4.2868   -8.4548   -0.0127 N.ar    1  LIG1       -0.3569
     43 H          -5.2374   -8.5587    0.3149 H       1  LIG1        0.1655
     44 H          -3.7271  -10.5007   -0.2973 H       1  LIG1        0.0820
     45 N          -1.4491   -6.4419   -0.9704 N.pl3   1  LIG1       -0.3553
     46 H          -0.6205   -6.5378   -0.3844 H       1  LIG1        0.1424
     47 H          -1.1196   -6.5531   -1.9283 H       1  LIG1        0.1424
     48 C          -1.0723   -9.5713   -1.2191 C.1     1  LIG1       -0.0663
     49 C          -0.0591  -10.1097   -1.6081 C.1     1  LIG1       -0.1138
     50 H           0.8223  -10.6013   -1.9483 H       1  LIG1        0.1232
@<TRIPOS>BOND
     1    13    12    1
     2    12    11    3
     3    50    49    1
     4    47    45    1
     5    49    48    3
     6    25    24    1
     7    48    40    1
     8    24    23    3
     9    11     3    1
    10    45    39    1
    11    45    46    1
    12    22    20    1
    13    40    39   ar
    14    40    41   ar
    15    21    20    1
    16    23    16    1
    17    39    38   ar
    18    31    30    1
    19    10     8    1
    20    41    44    1
    21    41    42   ar
    22    20    15    1
    23    16    15   ar
    24    16    17   ar
    25    38    42   ar
    26    38    29    1
    27    15    14   ar
    28    30    29   ar
    29    30    26   ar
    30    42    43    1
    31     3     4   ar
    32     3     2   ar
    33    29    28   ar
    34    17    26    1
    35    17    18   ar
    36    26    27   ar
    37    14    18   ar
    38    14     4    1
    39    18    19    1
    40    28    27   ar
    41    28    35    1
    42    27    32    1
    43     8     9    1
    44     8     2    1
    45    33    32    1
    46     4     5   ar
    47     2     1   ar
    48    35    36    3
    49    32    34    1
    50    36    37    1
    51     5     1   ar
    52     5     6    1
    53     1     7    1
