@<TRIPOS>MOLECULE
mol_data/opt/b3lyp/geoms/mol2/13he13he-13he13he-.out
 50 53 0 0 0
SMALL
GASTEIGER

@<TRIPOS>ATOM
      1 C           1.3427   -0.3171   -0.0382 C.ar    1  LIG1        0.0243
      2 C           0.9796    1.0094    0.0872 C.ar    1  LIG1        0.0584
      3 C          -0.4570    1.0556    0.1188 C.ar    1  LIG1        0.0720
      4 C          -0.9135   -0.2714    0.0142 C.ar    1  LIG1        0.0821
      5 N           0.1865   -1.0722   -0.0747 N.ar    1  LIG1       -0.3569
      6 H           0.0873   -2.0746   -0.2015 H       1  LIG1        0.1655
      7 H           2.3182   -0.7759   -0.0804 H       1  LIG1        0.0826
      8 N           1.8139    2.1248    0.2380 N.pl3   1  LIG1       -0.3559
      9 H           2.6746    2.0593   -0.2912 H       1  LIG1        0.1424
     10 H           1.3331    2.9890    0.0159 H       1  LIG1        0.1424
     11 C          -1.2388    2.2265    0.2358 C.1     1  LIG1       -0.0656
     12 C          -1.8877    3.2498    0.3232 C.1     1  LIG1       -0.1138
     13 H          -2.4612    4.1365    0.4571 H       1  LIG1        0.1232
     14 C          -2.2388   -0.8325   -0.0405 C.ar    1  LIG1        0.0868
     15 C          -2.6247   -2.1647   -0.1238 C.ar    1  LIG1        0.0679
     16 C          -4.0547   -2.2039   -0.1988 C.ar    1  LIG1        0.0727
     17 C          -4.5031   -0.8719   -0.1554 C.ar    1  LIG1        0.0826
     18 N          -3.3910   -0.0725   -0.0592 N.ar    1  LIG1       -0.3493
     19 H          -3.4402    0.9334    0.0701 H       1  LIG1        0.1661
     20 N          -1.7124   -3.2664   -0.1383 N.pl3   1  LIG1       -0.3553
     21 H          -1.7022   -3.7289    0.7706 H       1  LIG1        0.1424
     22 H          -2.0283   -3.9685   -0.8044 H       1  LIG1        0.1424
     23 C          -4.8399   -3.3761   -0.2934 C.1     1  LIG1       -0.0656
     24 C          -5.4837   -4.4025   -0.3696 C.1     1  LIG1       -0.1138
     25 H          -6.0528   -5.3014   -0.4103 H       1  LIG1        0.1232
     26 C          -5.8262   -0.3114   -0.1878 C.ar    1  LIG1        0.0868
     27 C          -6.2189    1.0220   -0.2568 C.ar    1  LIG1        0.0679
     28 C          -7.6481    1.0590   -0.2040 C.ar    1  LIG1        0.0727
     29 C          -8.0907   -0.2741   -0.1152 C.ar    1  LIG1        0.0826
     30 N          -6.9823   -1.0735   -0.1287 N.ar    1  LIG1       -0.3493
     31 H          -7.0266   -2.0800   -0.0033 H       1  LIG1        0.1661
     32 N          -5.3370    2.1265   -0.3481 N.pl3   1  LIG1       -0.3553
     33 H          -4.9413    2.2200   -1.2814 H       1  LIG1        0.1424
     34 H          -5.8269    2.9904   -0.1346 H       1  LIG1        0.1424
     35 C          -8.4445    2.2268   -0.2446 C.1     1  LIG1       -0.0656
     36 C          -9.1085    3.2439   -0.2718 C.1     1  LIG1       -0.1138
     37 H          -9.6809    4.1413   -0.3160 H       1  LIG1        0.1232
     38 C          -9.4177   -0.8192   -0.0144 C.ar    1  LIG1        0.0863
     39 C          -9.8470   -2.1415   -0.0281 C.ar    1  LIG1        0.0672
     40 C         -11.2678   -2.1383    0.1696 C.ar    1  LIG1        0.0632
     41 C         -11.6534   -0.8062    0.2881 C.ar    1  LIG1        0.0195
     42 N         -10.5422   -0.0306    0.1634 N.ar    1  LIG1       -0.3569
     43 H         -10.5107    0.9786    0.1979 H       1  LIG1        0.1655
     44 H         -12.6323   -0.3807    0.4444 H       1  LIG1        0.0820
     45 N          -8.9987   -3.2665   -0.1914 N.pl3   1  LIG1       -0.3553
     46 H          -9.4725   -4.1081    0.1257 H       1  LIG1        0.1424
     47 H          -8.7540   -3.4091   -1.1697 H       1  LIG1        0.1424
     48 C         -12.0916   -3.2898    0.2296 C.1     1  LIG1       -0.0663
     49 C         -12.7529   -4.3043    0.2743 C.1     1  LIG1       -0.1138
     50 H         -13.3551   -5.1817    0.3165 H       1  LIG1        0.1232
@<TRIPOS>BOND
     1    33    32    1
     2    47    45    1
     3    22    20    1
     4    25    24    1
     5    24    23    3
     6    32    27    1
     7    32    34    1
     8    37    36    1
     9    23    16    1
    10     9     8    1
    11    36    35    3
    12    27    28   ar
    13    27    26   ar
    14    35    28    1
    15    28    29   ar
    16     6     5    1
    17    16    17   ar
    18    16    15   ar
    19    45    39    1
    20    45    46    1
    21    26    17    1
    22    26    30   ar
    23    17    18   ar
    24    20    15    1
    25    20    21    1
    26    30    29   ar
    27    30    31    1
    28    15    14   ar
    29    29    38    1
    30     7     1    1
    31     5     1   ar
    32     5     4   ar
    33    18    14   ar
    34    18    19    1
    35    14     4    1
    36     1     2   ar
    37    39    38   ar
    38    39    40   ar
    39    38    42   ar
    40     4     3   ar
    41    10     8    1
    42     2     3   ar
    43     2     8    1
    44     3    11    1
    45    42    43    1
    46    42    41   ar
    47    40    48    1
    48    40    41   ar
    49    48    49    3
    50    11    12    3
    51    49    50    1
    52    41    44    1
    53    12    13    1
