@<TRIPOS>MOLECULE
mol_data/opt/b3lyp/geoms/mol2/13he13he13he-13he.out
 50 53 0 0 0
SMALL
GASTEIGER

@<TRIPOS>ATOM
      1 C           1.1300   -0.2525   -0.9705 C.ar    1  LIG1        0.0243
      2 C           0.9486    0.9789   -0.3864 C.ar    1  LIG1        0.0584
      3 C          -0.4210    1.0461    0.0634 C.ar    1  LIG1        0.0720
      4 C          -1.0366   -0.1721   -0.2740 C.ar    1  LIG1        0.0821
      5 N          -0.0718   -0.9459   -0.8726 N.ar    1  LIG1       -0.3569
      6 H          -0.2899   -1.7731   -1.4045 H       1  LIG1        0.1655
      7 H           2.0083   -0.7076   -1.4009 H       1  LIG1        0.0826
      8 N           1.8991    1.9787   -0.1528 N.pl3   1  LIG1       -0.3559
      9 H           2.5908    2.0636   -0.8868 H       1  LIG1        0.1424
     10 H           1.4673    2.8763    0.0339 H       1  LIG1        0.1424
     11 C          -0.9646    2.1457    0.7649 C.1     1  LIG1       -0.0656
     12 C          -1.3834    3.1327    1.3356 C.1     1  LIG1       -0.1138
     13 H          -1.7580    3.9529    1.9022 H       1  LIG1        0.1232
     14 C          -2.3788   -0.6747   -0.1127 C.ar    1  LIG1        0.0868
     15 C          -3.6307   -0.0512   -0.1237 C.ar    1  LIG1        0.0679
     16 C          -4.6262   -1.0852   -0.0920 C.ar    1  LIG1        0.0727
     17 C          -3.9491   -2.3164   -0.0550 C.ar    1  LIG1        0.0826
     18 N          -2.6133   -2.0492   -0.0773 N.ar    1  LIG1       -0.3493
     19 H          -1.9399   -2.7934    0.0801 H       1  LIG1        0.1661
     20 N          -3.9293    1.2977   -0.1372 N.pl3   1  LIG1       -0.3553
     21 H          -3.1586    1.9333   -0.2836 H       1  LIG1        0.1424
     22 H          -4.7770    1.5430   -0.6290 H       1  LIG1        0.1424
     23 C          -6.0241   -0.8799   -0.1038 C.1     1  LIG1       -0.0656
     24 C          -7.2228   -0.6873   -0.1285 C.1     1  LIG1       -0.1138
     25 H          -8.2738   -0.5210   -0.0945 H       1  LIG1        0.1232
     26 C          -4.4249   -3.6716    0.0259 C.ar    1  LIG1        0.0868
     27 C          -3.6998   -4.8498    0.1628 C.ar    1  LIG1        0.0679
     28 C          -4.6323   -5.9376    0.1768 C.ar    1  LIG1        0.0727
     29 C          -5.9151   -5.3774    0.0468 C.ar    1  LIG1        0.0826
     30 N          -5.7600   -4.0189   -0.0433 N.ar    1  LIG1       -0.3493
     31 H          -6.5421   -3.3708   -0.0641 H       1  LIG1        0.1661
     32 N          -2.2731   -4.9054    0.2721 N.pl3   1  LIG1       -0.3553
     33 H          -2.0042   -5.2196    1.2041 H       1  LIG1        0.1424
     34 H          -1.8995   -5.5999   -0.3726 H       1  LIG1        0.1424
     35 C          -4.3089   -7.3095    0.2972 C.1     1  LIG1       -0.0656
     36 C          -4.0159   -8.4832    0.4077 C.1     1  LIG1       -0.1138
     37 H          -3.7413   -9.5088    0.4941 H       1  LIG1        0.1232
     38 C          -7.2153   -5.9916    0.0163 C.ar    1  LIG1        0.0863
     39 C          -8.4662   -5.4300   -0.2158 C.ar    1  LIG1        0.0672
     40 C          -9.4428   -6.4696   -0.0638 C.ar    1  LIG1        0.0632
     41 C          -8.7452   -7.6335    0.2462 C.ar    1  LIG1        0.0195
     42 N          -7.4179   -7.3368    0.2783 N.ar    1  LIG1       -0.3569
     43 H          -6.6650   -7.9833    0.4676 H       1  LIG1        0.1655
     44 H          -9.1123   -8.6305    0.4334 H       1  LIG1        0.0820
     45 N          -8.7000   -4.0662   -0.5224 N.pl3   1  LIG1       -0.3553
     46 H          -8.4781   -3.8569   -1.4940 H       1  LIG1        0.1424
     47 H          -9.6809   -3.8404   -0.3815 H       1  LIG1        0.1424
     48 C         -10.8431   -6.3081   -0.2090 C.1     1  LIG1       -0.0663
     49 C         -12.0325   -6.1181   -0.3431 C.1     1  LIG1       -0.1138
     50 H         -13.0818   -5.9756   -0.4564 H       1  LIG1        0.1232
@<TRIPOS>BOND
     1    46    45    1
     2     6     5    1
     3     7     1    1
     4     1     5   ar
     5     1     2   ar
     6     9     8    1
     7     5     4   ar
     8    22    20    1
     9    45    47    1
    10    45    39    1
    11    50    49    1
    12     2     8    1
    13     2     3   ar
    14    34    32    1
    15    49    48    3
    16    21    20    1
    17     4    14    1
    18     4     3   ar
    19    39    40   ar
    20    39    38   ar
    21    48    40    1
    22     8    10    1
    23    20    15    1
    24    24    23    3
    25    24    25    1
    26    15    14   ar
    27    15    16   ar
    28    14    18   ar
    29    23    16    1
    30    16    17   ar
    31    18    17   ar
    32    18    19    1
    33    31    30    1
    34    40    41   ar
    35    17    26    1
    36    30    26   ar
    37    30    29   ar
    38    38    29    1
    39    38    42   ar
    40    26    27   ar
    41    29    28   ar
    42     3    11    1
    43    27    28   ar
    44    27    32    1
    45    28    35    1
    46    41    42   ar
    47    41    44    1
    48    32    33    1
    49    42    43    1
    50    35    36    3
    51    36    37    1
    52    11    12    3
    53    12    13    1
