@<TRIPOS>MOLECULE
mol_data/opt/b3lyp/geoms/mol2/13he6ff-13dl6ia-.out
 50 53 0 0 0
SMALL
GASTEIGER

@<TRIPOS>ATOM
      1 C           1.2994   -0.3678    0.6435 C.ar    1  LIG1        0.0242
      2 C           1.1080    0.8529    0.0328 C.ar    1  LIG1        0.0583
      3 C          -0.2864    0.9407   -0.3161 C.ar    1  LIG1        0.0707
      4 C          -0.9047   -0.2451    0.1014 C.ar    1  LIG1        0.0691
      5 N           0.0867   -1.0413    0.6414 N.ar    1  LIG1       -0.3579
      6 H          -0.1155   -1.8208    1.2508 H       1  LIG1        0.1654
      7 H           2.1882   -0.8169    1.0585 H       1  LIG1        0.0826
      8 N           2.0378    1.8654   -0.1891 N.pl3   1  LIG1       -0.3559
      9 H           2.9790    1.5429   -0.3695 H       1  LIG1        0.1424
     10 H           1.7349    2.5297   -0.8910 H       1  LIG1        0.1424
     11 C          -0.8580    2.0298   -1.0163 C.1     1  LIG1       -0.0657
     12 C          -1.2849    2.9909   -1.6197 C.1     1  LIG1       -0.1138
     13 H          -1.6892    3.8255   -2.1441 H       1  LIG1        0.1232
     14 C          -2.6726   -2.0401   -0.1008 C.ar    1  LIG1        0.2225
     15 C          -2.2970   -0.6729    0.0295 C.ar    1  LIG1        0.0644
     16 C          -3.3503    0.2365    0.0812 C.ar    1  LIG1       -0.0037
     17 C          -4.6902   -0.1732    0.0434 C.ar    1  LIG1        0.1451
     18 C          -4.9520   -1.5584   -0.0305 C.ar    1  LIG1        0.1335
     19 N          -3.9198   -2.4373   -0.1157 N.ar    1  LIG1       -0.2072
     20 H          -3.1554    1.2985    0.1691 H       1  LIG1        0.0663
     21 O          -1.7445   -3.0410   -0.2029 O.3     1  LIG1       -0.4919
     22 H          -0.9166   -2.6570   -0.5305 H       1  LIG1        0.2937
     23 O          -5.5865    0.8400    0.0968 O.3     1  LIG1       -0.5045
     24 H          -6.5135    0.5590    0.1064 H       1  LIG1        0.2922
     25 C          -6.2538   -2.2403   -0.0546 C.ar    1  LIG1        0.0904
     26 C          -7.6183   -1.8909    0.0255 C.ar    1  LIG1        0.1207
     27 C          -8.3740   -3.1037   -0.0794 C.ar    1  LIG1        0.1633
     28 C          -7.4821   -4.1632   -0.2112 C.ar    1  LIG1        0.0922
     29 N          -6.2260   -3.5955   -0.1928 N.ar    1  LIG1       -0.3488
     30 H          -5.3296   -4.0554   -0.2922 H       1  LIG1        0.1661
     31 N          -8.6886    0.4412    0.2823 N.1     1  LIG1       -0.1907
     32 C          -8.1981   -0.6125    0.1635 C.1     1  LIG1        0.1050
     33 O          -9.7318   -3.2019   -0.0985 O.3     1  LIG1       -0.4917
     34 C         -10.3881   -2.9421    1.1523 C.3     1  LIG1        0.0789
     35 H         -11.4535   -3.0920    0.9715 H       1  LIG1        0.0660
     36 H         -10.0426   -3.6396    1.9238 H       1  LIG1        0.0660
     37 H         -10.2195   -1.9129    1.4850 H       1  LIG1        0.0660
     38 C          -6.8956   -6.6245    0.0970 C.ar    1  LIG1        0.0474
     39 C          -7.7476   -5.5955   -0.3831 C.ar    1  LIG1        0.0229
     40 C          -8.9226   -5.9857   -1.0499 C.ar    1  LIG1       -0.0494
     41 C          -9.2054   -7.3336   -1.2273 C.ar    1  LIG1       -0.0430
     42 C          -8.2943   -8.2654   -0.7356 C.ar    1  LIG1        0.0279
     43 N          -7.1762   -7.9233   -0.0888 N.ar    1  LIG1       -0.2595
     44 H          -9.5993   -5.2242   -1.4192 H       1  LIG1        0.0625
     45 H          -8.4684   -9.3330   -0.8578 H       1  LIG1        0.0829
     46 C          -5.6219   -6.3608    0.8674 C.3     1  LIG1       -0.0217
     47 H          -5.7285   -5.5404    1.5826 H       1  LIG1        0.0293
     48 H          -4.7828   -6.1180    0.2018 H       1  LIG1        0.0293
     49 H          -5.3491   -7.2715    1.4021 H       1  LIG1        0.0293
     50 H         -10.1057   -7.6537   -1.7417 H       1  LIG1        0.0633
@<TRIPOS>BOND
     1    13    12    1
     2    50    41    1
     3    12    11    3
     4    44    40    1
     5    41    40   ar
     6    41    42   ar
     7    40    39   ar
     8    11     3    1
     9    10     8    1
    10    45    42    1
    11    42    43   ar
    12    22    21    1
    13    39    28    1
    14    39    38   ar
    15     9     8    1
    16     3     2   ar
    17     3     4   ar
    18    30    29    1
    19    28    29   ar
    20    28    27   ar
    21    21    14    1
    22    29    25   ar
    23     8     2    1
    24    19    14   ar
    25    19    18   ar
    26    14    15   ar
    27    33    27    1
    28    33    34    1
    29    43    38   ar
    30    27    26   ar
    31    25    18    1
    32    25    26   ar
    33    18    17   ar
    34    26    32    1
    35    15    16   ar
    36    15     4    1
    37     2     1   ar
    38    17    16   ar
    39    17    23    1
    40    16    20    1
    41    23    24    1
    42    38    46    1
    43     4     5   ar
    44    32    31    3
    45    48    46    1
    46     5     1   ar
    47     5     6    1
    48     1     7    1
    49    46    49    1
    50    46    47    1
    51    35    34    1
    52    34    37    1
    53    34    36    1
