@<TRIPOS>MOLECULE
mol_data/opt/b3lyp/geoms/mol2/13he6ai12lh-6fe.out
 51 54 0 0 0
SMALL
GASTEIGER

@<TRIPOS>ATOM
      1 C           1.2172    0.1479    1.2864 C.ar    1  LIG1        0.0242
      2 C           1.0945    1.1334    0.3274 C.ar    1  LIG1        0.0583
      3 C          -0.2199    1.0101   -0.2405 C.ar    1  LIG1        0.0705
      4 C          -0.8613   -0.0645    0.4019 C.ar    1  LIG1        0.0653
      5 N           0.0384   -0.5718    1.3026 N.ar    1  LIG1       -0.3580
      6 H          -0.1866   -1.2752    1.9869 H       1  LIG1        0.1654
      7 H           2.0306   -0.0878    1.9546 H       1  LIG1        0.0826
      8 N           2.0187    2.1210   -0.0181 N.pl3   1  LIG1       -0.3559
      9 H           2.9827    1.8162    0.0201 H       1  LIG1        0.1424
     10 H           1.8115    2.5432   -0.9157 H       1  LIG1        0.1424
     11 C          -0.6916    1.8186   -1.3016 C.1     1  LIG1       -0.0657
     12 C          -1.0239    2.5476   -2.2128 C.1     1  LIG1       -0.1138
     13 H          -1.3350    3.1747   -3.0156 H       1  LIG1        0.1232
     14 C          -2.4594   -1.9753    0.6079 C.ar    1  LIG1        0.0375
     15 C          -2.1840   -0.6466    0.2281 C.ar    1  LIG1        0.0179
     16 C          -3.2534    0.0650   -0.3377 C.ar    1  LIG1       -0.0461
     17 C          -4.5179   -0.5071   -0.4725 C.ar    1  LIG1       -0.0207
     18 C          -4.6854   -1.8214    0.0288 C.ar    1  LIG1        0.1126
     19 N          -3.6570   -2.5383    0.5289 N.ar    1  LIG1       -0.2508
     20 H          -3.0891    1.0752   -0.6966 H       1  LIG1        0.0628
     21 H          -1.6622   -2.6204    0.9758 H       1  LIG1        0.0836
     22 C          -5.6128    0.2555   -1.1748 C.3     1  LIG1       -0.0376
     23 H          -6.3901    0.5943   -0.4856 H       1  LIG1        0.0278
     24 H          -6.1139   -0.3760   -1.9158 H       1  LIG1        0.0278
     25 H          -5.1990    1.1262   -1.6895 H       1  LIG1        0.0278
     26 C          -5.9634   -2.5368    0.0052 C.ar    1  LIG1        0.1973
     27 C          -7.2876   -2.2171    0.2018 C.ar    1  LIG1        0.1886
     28 C          -8.0652   -3.4134    0.0712 C.ar    1  LIG1        0.1142
     29 C          -7.1672   -4.4315   -0.1684 C.ar    1  LIG1        0.1652
     30 O          -5.8946   -3.8891   -0.2082 O.2     1  LIG1       -0.4474
     31 O          -7.8461   -1.0010    0.4906 O.3     1  LIG1       -0.4896
     32 C          -7.9353   -0.7258    1.8995 C.3     1  LIG1        0.0791
     33 H          -6.9381   -0.6783    2.3502 H       1  LIG1        0.0660
     34 H          -8.4275    0.2440    1.9918 H       1  LIG1        0.0660
     35 H          -8.5282   -1.4916    2.4121 H       1  LIG1        0.0660
     36 N          -9.4524   -3.4444    0.2211 N.pl3   1  LIG1       -0.3522
     37 H          -9.8479   -2.5182    0.0966 H       1  LIG1        0.1425
     38 H          -9.9155   -4.1085   -0.3886 H       1  LIG1        0.1425
     39 C          -6.2611   -6.6691   -0.9469 C.ar    1  LIG1        0.2234
     40 C          -7.2995   -5.8609   -0.3837 C.ar    1  LIG1        0.0817
     41 C          -8.4893   -6.5189   -0.0519 C.ar    1  LIG1       -0.0290
     42 C          -8.6560   -7.8858   -0.3216 C.ar    1  LIG1        0.0437
     43 C          -7.5756   -8.5506   -0.9253 C.ar    1  LIG1        0.0468
     44 N          -6.4177   -7.9621   -1.2147 N.ar    1  LIG1       -0.2196
     45 H          -9.2853   -5.9784    0.4477 H       1  LIG1        0.0639
     46 H          -7.6599   -9.6063   -1.1726 H       1  LIG1        0.0843
     47 O          -5.0430   -6.1878   -1.2526 O.3     1  LIG1       -0.4919
     48 H          -4.9611   -5.2678   -0.9481 H       1  LIG1        0.2937
     49 C          -9.8626   -8.5738    0.0027 C.1     1  LIG1       -0.0681
     50 C         -10.8857   -9.1614    0.2734 C.1     1  LIG1       -0.1139
     51 H         -11.7828   -9.6831    0.5135 H       1  LIG1        0.1232
@<TRIPOS>BOND
     1    13    12    1
     2    12    11    3
     3    24    22    1
     4    25    22    1
     5    11     3    1
     6    47    48    1
     7    47    39    1
     8    44    39   ar
     9    44    43   ar
    10    22    23    1
    11    22    17    1
    12    46    43    1
    13    39    40   ar
    14    43    42   ar
    15    10     8    1
    16    20    16    1
    17    17    16   ar
    18    17    18   ar
    19    38    36    1
    20    40    29    1
    21    40    41   ar
    22    16    15   ar
    23    42    41   ar
    24    42    49    1
    25     3     2   ar
    26     3     4   ar
    27    30    29   ar
    28    30    26   ar
    29    29    28   ar
    30    41    45    1
    31     8     9    1
    32     8     2    1
    33    49    50    3
    34    26    18    1
    35    26    27   ar
    36    18    19   ar
    37    28    27   ar
    38    28    36    1
    39    37    36    1
    40    27    31    1
    41    15     4    1
    42    15    14   ar
    43    50    51    1
    44     2     1   ar
    45     4     5   ar
    46    31    32    1
    47    19    14   ar
    48    14    21    1
    49     1     5   ar
    50     1     7    1
    51     5     6    1
    52    32    34    1
    53    32    33    1
    54    32    35    1
