@<TRIPOS>MOLECULE
mol_data/opt/b3lyp/geoms/mol2/13he12eh6ll-4ei-.out
 57 60 0 0 0
SMALL
GASTEIGER

@<TRIPOS>ATOM
      1 C           1.2404   -0.0884   -0.4063 C.ar    1  LIG1        0.0243
      2 C           0.9147    1.2103   -0.0598 C.ar    1  LIG1        0.0584
      3 C          -0.5098    1.2644    0.1147 C.ar    1  LIG1        0.0736
      4 C          -1.0047   -0.0288   -0.1423 C.ar    1  LIG1        0.1008
      5 N           0.0738   -0.8163   -0.4511 N.ar    1  LIG1       -0.3556
      6 H          -0.0155   -1.7984   -0.6620 H       1  LIG1        0.1655
      7 H           2.1980   -0.5414   -0.6106 H       1  LIG1        0.0826
      8 N           1.7811    2.2818    0.1717 N.pl3   1  LIG1       -0.3559
      9 H           2.5742    2.3130   -0.4562 H       1  LIG1        0.1424
     10 H           1.2924    3.1697    0.1764 H       1  LIG1        0.1424
     11 C          -1.1911    2.4277    0.5386 C.1     1  LIG1       -0.0656
     12 C          -1.6760    3.4741    0.9131 C.1     1  LIG1       -0.1138
     13 H          -2.1440    4.3643    1.2627 H       1  LIG1        0.1232
     14 C          -2.3075   -0.6326   -0.1276 C.ar    1  LIG1        0.1702
     15 C          -3.6245   -0.2019   -0.2143 C.ar    1  LIG1        0.0931
     16 C          -4.4350   -1.3950   -0.2008 C.ar    1  LIG1        0.0874
     17 C          -3.5762   -2.4708   -0.1232 C.ar    1  LIG1        0.1627
     18 O          -2.2808   -1.9916   -0.0775 O.2     1  LIG1       -0.4500
     19 C          -4.1635    1.0901   -0.4087 C.1     1  LIG1       -0.0639
     20 C          -4.7343    2.1402   -0.6094 C.1     1  LIG1       -0.1137
     21 H          -5.1819    3.0920   -0.7762 H       1  LIG1        0.1232
     22 N          -5.8265   -1.3912   -0.2472 N.pl3   1  LIG1       -0.3541
     23 H          -6.1907   -0.4986   -0.5636 H       1  LIG1        0.1425
     24 H          -6.2205   -2.1578   -0.7802 H       1  LIG1        0.1425
     25 C          -2.8879   -4.8855   -0.5014 C.ar    1  LIG1        0.2262
     26 C          -3.8089   -3.8989   -0.0581 C.ar    1  LIG1        0.0841
     27 C          -5.0183   -4.3867    0.4643 C.ar    1  LIG1       -0.0020
     28 C          -5.2846   -5.7568    0.5019 C.ar    1  LIG1        0.1469
     29 C          -4.3237   -6.6431   -0.0186 C.ar    1  LIG1        0.1175
     30 N          -3.1448   -6.1805   -0.4728 N.ar    1  LIG1       -0.2086
     31 H          -5.7245   -3.6785    0.8799 H       1  LIG1        0.0663
     32 O          -1.6910   -4.4691   -0.9984 O.3     1  LIG1       -0.4792
     33 C          -0.8168   -5.4863   -1.4906 C.3     1  LIG1        0.0804
     34 H           0.0536   -4.9558   -1.8811 H       1  LIG1        0.0660
     35 H          -0.5142   -6.1718   -0.6935 H       1  LIG1        0.0660
     36 H          -1.2918   -6.0704   -2.2840 H       1  LIG1        0.0660
     37 O          -6.3988   -6.3061    1.0624 O.3     1  LIG1       -0.4929
     38 C          -7.4572   -5.4447    1.4458 C.3     1  LIG1        0.0789
     39 H          -8.2622   -6.0948    1.7904 H       1  LIG1        0.0660
     40 H          -7.1621   -4.7737    2.2628 H       1  LIG1        0.0660
     41 H          -7.8154   -4.8447    0.5994 H       1  LIG1        0.0660
     42 C          -5.6267   -8.7454   -0.6469 C.ar    1  LIG1        0.0340
     43 C          -5.7110  -10.1503   -0.6228 C.ar    1  LIG1       -0.0454
     44 C          -4.5107   -8.1190   -0.0401 C.ar    1  LIG1        0.0197
     45 C          -4.7192  -10.9200   -0.0293 C.ar    1  LIG1       -0.0576
     46 H          -6.5673  -10.6271   -1.0886 H       1  LIG1        0.0630
     47 C          -3.5135   -8.9218    0.5271 C.ar    1  LIG1       -0.0484
     48 C          -3.5936  -10.3164    0.5482 C.ar    1  LIG1       -0.0498
     49 H          -2.6533   -8.4275    0.9684 H       1  LIG1        0.0627
     50 H          -4.8148  -12.0028   -0.0207 H       1  LIG1        0.0621
     51 C          -6.6411   -8.0152   -1.3418 C.1     1  LIG1       -0.0690
     52 C          -7.5091   -7.4555   -1.9736 C.1     1  LIG1       -0.1139
     53 H          -8.2674   -6.9539   -2.5280 H       1  LIG1        0.1232
     54 C          -2.4906  -11.1500    1.1549 C.3     1  LIG1       -0.0397
     55 H          -1.9050  -10.5747    1.8774 H       1  LIG1        0.0278
     56 H          -1.7976  -11.5100    0.3841 H       1  LIG1        0.0278
     57 H          -2.8905  -12.0313    1.6662 H       1  LIG1        0.0278
@<TRIPOS>BOND
     1    53    52    1
     2    36    33    1
     3    52    51    3
     4    34    33    1
     5    33    32    1
     6    33    35    1
     7    51    42    1
     8    46    43    1
     9    32    25    1
    10    24    22    1
    11    21    20    1
    12     6     5    1
    13    42    43   ar
    14    42    44   ar
    15    43    45   ar
    16     7     1    1
    17    20    19    3
    18    23    22    1
    19    25    30   ar
    20    25    26   ar
    21    30    29   ar
    22     9     8    1
    23     5     1   ar
    24     5     4   ar
    25    19    15    1
    26     1     2   ar
    27    22    16    1
    28    15    16   ar
    29    15    14   ar
    30    16    17   ar
    31     4    14    1
    32     4     3   ar
    33    14    18   ar
    34    17    18   ar
    35    17    26    1
    36     2     3   ar
    37     2     8    1
    38    26    27   ar
    39    44    29    1
    40    44    47   ar
    41    45    50    1
    42    45    48   ar
    43    29    28   ar
    44     3    11    1
    45     8    10    1
    46    56    54    1
    47    27    28   ar
    48    27    31    1
    49    28    37    1
    50    47    48   ar
    51    47    49    1
    52    11    12    3
    53    48    54    1
    54    41    38    1
    55    12    13    1
    56    37    38    1
    57    54    57    1
    58    54    55    1
    59    38    39    1
    60    38    40    1
