@<TRIPOS>MOLECULE
mol_data/opt/b3lyp/geoms/mol2/13hf13hf-13hf-13hf.out
 46 49 0 0 0
SMALL
GASTEIGER

@<TRIPOS>ATOM
      1 C           1.2734   -0.3446    0.4719 C.ar    1  LIG1        0.0267
      2 C           0.8654    0.9432    0.1872 C.ar    1  LIG1        0.0849
      3 C          -0.5381    0.8799   -0.0477 C.ar    1  LIG1        0.1643
      4 C          -0.9612   -0.4337    0.0942 C.ar    1  LIG1        0.1087
      5 N           0.1769   -1.1903    0.3535 N.ar    1  LIG1       -0.3549
      6 H           0.1238   -2.0752    0.8329 H       1  LIG1        0.1655
      7 H           2.2522   -0.7296    0.7135 H       1  LIG1        0.0827
      8 N           1.6178    2.1283    0.1519 N.pl3   1  LIG1       -0.3540
      9 H           2.5563    1.9938   -0.2043 H       1  LIG1        0.1425
     10 H           1.1454    2.8442   -0.3891 H       1  LIG1        0.1425
     11 O          -1.2767    1.9778   -0.4169 O.3     1  LIG1       -0.5031
     12 H          -2.0798    1.6626   -0.8584 H       1  LIG1        0.2923
     13 C          -2.2801   -0.9863   -0.0688 C.ar    1  LIG1        0.0916
     14 C          -2.7300   -2.2353   -0.4738 C.ar    1  LIG1        0.0945
     15 C          -4.1524   -2.1882   -0.5149 C.ar    1  LIG1        0.1650
     16 C          -4.5787   -0.9310   -0.1279 C.ar    1  LIG1        0.1092
     17 N          -3.4107   -0.1810    0.0949 N.ar    1  LIG1       -0.3473
     18 H          -3.4050    0.5586    0.7848 H       1  LIG1        0.1662
     19 N          -2.0341   -3.3865   -0.9479 N.pl3   1  LIG1       -0.3534
     20 H          -1.2131   -3.1331   -1.4908 H       1  LIG1        0.1425
     21 H          -1.7302   -3.9975   -0.1933 H       1  LIG1        0.1425
     22 O          -4.9183   -3.2240   -0.9634 O.3     1  LIG1       -0.5030
     23 H          -4.2829   -3.8591   -1.3401 H       1  LIG1        0.2923
     24 C          -5.8905   -0.3572    0.0042 C.ar    1  LIG1        0.0916
     25 C          -7.1352   -0.9644    0.2191 C.ar    1  LIG1        0.0945
     26 C          -8.0969    0.0694    0.2709 C.ar    1  LIG1        0.1650
     27 C          -7.4569    1.2888    0.1069 C.ar    1  LIG1        0.1092
     28 N          -6.1085    1.0033   -0.0404 N.ar    1  LIG1       -0.3473
     29 H          -5.4678    1.7365   -0.3257 H       1  LIG1        0.1662
     30 N          -7.5142   -2.3281    0.3930 N.pl3   1  LIG1       -0.3534
     31 H          -7.0149   -2.9271   -0.2608 H       1  LIG1        0.1425
     32 H          -7.2737   -2.6589    1.3260 H       1  LIG1        0.1425
     33 O          -9.4377   -0.1173    0.4621 O.3     1  LIG1       -0.5030
     34 H          -9.5550   -1.0837    0.4476 H       1  LIG1        0.2923
     35 C          -7.9611    2.6303    0.0334 C.ar    1  LIG1        0.0912
     36 C          -7.2880    3.8255   -0.2134 C.ar    1  LIG1        0.0938
     37 C          -8.2646    4.8608   -0.1982 C.ar    1  LIG1        0.1554
     38 C          -9.4973    4.2917    0.0519 C.ar    1  LIG1        0.0461
     39 N          -9.2899    2.9291    0.1956 N.ar    1  LIG1       -0.3549
     40 H          -9.9960    2.2287    0.3610 H       1  LIG1        0.1655
     41 H         -10.4790    4.7306    0.1440 H       1  LIG1        0.0845
     42 N          -5.8756    3.9262   -0.4475 N.pl3   1  LIG1       -0.3535
     43 H          -5.7043    4.4192   -1.3225 H       1  LIG1        0.1425
     44 H          -5.4383    4.4961    0.2757 H       1  LIG1        0.1425
     45 O          -7.9331    6.1758   -0.4098 O.3     1  LIG1       -0.5035
     46 H          -8.7392    6.7058   -0.3829 H       1  LIG1        0.2923
@<TRIPOS>BOND
     1    20    19    1
     2    23    22    1
     3    43    42    1
     4    22    15    1
     5    19    14    1
     6    19    21    1
     7    12    11    1
     8    15    14   ar
     9    15    16   ar
    10    14    13   ar
    11    42    36    1
    12    42    44    1
    13    11     3    1
    14    45    46    1
    15    45    37    1
    16    10     8    1
    17    29    28    1
    18    31    30    1
    19    36    37   ar
    20    36    35   ar
    21     9     8    1
    22    37    38   ar
    23    16    24    1
    24    16    17   ar
    25    13     4    1
    26    13    17   ar
    27     3     4   ar
    28     3     2   ar
    29    28    24   ar
    30    28    27   ar
    31    24    25   ar
    32    35    27    1
    33    35    39   ar
    34    38    41    1
    35    38    39   ar
    36     4     5   ar
    37    17    18    1
    38    27    26   ar
    39     8     2    1
    40     2     1   ar
    41    39    40    1
    42    25    26   ar
    43    25    30    1
    44    26    33    1
    45     5     1   ar
    46     5     6    1
    47    30    32    1
    48    34    33    1
    49     1     7    1
