@<TRIPOS>MOLECULE
mol_data/opt/b3lyp/geoms/mol2/13hf13hf.out
 24 25 0 0 0
SMALL
GASTEIGER

@<TRIPOS>ATOM
      1 C           1.2671   -0.3913   -0.2108 C.ar    1  LIG1        0.0267
      2 C           0.8678    0.9111   -0.0159 C.ar    1  LIG1        0.0849
      3 C          -0.5625    0.9026    0.0660 C.ar    1  LIG1        0.1643
      4 C          -0.9970   -0.4068   -0.0715 C.ar    1  LIG1        0.1087
      5 N           0.1410   -1.2155   -0.1875 N.ar    1  LIG1       -0.3549
      6 H           0.1088   -2.0328   -0.7826 H       1  LIG1        0.1655
      7 H           2.2568   -0.8082   -0.3219 H       1  LIG1        0.0827
      8 N           1.6398    2.0663    0.1858 N.pl3   1  LIG1       -0.3540
      9 H           2.4623    2.1077   -0.4041 H       1  LIG1        0.1425
     10 H           1.0756    2.8983    0.0529 H       1  LIG1        0.1425
     11 O          -1.2783    2.0307    0.2856 O.3     1  LIG1       -0.5031
     12 H          -2.2263    1.8400    0.0502 H       1  LIG1        0.2923
     13 C          -2.3299   -0.9508   -0.0208 C.ar    1  LIG1        0.0911
     14 C          -3.5652   -0.3300   -0.1705 C.ar    1  LIG1        0.0938
     15 C          -4.5687   -1.3256    0.0107 C.ar    1  LIG1        0.1554
     16 C          -3.9471   -2.5267    0.2636 C.ar    1  LIG1        0.0461
     17 N          -2.5759   -2.2909    0.1991 N.ar    1  LIG1       -0.3549
     18 H          -1.8864   -2.8963    0.6160 H       1  LIG1        0.1655
     19 H          -4.3456   -3.5135    0.4428 H       1  LIG1        0.0845
     20 N          -3.7619    1.0590   -0.4685 N.pl3   1  LIG1       -0.3535
     21 H          -3.9450    1.2034   -1.4614 H       1  LIG1        0.1425
     22 H          -4.5831    1.4028    0.0250 H       1  LIG1        0.1425
     23 O          -5.9015   -1.0247   -0.0967 O.3     1  LIG1       -0.5035
     24 H          -6.4185   -1.8056    0.1369 H       1  LIG1        0.2923
@<TRIPOS>BOND
     1    21    20    1
     2     6     5    1
     3    20    14    1
     4    20    22    1
     5     9     8    1
     6     7     1    1
     7     1     5   ar
     8     1     2   ar
     9     5     4   ar
    10    14    13   ar
    11    14    15   ar
    12    23    15    1
    13    23    24    1
    14     4    13    1
    15     4     3   ar
    16    13    17   ar
    17     2     3   ar
    18     2     8    1
    19    15    16   ar
    20    12    11    1
    21    10     8    1
    22     3    11    1
    23    17    16   ar
    24    17    18    1
    25    16    19    1
