@<TRIPOS>MOLECULE
mol_data/opt/b3lyp/geoms/mol2/13hf13hf-4hf13hf.out
 48 51 0 0 0
SMALL
GASTEIGER

@<TRIPOS>ATOM
      1 C           1.3410   -0.2699    0.7017 C.ar    1  LIG1        0.0267
      2 C           1.0151    0.9086    0.0603 C.ar    1  LIG1        0.0849
      3 C          -0.3665    0.8176   -0.2722 C.ar    1  LIG1        0.1643
      4 C          -0.8580   -0.4034    0.1640 C.ar    1  LIG1        0.1087
      5 N           0.2210   -1.0907    0.7085 N.ar    1  LIG1       -0.3549
      6 H           0.0920   -1.8245    1.3871 H       1  LIG1        0.1655
      7 H           2.2789   -0.5998    1.1215 H       1  LIG1        0.0827
      8 N           1.8231    2.0254   -0.2138 N.pl3   1  LIG1       -0.3540
      9 H           2.7762    1.7767   -0.4498 H       1  LIG1        0.1425
     10 H           1.4245    2.5887   -0.9569 H       1  LIG1        0.1425
     11 O          -1.0216    1.7922   -0.9860 O.3     1  LIG1       -0.5031
     12 H          -1.8149    1.3896   -1.3690 H       1  LIG1        0.2923
     13 C          -2.1837   -0.9555    0.0298 C.ar    1  LIG1        0.0916
     14 C          -2.6322   -2.2653   -0.1518 C.ar    1  LIG1        0.0945
     15 C          -4.0372   -2.2121   -0.3150 C.ar    1  LIG1        0.1636
     16 C          -4.4605   -0.8871   -0.2273 C.ar    1  LIG1        0.0927
     17 N          -3.2926   -0.1402   -0.0497 N.ar    1  LIG1       -0.3485
     18 H          -3.3698    0.8164    0.2902 H       1  LIG1        0.1661
     19 N          -1.9387   -3.5062   -0.2878 N.pl3   1  LIG1       -0.3534
     20 H          -1.1226   -3.4209   -0.8878 H       1  LIG1        0.1425
     21 H          -1.6240   -3.8787    0.6048 H       1  LIG1        0.1425
     22 O          -4.7930   -3.3208   -0.5517 O.3     1  LIG1       -0.5031
     23 H          -4.1396   -4.0360   -0.6628 H       1  LIG1        0.2923
     24 C          -6.0556    1.0836   -0.1040 C.ar    1  LIG1        0.0347
     25 C          -7.3670    1.5439   -0.0283 C.ar    1  LIG1       -0.0277
     26 C          -5.7923   -0.3049   -0.2184 C.ar    1  LIG1        0.0260
     27 C          -8.4935    0.7003   -0.0630 C.ar    1  LIG1        0.0434
     28 H          -7.5389    2.6096    0.0867 H       1  LIG1        0.0644
     29 C          -6.9148   -1.1559   -0.2798 C.ar    1  LIG1       -0.0085
     30 C          -8.2143   -0.6795   -0.2015 C.ar    1  LIG1        0.1267
     31 H          -6.7513   -2.2255   -0.3706 H       1  LIG1        0.0661
     32 N          -4.9617    2.0255   -0.0321 N.pl3   1  LIG1       -0.3574
     33 H          -4.6391    2.2700   -0.9680 H       1  LIG1        0.1423
     34 H          -5.2781    2.8896    0.3989 H       1  LIG1        0.1423
     35 O          -9.2766   -1.5651   -0.2497 O.3     1  LIG1       -0.5061
     36 H          -8.9242   -2.4608   -0.3283 H       1  LIG1        0.2922
     37 C          -9.8397    1.2522    0.0433 C.ar    1  LIG1        0.0747
     38 C         -10.2911    2.5791   -0.0007 C.ar    1  LIG1        0.0923
     39 C         -11.6939    2.5511    0.2008 C.ar    1  LIG1        0.1553
     40 C         -12.0878    1.2366    0.3612 C.ar    1  LIG1        0.0460
     41 N         -10.9569    0.4664    0.2578 N.ar    1  LIG1       -0.3560
     42 H         -10.9101   -0.5397    0.2701 H       1  LIG1        0.1655
     43 H         -13.0630    0.8020    0.5209 H       1  LIG1        0.0845
     44 N          -9.5269    3.7630   -0.1817 N.pl3   1  LIG1       -0.3535
     45 H          -9.1593    3.8251   -1.1291 H       1  LIG1        0.1425
     46 H         -10.1300    4.5686   -0.0393 H       1  LIG1        0.1425
     47 O         -12.4412    3.7063    0.2061 O.3     1  LIG1       -0.5035
     48 H         -13.3145    3.5117    0.5665 H       1  LIG1        0.2923
@<TRIPOS>BOND
     1    12    11    1
     2    45    44    1
     3    11     3    1
     4    33    32    1
     5    10     8    1
     6    20    19    1
     7    23    22    1
     8    22    15    1
     9     9     8    1
    10    31    29    1
    11    36    35    1
    12    15    16   ar
    13    15    14   ar
    14    19    14    1
    15    19    21    1
    16    29    26   ar
    17    29    30   ar
    18     3     2   ar
    19     3     4   ar
    20    35    30    1
    21    16    26    1
    22    16    17   ar
    23    26    24   ar
    24     8     2    1
    25    30    27   ar
    26    44    46    1
    27    44    38    1
    28    14    13   ar
    29    24    32    1
    30    24    25   ar
    31    27    25   ar
    32    27    37    1
    33    17    13   ar
    34    17    18    1
    35    32    34    1
    36    25    28    1
    37    38    37   ar
    38    38    39   ar
    39    13     4    1
    40    37    41   ar
    41     2     1   ar
    42     4     5   ar
    43    39    47    1
    44    39    40   ar
    45    47    48    1
    46    41    42    1
    47    41    40   ar
    48    40    43    1
    49     1     5   ar
    50     1     7    1
    51     5     6    1
