@<TRIPOS>MOLECULE
mol_data/opt/b3lyp/geoms/mol2/13hf4de-6af6ha-.out
 47 50 0 0 0
SMALL
GASTEIGER

@<TRIPOS>ATOM
      1 C           1.3705   -0.1548    0.3677 C.ar    1  LIG1        0.0267
      2 C           1.0069    1.1207   -0.0184 C.ar    1  LIG1        0.0848
      3 C          -0.4129    1.1286   -0.1333 C.ar    1  LIG1        0.1629
      4 C          -0.8924   -0.1523    0.1709 C.ar    1  LIG1        0.0917
      5 N           0.2312   -0.9296    0.4284 N.ar    1  LIG1       -0.3561
      6 H           0.1836   -1.7871    0.9570 H       1  LIG1        0.1655
      7 H           2.3400   -0.5653    0.6055 H       1  LIG1        0.0827
      8 N           1.8125    2.2454   -0.2356 N.pl3   1  LIG1       -0.3540
      9 H           2.6576    2.0463   -0.7566 H       1  LIG1        0.1425
     10 H           1.2820    2.9754   -0.6986 H       1  LIG1        0.1425
     11 O          -1.0697    2.2114   -0.6455 O.3     1  LIG1       -0.5031
     12 H          -1.7363    2.5329   -0.0143 H       1  LIG1        0.2923
     13 C          -3.4106   -0.0699    0.4480 C.ar    1  LIG1        0.0616
     14 C          -4.6557   -0.7106    0.3608 C.ar    1  LIG1       -0.0348
     15 C          -2.2094   -0.7590    0.1261 C.ar    1  LIG1        0.0205
     16 C          -4.7818   -2.0504   -0.0044 C.ar    1  LIG1        0.0003
     17 H          -5.5450   -0.1503    0.6288 H       1  LIG1        0.0637
     18 C          -2.3481   -2.1088   -0.2451 C.ar    1  LIG1       -0.0353
     19 C          -3.5857   -2.7605   -0.3107 C.ar    1  LIG1        0.0331
     20 H          -1.4653   -2.6618   -0.5449 H       1  LIG1        0.0637
     21 N          -3.3311    2.3670    1.3299 N.1     1  LIG1       -0.1908
     22 C          -3.3765    1.2710    0.9343 C.1     1  LIG1        0.0998
     23 C          -3.5976   -4.1199   -0.7546 C.1     1  LIG1       -0.0690
     24 C          -3.5498   -5.2647   -1.1439 C.1     1  LIG1       -0.1139
     25 H          -3.5288   -6.2722   -1.4909 H       1  LIG1        0.1232
     26 C          -6.4168   -3.9040    0.5308 C.ar    1  LIG1        0.0362
     27 C          -6.1311   -2.6619   -0.0585 C.ar    1  LIG1        0.0049
     28 C          -7.1937   -2.0020   -0.6830 C.ar    1  LIG1       -0.0088
     29 C          -8.4671   -2.5670   -0.6786 C.ar    1  LIG1        0.1434
     30 C          -8.6764   -3.7960   -0.0072 C.ar    1  LIG1        0.1155
     31 N          -7.6340   -4.4425    0.5512 N.ar    1  LIG1       -0.2506
     32 H          -7.0448   -1.0661   -1.2118 H       1  LIG1        0.0661
     33 H          -5.6316   -4.4750    1.0165 H       1  LIG1        0.0836
     34 O          -9.4422   -1.8966   -1.3527 O.3     1  LIG1       -0.5046
     35 H         -10.2131   -2.4764   -1.4473 H       1  LIG1        0.2922
     36 C         -10.2149   -5.8358   -0.0121 C.ar    1  LIG1        0.1255
     37 C         -10.0203   -4.4195    0.0883 C.ar    1  LIG1        0.0434
     38 C         -11.1674   -3.6480    0.3142 C.ar    1  LIG1       -0.0477
     39 C         -12.4306   -4.2373    0.3705 C.ar    1  LIG1       -0.0428
     40 C         -12.5014   -5.6169    0.1986 C.ar    1  LIG1        0.0297
     41 N         -11.4351   -6.4004    0.0252 N.ar    1  LIG1       -0.2401
     42 H         -11.0670   -2.5781    0.4762 H       1  LIG1        0.0626
     43 H         -13.4634   -6.1269    0.2162 H       1  LIG1        0.0830
     44 N          -9.1630   -6.6900   -0.1904 N.pl3   1  LIG1       -0.3426
     45 H          -9.4002   -7.6650   -0.0790 H       1  LIG1        0.1437
     46 H          -8.2707   -6.3695    0.1669 H       1  LIG1        0.1437
     47 H         -13.3222   -3.6473    0.5496 H       1  LIG1        0.0633
@<TRIPOS>BOND
     1    25    24    1
     2    35    34    1
     3    34    29    1
     4    32    28    1
     5    24    23    3
     6     9     8    1
     7    23    19    1
     8    10     8    1
     9    28    29   ar
    10    28    27   ar
    11    29    30   ar
    12    11     3    1
    13    11    12    1
    14    20    18    1
    15    19    18   ar
    16    19    16   ar
    17    18    15   ar
    18     8     2    1
    19    44    45    1
    20    44    36    1
    21    44    46    1
    22     3     2   ar
    23     3     4   ar
    24    27    16    1
    25    27    26   ar
    26     2     1   ar
    27    36    41   ar
    28    36    37   ar
    29    30    37    1
    30    30    31   ar
    31    16    14   ar
    32    41    40   ar
    33    37    38   ar
    34    15     4    1
    35    15    13   ar
    36     4     5   ar
    37    40    43    1
    38    40    39   ar
    39    38    39   ar
    40    38    42    1
    41    14    13   ar
    42    14    17    1
    43     1     5   ar
    44     1     7    1
    45    39    47    1
    46     5     6    1
    47    13    22    1
    48    26    31   ar
    49    26    33    1
    50    22    21    3
