@<TRIPOS>MOLECULE
mol_data/opt/b3lyp/geoms/mol2/13hf6ff12de-4ia.out
 47 50 0 0 0
SMALL
GASTEIGER

@<TRIPOS>ATOM
      1 C           1.2350    0.0058   -0.6521 C.ar    1  LIG1        0.0267
      2 C           0.9579    0.8360    0.4085 C.ar    1  LIG1        0.0848
      3 C          -0.4355    0.6741    0.6973 C.ar    1  LIG1        0.1630
      4 C          -0.9772   -0.2463   -0.1798 C.ar    1  LIG1        0.0956
      5 N           0.0859   -0.7211   -0.9736 N.ar    1  LIG1       -0.3560
      6 H          -0.0990   -0.9418   -1.9459 H       1  LIG1        0.1655
      7 H           2.1618   -0.1665   -1.1780 H       1  LIG1        0.0827
      8 N           1.8200    1.6156    1.1813 N.pl3   1  LIG1       -0.3540
      9 H           2.6124    1.9868    0.6736 H       1  LIG1        0.1425
     10 H           1.3348    2.3492    1.6824 H       1  LIG1        0.1425
     11 O          -1.0176    1.3331    1.7395 O.3     1  LIG1       -0.5031
     12 H          -1.8862    0.9467    1.9191 H       1  LIG1        0.2923
     13 C          -2.5905   -2.1477   -0.5840 C.ar    1  LIG1        0.2226
     14 C          -2.3269   -0.7794   -0.2632 C.ar    1  LIG1        0.0667
     15 C          -3.4473    0.0087    0.0053 C.ar    1  LIG1       -0.0036
     16 C          -4.7435   -0.5172   -0.0367 C.ar    1  LIG1        0.1467
     17 C          -4.8804   -1.8793   -0.3791 C.ar    1  LIG1        0.1523
     18 N          -3.8017   -2.6508   -0.6437 N.ar    1  LIG1       -0.2056
     19 H          -3.3444    1.0680    0.2190 H       1  LIG1        0.0663
     20 O          -1.5852   -3.0180   -0.8577 O.3     1  LIG1       -0.4919
     21 H          -0.7366   -2.5900   -0.6480 H       1  LIG1        0.2937
     22 O          -5.7484    0.3217    0.3456 O.3     1  LIG1       -0.5045
     23 H          -6.5208    0.2754   -0.2403 H       1  LIG1        0.2922
     24 C          -6.1545   -2.5969   -0.4254 C.ar    1  LIG1        0.1760
     25 C          -7.4611   -2.2701   -0.7377 C.ar    1  LIG1        0.1150
     26 C          -8.2494   -3.4803   -0.6161 C.ar    1  LIG1        0.0884
     27 C          -7.3625   -4.4639   -0.2268 C.ar    1  LIG1        0.1526
     28 O          -6.1089   -3.9193   -0.1249 O.2     1  LIG1       -0.4506
     29 N          -8.2488    0.0488   -1.5444 N.1     1  LIG1       -0.1907
     30 C          -7.9222   -1.0131   -1.1879 C.1     1  LIG1        0.1043
     31 C          -9.6168   -3.5935   -0.9622 C.1     1  LIG1       -0.0645
     32 C         -10.7816   -3.6450   -1.2855 C.1     1  LIG1       -0.1138
     33 H         -11.8042   -3.6922   -1.5815 H       1  LIG1        0.1232
     34 C          -8.4567   -6.5182    0.7757 C.ar    1  LIG1       -0.0398
     35 C          -8.4317   -7.9132    0.9057 C.ar    1  LIG1       -0.0582
     36 C          -7.4415   -5.9098    0.0004 C.ar    1  LIG1        0.0214
     37 C          -7.4399   -8.6926    0.3153 C.ar    1  LIG1       -0.0615
     38 H          -9.2028   -8.3920    1.5034 H       1  LIG1        0.0620
     39 C          -6.4242   -6.7004   -0.5689 C.ar    1  LIG1       -0.0508
     40 C          -6.4222   -8.0813   -0.4183 C.ar    1  LIG1       -0.0611
     41 H          -5.6380   -6.2123   -1.1353 H       1  LIG1        0.0625
     42 H          -7.4531   -9.7713    0.4415 H       1  LIG1        0.0618
     43 C          -9.5222   -5.7318    1.5000 C.3     1  LIG1       -0.0390
     44 H          -9.9402   -6.3245    2.3179 H       1  LIG1        0.0278
     45 H         -10.3435   -5.4491    0.8345 H       1  LIG1        0.0278
     46 H          -9.1239   -4.8040    1.9212 H       1  LIG1        0.0278
     47 H          -5.6341   -8.6749   -0.8709 H       1  LIG1        0.0618
@<TRIPOS>BOND
     1     6     5    1
     2    33    32    1
     3    29    30    3
     4    32    31    3
     5    30    25    1
     6     7     1    1
     7    41    39    1
     8     5     1   ar
     9     5     4   ar
    10    31    26    1
    11    47    40    1
    12    20    21    1
    13    20    13    1
    14    25    26   ar
    15    25    24   ar
    16     1     2   ar
    17    18    13   ar
    18    18    17   ar
    19    26    27   ar
    20    13    14   ar
    21    39    40   ar
    22    39    36   ar
    23    24    17    1
    24    24    28   ar
    25    40    37   ar
    26    17    16   ar
    27    14     4    1
    28    14    15   ar
    29    23    22    1
    30    27    28   ar
    31    27    36    1
    32     4     3   ar
    33    16    15   ar
    34    16    22    1
    35    36    34   ar
    36    15    19    1
    37    37    42    1
    38    37    35   ar
    39     2     3   ar
    40     2     8    1
    41     9     8    1
    42     3    11    1
    43    34    35   ar
    44    34    43    1
    45    45    43    1
    46    35    38    1
    47     8    10    1
    48    43    46    1
    49    43    44    1
    50    11    12    1
