@<TRIPOS>MOLECULE
mol_data/opt/b3lyp/geoms/mol2/13hf13hf-13hf13hf-.out
 46 49 0 0 0
SMALL
GASTEIGER

@<TRIPOS>ATOM
      1 C           1.3598   -0.2229    0.0670 C.ar    1  LIG1        0.0267
      2 C           0.8997    1.0567   -0.1878 C.ar    1  LIG1        0.0849
      3 C          -0.5184    0.9722   -0.2455 C.ar    1  LIG1        0.1643
      4 C          -0.9064   -0.3453   -0.0168 C.ar    1  LIG1        0.1087
      5 N           0.2613   -1.0623    0.1396 N.ar    1  LIG1       -0.3549
      6 H           0.2903   -2.0293    0.4113 H       1  LIG1        0.1655
      7 H           2.3635   -0.5972    0.1947 H       1  LIG1        0.0827
      8 N           1.6359    2.2479   -0.3105 N.pl3   1  LIG1       -0.3540
      9 H           2.4545    2.1556   -0.9003 H       1  LIG1        0.1425
     10 H           1.0463    2.9972   -0.6554 H       1  LIG1        0.1425
     11 O          -1.3530    2.0575   -0.4708 O.3     1  LIG1       -0.5031
     12 H          -1.7426    1.9696   -1.3528 H       1  LIG1        0.2923
     13 C          -2.2206   -0.9298    0.0412 C.ar    1  LIG1        0.0916
     14 C          -2.6485   -2.2665    0.0803 C.ar    1  LIG1        0.0945
     15 C          -4.0610   -2.2492    0.1028 C.ar    1  LIG1        0.1650
     16 C          -4.4948   -0.9308    0.0818 C.ar    1  LIG1        0.1092
     17 N          -3.3518   -0.1502    0.0380 N.ar    1  LIG1       -0.3473
     18 H          -3.3898    0.8631    0.0559 H       1  LIG1        0.1662
     19 N          -1.9369   -3.5043    0.0757 N.pl3   1  LIG1       -0.3534
     20 H          -1.2965   -3.6018   -0.7067 H       1  LIG1        0.1425
     21 H          -1.4376   -3.6940    0.9407 H       1  LIG1        0.1425
     22 O          -4.8628   -3.3568    0.1282 O.3     1  LIG1       -0.5030
     23 H          -4.2484   -4.1104    0.0908 H       1  LIG1        0.2923
     24 C          -5.8163   -0.3768    0.0918 C.ar    1  LIG1        0.0916
     25 C          -6.2365    0.9548    0.0909 C.ar    1  LIG1        0.0945
     26 C          -7.6537    0.9367    0.0979 C.ar    1  LIG1        0.1650
     27 C          -8.0863   -0.3873    0.1140 C.ar    1  LIG1        0.1092
     28 N          -6.9386   -1.1690    0.0968 N.ar    1  LIG1       -0.3473
     29 H          -6.9074   -2.1744    0.1594 H       1  LIG1        0.1662
     30 N          -5.3486    2.0772    0.0705 N.pl3   1  LIG1       -0.3534
     31 H          -5.6699    2.7609   -0.6121 H       1  LIG1        0.1425
     32 H          -5.3601    2.5586    0.9687 H       1  LIG1        0.1425
     33 O          -8.4348    2.0669    0.0694 O.3     1  LIG1       -0.5030
     34 H          -9.2831    1.8270   -0.3337 H       1  LIG1        0.2923
     35 C          -9.4267   -0.9133    0.1032 C.ar    1  LIG1        0.0912
     36 C          -9.9580   -2.1151   -0.3500 C.ar    1  LIG1        0.0938
     37 C         -11.3701   -2.0678   -0.1371 C.ar    1  LIG1        0.1554
     38 C         -11.6866   -0.8647    0.4423 C.ar    1  LIG1        0.0461
     39 N         -10.4959   -0.1397    0.5422 N.ar    1  LIG1       -0.3549
     40 H         -10.3596    0.5799    1.2373 H       1  LIG1        0.1655
     41 H         -12.6333   -0.4464    0.7428 H       1  LIG1        0.0845
     42 N          -9.3654   -3.2310   -1.0143 N.pl3   1  LIG1       -0.3535
     43 H          -8.7471   -2.9530   -1.7712 H       1  LIG1        0.1425
     44 H          -8.8431   -3.8379   -0.3874 H       1  LIG1        0.1425
     45 O         -12.2127   -3.0655   -0.5106 O.3     1  LIG1       -0.5035
     46 H         -11.6432   -3.7017   -0.9789 H       1  LIG1        0.2923
@<TRIPOS>BOND
     1    43    42    1
     2    12    11    1
     3    42    44    1
     4    42    36    1
     5    46    45    1
     6     9     8    1
     7    20    19    1
     8    10     8    1
     9    31    30    1
    10    45    37    1
    11    11     3    1
    12    36    37   ar
    13    36    35   ar
    14    34    33    1
    15     8     2    1
    16     3     2   ar
    17     3     4   ar
    18     2     1   ar
    19    37    38   ar
    20     4    13    1
    21     4     5   ar
    22    17    13   ar
    23    17    18    1
    24    17    16   ar
    25    13    14   ar
    26     1     5   ar
    27     1     7    1
    28    33    26    1
    29    30    25    1
    30    30    32    1
    31    19    14    1
    32    19    21    1
    33    14    15   ar
    34    16    24    1
    35    16    15   ar
    36    23    22    1
    37    25    24   ar
    38    25    26   ar
    39    24    28   ar
    40    28    27   ar
    41    28    29    1
    42    26    27   ar
    43    15    22    1
    44    35    27    1
    45    35    39   ar
    46     5     6    1
    47    38    39   ar
    48    38    41    1
    49    39    40    1
