@<TRIPOS>MOLECULE
mol_data/opt/b3lyp/geoms/mol2/13hf13hf-13hf-13hf-.out
 46 49 0 0 0
SMALL
GASTEIGER

@<TRIPOS>ATOM
      1 C           1.2599   -0.4009    0.7279 C.ar    1  LIG1        0.0267
      2 C           0.8974    0.8963    0.4233 C.ar    1  LIG1        0.0849
      3 C          -0.4868    0.8594    0.0901 C.ar    1  LIG1        0.1643
      4 C          -0.9426   -0.4468    0.1939 C.ar    1  LIG1        0.1087
      5 N           0.1602   -1.2262    0.5278 N.ar    1  LIG1       -0.3549
      6 H           0.0580   -2.1106    1.0006 H       1  LIG1        0.1655
      7 H           2.2116   -0.8046    1.0374 H       1  LIG1        0.0827
      8 N           1.6711    2.0664    0.4507 N.pl3   1  LIG1       -0.3540
      9 H           2.6338    1.9170    0.1746 H       1  LIG1        0.1425
     10 H           1.2576    2.7950   -0.1203 H       1  LIG1        0.1425
     11 O          -1.1795    1.9688   -0.3285 O.3     1  LIG1       -0.5031
     12 H          -1.9647    1.6606   -0.8057 H       1  LIG1        0.2923
     13 C          -2.2575   -0.9706   -0.0658 C.ar    1  LIG1        0.0916
     14 C          -2.7027   -2.2035   -0.5156 C.ar    1  LIG1        0.0945
     15 C          -4.1207   -2.1297   -0.6421 C.ar    1  LIG1        0.1650
     16 C          -4.5486   -0.8730   -0.2627 C.ar    1  LIG1        0.1092
     17 N          -3.3823   -0.1398    0.0402 N.ar    1  LIG1       -0.3473
     18 H          -3.4033    0.5454    0.7853 H       1  LIG1        0.1662
     19 N          -2.0002   -3.3580   -0.9677 N.pl3   1  LIG1       -0.3534
     20 H          -1.1323   -3.1122   -1.4356 H       1  LIG1        0.1425
     21 H          -1.7750   -3.9999   -0.2113 H       1  LIG1        0.1425
     22 O          -4.8745   -3.1426   -1.1539 O.3     1  LIG1       -0.5030
     23 H          -4.2309   -3.7825   -1.5080 H       1  LIG1        0.2923
     24 C          -5.8643   -0.2943   -0.2017 C.ar    1  LIG1        0.0916
     25 C          -7.1113   -0.8944   -0.0115 C.ar    1  LIG1        0.0945
     26 C          -8.0833    0.1336   -0.0309 C.ar    1  LIG1        0.1650
     27 C          -7.4540    1.3573   -0.2142 C.ar    1  LIG1        0.1092
     28 N          -6.0956    1.0635   -0.3235 N.ar    1  LIG1       -0.3473
     29 H          -5.3805    1.7625   -0.4375 H       1  LIG1        0.1662
     30 N          -7.4945   -2.2559    0.1630 N.pl3   1  LIG1       -0.3534
     31 H          -6.9757   -2.8625   -0.4683 H       1  LIG1        0.1425
     32 H          -7.2928   -2.5779    1.1079 H       1  LIG1        0.1425
     33 O          -9.4239   -0.0928    0.0882 O.3     1  LIG1       -0.5030
     34 H          -9.5055   -1.0639    0.0925 H       1  LIG1        0.2923
     35 C          -7.9813    2.6942   -0.3214 C.ar    1  LIG1        0.0912
     36 C          -9.1199    3.2600    0.2372 C.ar    1  LIG1        0.0938
     37 C          -9.1904    4.6114   -0.2145 C.ar    1  LIG1        0.1554
     38 C          -8.1073    4.8604   -1.0218 C.ar    1  LIG1        0.0461
     39 N          -7.3449    3.6905   -1.0504 N.ar    1  LIG1       -0.3549
     40 H          -6.7520    3.4693   -1.8364 H       1  LIG1        0.1655
     41 H          -7.7991    5.7518   -1.5437 H       1  LIG1        0.0845
     42 N         -10.1019    2.7339    1.1256 N.pl3   1  LIG1       -0.3535
     43 H         -10.3479    1.7813    0.8636 H       1  LIG1        0.1425
     44 H          -9.7525    2.6946    2.0816 H       1  LIG1        0.1425
     45 O         -10.1772    5.4696    0.1574 O.3     1  LIG1       -0.5035
     46 H         -10.7989    4.9137    0.6607 H       1  LIG1        0.2923
@<TRIPOS>BOND
     1    40    39    1
     2    41    38    1
     3    23    22    1
     4    20    19    1
     5    22    15    1
     6    39    38   ar
     7    39    35   ar
     8    38    37   ar
     9    19    14    1
    10    19    21    1
    11    12    11    1
    12    15    14   ar
    13    15    16   ar
    14    14    13   ar
    15    31    30    1
    16    29    28    1
    17    11     3    1
    18    28    27   ar
    19    28    24   ar
    20    35    27    1
    21    35    36   ar
    22    16    24    1
    23    16    17   ar
    24    37    45    1
    25    37    36   ar
    26    27    26   ar
    27    24    25   ar
    28    10     8    1
    29    13    17   ar
    30    13     4    1
    31    26    25   ar
    32    26    33    1
    33    25    30    1
    34    17    18    1
    35    33    34    1
    36     3     4   ar
    37     3     2   ar
    38    45    46    1
    39    30    32    1
    40     9     8    1
    41     4     5   ar
    42    36    42    1
    43     2     8    1
    44     2     1   ar
    45     5     1   ar
    46     5     6    1
    47     1     7    1
    48    43    42    1
    49    42    44    1
