@<TRIPOS>MOLECULE
mol_data/opt/b3lyp/geoms/mol2/13hf13hf13hf.out
 35 37 0 0 0
SMALL
GASTEIGER

@<TRIPOS>ATOM
      1 C           1.3461   -0.2144   -0.5394 C.ar    1  LIG1        0.0267
      2 C           0.9581    1.0215   -0.0779 C.ar    1  LIG1        0.0849
      3 C          -0.4608    0.9692    0.1204 C.ar    1  LIG1        0.1643
      4 C          -0.8990   -0.3027   -0.2160 C.ar    1  LIG1        0.1087
      5 N           0.2304   -1.0570   -0.5712 N.ar    1  LIG1       -0.3549
      6 H           0.1503   -1.7243   -1.3282 H       1  LIG1        0.1655
      7 H           2.3246   -0.5823   -0.8097 H       1  LIG1        0.0827
      8 N           1.7361    2.1369    0.2677 N.pl3   1  LIG1       -0.3540
      9 H           2.5117    2.2988   -0.3632 H       1  LIG1        0.1425
     10 H           1.1590    2.9681    0.3317 H       1  LIG1        0.1425
     11 O          -1.1586    2.0228    0.6019 O.3     1  LIG1       -0.5031
     12 H          -2.1252    1.8579    0.4188 H       1  LIG1        0.2923
     13 C          -2.2190   -0.8698   -0.1448 C.ar    1  LIG1        0.0916
     14 C          -3.4676   -0.2494   -0.1039 C.ar    1  LIG1        0.0945
     15 C          -4.4614   -1.2599   -0.0446 C.ar    1  LIG1        0.1650
     16 C          -3.8184   -2.4991   -0.0458 C.ar    1  LIG1        0.1092
     17 N          -2.4493   -2.2265   -0.1285 N.ar    1  LIG1       -0.3473
     18 H          -1.7161   -2.9148   -0.1093 H       1  LIG1        0.1662
     19 N          -3.6822    1.1694   -0.1149 N.pl3   1  LIG1       -0.3534
     20 H          -3.9375    1.4933   -1.0479 H       1  LIG1        0.1425
     21 H          -4.4735    1.3940    0.4854 H       1  LIG1        0.1425
     22 O          -5.7839   -0.9885    0.0229 O.3     1  LIG1       -0.5030
     23 H          -6.2820   -1.8269   -0.1804 H       1  LIG1        0.2923
     24 C          -4.3614   -3.8264    0.0726 C.ar    1  LIG1        0.0912
     25 C          -5.6548   -4.2864   -0.1508 C.ar    1  LIG1        0.0938
     26 C          -5.6761   -5.6785    0.1542 C.ar    1  LIG1        0.1554
     27 C          -4.4160   -6.0543    0.5536 C.ar    1  LIG1        0.0461
     28 N          -3.6057   -4.9219    0.4544 N.ar    1  LIG1       -0.3549
     29 H          -2.7590   -4.8240    0.9925 H       1  LIG1        0.1655
     30 H          -4.0156   -7.0118    0.8493 H       1  LIG1        0.0845
     31 N          -6.7459   -3.4884   -0.6287 N.pl3   1  LIG1       -0.3535
     32 H          -6.8614   -3.5829   -1.6378 H       1  LIG1        0.1425
     33 H          -7.6157   -3.8107   -0.2098 H       1  LIG1        0.1425
     34 O          -6.8172   -6.4219    0.0065 O.3     1  LIG1       -0.5035
     35 H          -6.6526   -7.3169    0.3282 H       1  LIG1        0.2923
@<TRIPOS>BOND
     1    32    31    1
     2     6     5    1
     3    20    19    1
     4     7     1    1
     5    31    33    1
     6    31    25    1
     7     5     1   ar
     8     5     4   ar
     9     1     2   ar
    10     9     8    1
    11     4    13    1
    12     4     3   ar
    13    23    22    1
    14    25    24   ar
    15    25    26   ar
    16    13    17   ar
    17    13    14   ar
    18    17    18    1
    19    17    16   ar
    20    19    14    1
    21    19    21    1
    22    14    15   ar
    23     2     3   ar
    24     2     8    1
    25    16    15   ar
    26    16    24    1
    27    15    22    1
    28    34    26    1
    29    34    35    1
    30    24    28   ar
    31     3    11    1
    32    26    27   ar
    33     8    10    1
    34    12    11    1
    35    28    27   ar
    36    28    29    1
    37    27    30    1
