@<TRIPOS>MOLECULE
mol_data/opt/b3lyp/geoms/mol2/13hf6fh6ef12fa-.out
 45 48 0 0 0
SMALL
GASTEIGER

@<TRIPOS>ATOM
      1 C           1.4070   -0.1716    0.1793 C.ar    1  LIG1        0.0267
      2 C           0.9426    1.1225    0.2399 C.ar    1  LIG1        0.0848
      3 C          -0.4840    1.0456    0.1620 C.ar    1  LIG1        0.1630
      4 C          -0.8634   -0.2790    0.0616 C.ar    1  LIG1        0.0956
      5 N           0.3149   -1.0389    0.1476 N.ar    1  LIG1       -0.3560
      6 H           0.3759   -1.9161   -0.3545 H       1  LIG1        0.1655
      7 H           2.4165   -0.5523    0.2107 H       1  LIG1        0.0827
      8 N           1.6460    2.3125    0.4569 N.pl3   1  LIG1       -0.3540
      9 H           2.5705    2.3230    0.0453 H       1  LIG1        0.1425
     10 H           1.1177    3.1255    0.1650 H       1  LIG1        0.1425
     11 O          -1.2646    2.1671    0.2370 O.3     1  LIG1       -0.5031
     12 H          -2.1707    1.9008    0.4484 H       1  LIG1        0.2923
     13 C          -2.5261   -2.0874    0.6417 C.ar    1  LIG1        0.2224
     14 C          -2.1933   -0.8711   -0.0154 C.ar    1  LIG1        0.0650
     15 C          -3.2291   -0.2425   -0.7158 C.ar    1  LIG1       -0.0246
     16 C          -4.5179   -0.7901   -0.7612 C.ar    1  LIG1        0.0519
     17 C          -4.7179   -2.0117   -0.0805 C.ar    1  LIG1        0.0982
     18 N          -3.7291   -2.6227    0.5923 N.ar    1  LIG1       -0.2105
     19 H          -3.0169    0.6667   -1.2738 H       1  LIG1        0.0645
     20 O          -1.6062   -2.7868    1.3648 O.3     1  LIG1       -0.4919
     21 H          -0.8186   -2.2296    1.4809 H       1  LIG1        0.2937
     22 N          -5.5484   -0.1210   -1.4355 N.pl3   1  LIG1       -0.3563
     23 H          -5.2265    0.4623   -2.1975 H       1  LIG1        0.1424
     24 H          -6.3073   -0.7215   -1.7319 H       1  LIG1        0.1424
     25 C          -6.2147   -4.0431   -0.4544 C.ar    1  LIG1        0.1234
     26 C          -6.0437   -2.6892   -0.0613 C.ar    1  LIG1        0.0396
     27 C          -7.1817   -2.0133    0.3751 C.ar    1  LIG1       -0.0060
     28 C          -8.4219   -2.6518    0.4516 C.ar    1  LIG1        0.1466
     29 C          -8.4880   -4.0128    0.0572 C.ar    1  LIG1        0.1522
     30 N          -7.4013   -4.6592   -0.3908 N.ar    1  LIG1       -0.2308
     31 H          -7.1242   -0.9783    0.6952 H       1  LIG1        0.0662
     32 C          -5.1335   -4.8193   -0.9912 C.1     1  LIG1       -0.0491
     33 C          -4.2514   -5.4862   -1.4798 C.1     1  LIG1       -0.1124
     34 H          -3.4641   -6.0780   -1.8847 H       1  LIG1        0.1232
     35 O          -9.4493   -1.9226    0.9429 O.3     1  LIG1       -0.5045
     36 H         -10.3115   -2.3430    0.7558 H       1  LIG1        0.2922
     37 C          -9.7080   -4.8234    0.1337 C.ar    1  LIG1        0.1976
     38 C         -11.0605   -4.5801    0.2276 C.ar    1  LIG1        0.1643
     39 C         -11.7408   -5.8331    0.2555 C.ar    1  LIG1        0.0185
     40 C         -10.7543   -6.7694    0.1734 C.ar    1  LIG1        0.0963
     41 O          -9.5385   -6.1859    0.0928 O.2     1  LIG1       -0.4575
     42 H         -10.7634   -7.8480    0.1582 H       1  LIG1        0.1031
     43 O         -11.6373   -3.3263    0.2187 O.3     1  LIG1       -0.5032
     44 H         -12.4691   -3.3530    0.7098 H       1  LIG1        0.2923
     45 H         -12.8064   -6.0044    0.3120 H       1  LIG1        0.0686
@<TRIPOS>BOND
     1    23    22    1
     2    34    33    1
     3    24    22    1
     4    33    32    3
     5    22    16    1
     6    19    15    1
     7    32    25    1
     8    16    15   ar
     9    16    17   ar
    10    15    14   ar
    11    25    30   ar
    12    25    26   ar
    13    30    29   ar
    14     6     5    1
    15    17    26    1
    16    17    18   ar
    17    26    27   ar
    18    14     4    1
    19    14    13   ar
    20     9     8    1
    21    29    37    1
    22    29    28   ar
    23     4     5   ar
    24     4     3   ar
    25    41    37   ar
    26    41    40   ar
    27    37    38   ar
    28     5     1   ar
    29    42    40    1
    30     3    11    1
    31     3     2   ar
    32    10     8    1
    33    40    39   ar
    34     1     7    1
    35     1     2   ar
    36    43    38    1
    37    43    44    1
    38    38    39   ar
    39    11    12    1
    40     2     8    1
    41    39    45    1
    42    27    28   ar
    43    27    31    1
    44    28    35    1
    45    18    13   ar
    46    13    20    1
    47    36    35    1
    48    20    21    1
