@<TRIPOS>MOLECULE
mol_data/opt/b3lyp/geoms/mol2/13hf13hf-.out
 24 25 0 0 0
SMALL
GASTEIGER

@<TRIPOS>ATOM
      1 C           1.1897   -0.3098   -0.0013 C.ar    1  LIG1        0.0267
      2 C           0.7554    1.0029   -0.0436 C.ar    1  LIG1        0.0849
      3 C          -0.6668    0.9551   -0.0549 C.ar    1  LIG1        0.1643
      4 C          -1.0798   -0.3723   -0.0063 C.ar    1  LIG1        0.1087
      5 N           0.0716   -1.1259    0.0032 N.ar    1  LIG1       -0.3549
      6 H           0.0828   -2.1269    0.0944 H       1  LIG1        0.1655
      7 H           2.1870   -0.7193    0.0312 H       1  LIG1        0.0827
      8 N           1.5281    2.1788   -0.0150 N.pl3   1  LIG1       -0.3540
      9 H           2.2755    2.1879   -0.6990 H       1  LIG1        0.1425
     10 H           0.9436    2.9980   -0.1350 H       1  LIG1        0.1425
     11 O          -1.5077    2.0648   -0.0769 O.3     1  LIG1       -0.5031
     12 H          -1.6713    2.3009   -1.0019 H       1  LIG1        0.2923
     13 C          -2.4092   -0.9290    0.0309 C.ar    1  LIG1        0.0911
     14 C          -2.8867   -2.2396   -0.0588 C.ar    1  LIG1        0.0938
     15 C          -4.3048   -2.1789    0.0338 C.ar    1  LIG1        0.1554
     16 C          -4.6759   -0.8595    0.1813 C.ar    1  LIG1        0.0461
     17 N          -3.5086   -0.1162    0.1673 N.ar    1  LIG1       -0.3549
     18 H          -3.4266    0.8787    0.3126 H       1  LIG1        0.1655
     19 H          -5.6461   -0.4025    0.2862 H       1  LIG1        0.0845
     20 N          -2.2200   -3.4901   -0.2331 N.pl3   1  LIG1       -0.3535
     21 H          -1.6395   -3.5344   -1.0652 H       1  LIG1        0.1425
     22 H          -1.6772   -3.7858    0.5734 H       1  LIG1        0.1425
     23 O          -5.1176   -3.2686   -0.0281 O.3     1  LIG1       -0.5035
     24 H          -4.5120   -4.0161   -0.1733 H       1  LIG1        0.2923
@<TRIPOS>BOND
     1    21    20    1
     2    12    11    1
     3     9     8    1
     4    20    14    1
     5    20    22    1
     6    24    23    1
     7    10     8    1
     8    11     3    1
     9    14    13   ar
    10    14    15   ar
    11     3     2   ar
    12     3     4   ar
    13     2     8    1
    14     2     1   ar
    15    23    15    1
    16     4     5   ar
    17     4    13    1
    18     1     5   ar
    19     1     7    1
    20     5     6    1
    21    13    17   ar
    22    15    16   ar
    23    17    16   ar
    24    17    18    1
    25    16    19    1
