@<TRIPOS>MOLECULE
mol_data/opt/b3lyp/geoms/mol2/13hf13hf13hf13hf.out
 46 49 0 0 0
SMALL
GASTEIGER

@<TRIPOS>ATOM
      1 C           1.3877   -0.0160   -0.0354 C.ar    1  LIG1        0.0267
      2 C           0.9099    1.2613    0.1559 C.ar    1  LIG1        0.0849
      3 C          -0.5185    1.1864    0.1035 C.ar    1  LIG1        0.1643
      4 C          -0.8759   -0.1392   -0.1111 C.ar    1  LIG1        0.1087
      5 N           0.3060   -0.8899   -0.1390 N.ar    1  LIG1       -0.3549
      6 H           0.3637   -1.6989   -0.7426 H       1  LIG1        0.1655
      7 H           2.4026   -0.3834   -0.0614 H       1  LIG1        0.0827
      8 N           1.6062    2.4419    0.4611 N.pl3   1  LIG1       -0.3540
      9 H           2.4722    2.5419   -0.0550 H       1  LIG1        0.1425
     10 H           1.0161    3.2520    0.3072 H       1  LIG1        0.1425
     11 O          -1.3043    2.2714    0.2909 O.3     1  LIG1       -0.5031
     12 H          -2.2231    2.0456   -0.0217 H       1  LIG1        0.2923
     13 C          -2.1750   -0.7413   -0.2102 C.ar    1  LIG1        0.0916
     14 C          -3.4176   -0.1662   -0.4395 C.ar    1  LIG1        0.0945
     15 C          -4.4013   -1.1930   -0.3694 C.ar    1  LIG1        0.1650
     16 C          -3.7487   -2.3940   -0.1047 C.ar    1  LIG1        0.1092
     17 N          -2.3684   -2.1112   -0.0692 N.ar    1  LIG1       -0.3473
     18 H          -1.7634   -2.6240    0.5583 H       1  LIG1        0.1662
     19 N          -3.6491    1.2198   -0.7224 N.pl3   1  LIG1       -0.3534
     20 H          -3.6888    1.3865   -1.7281 H       1  LIG1        0.1425
     21 H          -4.5622    1.4844   -0.3574 H       1  LIG1        0.1425
     22 O          -5.7129   -0.9617   -0.5802 O.3     1  LIG1       -0.5030
     23 H          -6.2242   -1.7627   -0.2704 H       1  LIG1        0.2923
     24 C          -4.2674   -3.7230    0.0197 C.ar    1  LIG1        0.0916
     25 C          -5.5702   -4.1641    0.2109 C.ar    1  LIG1        0.0945
     26 C          -5.5636   -5.5886    0.1946 C.ar    1  LIG1        0.1650
     27 C          -4.2534   -6.0096    0.0054 C.ar    1  LIG1        0.1092
     28 N          -3.4502   -4.8496   -0.0422 N.ar    1  LIG1       -0.3473
     29 H          -2.6477   -4.8223   -0.6579 H       1  LIG1        0.1662
     30 N          -6.7091   -3.3178    0.4191 N.pl3   1  LIG1       -0.3534
     31 H          -7.5315   -3.7621    0.0145 H       1  LIG1        0.1425
     32 H          -6.9086   -3.2125    1.4143 H       1  LIG1        0.1425
     33 O          -6.6794   -6.3235    0.3814 O.3     1  LIG1       -0.5030
     34 H          -6.4781   -7.2626    0.1089 H       1  LIG1        0.2923
     35 C          -3.6981   -7.3345   -0.0239 C.ar    1  LIG1        0.0912
     36 C          -4.3172   -8.5667   -0.2135 C.ar    1  LIG1        0.0938
     37 C          -3.3116   -9.5711   -0.1157 C.ar    1  LIG1        0.1554
     38 C          -2.1055   -8.9558    0.1274 C.ar    1  LIG1        0.0461
     39 N          -2.3487   -7.5826    0.1360 N.ar    1  LIG1       -0.3549
     40 H          -1.7340   -6.9163    0.5762 H       1  LIG1        0.1655
     41 H          -1.1109   -9.3561    0.2498 H       1  LIG1        0.0845
     42 N          -5.7148   -8.7561   -0.4776 N.pl3   1  LIG1       -0.3535
     43 H          -5.8876   -8.9036   -1.4721 H       1  LIG1        0.1425
     44 H          -6.0437   -9.5956   -0.0049 H       1  LIG1        0.1425
     45 O          -3.6109  -10.8980   -0.2786 O.3     1  LIG1       -0.5035
     46 H          -2.8185  -11.4219   -0.1078 H       1  LIG1        0.2923
@<TRIPOS>BOND
     1    20    19    1
     2    43    42    1
     3     6     5    1
     4    19    14    1
     5    19    21    1
     6    29    28    1
     7    22    15    1
     8    22    23    1
     9    42    36    1
    10    42    44    1
    11    14    15   ar
    12    14    13   ar
    13    15    16   ar
    14    45    37    1
    15    45    46    1
    16    36    37   ar
    17    36    35   ar
    18    13     4    1
    19    13    17   ar
    20     5     4   ar
    21     5     1   ar
    22    37    38   ar
    23     4     3   ar
    24    16    17   ar
    25    16    24    1
    26    17    18    1
    27     7     1    1
    28     9     8    1
    29    28    27   ar
    30    28    24   ar
    31     1     2   ar
    32    35    27    1
    33    35    39   ar
    34    12    11    1
    35    27    26   ar
    36    31    30    1
    37    24    25   ar
    38     3     2   ar
    39     3    11    1
    40    34    33    1
    41    38    39   ar
    42    38    41    1
    43    39    40    1
    44     2     8    1
    45    26    25   ar
    46    26    33    1
    47    25    30    1
    48    10     8    1
    49    30    32    1
