@<TRIPOS>MOLECULE
mol_data/opt/b3lyp/geoms/mol2/13hf13hf13hf13hf-.out
 46 49 0 0 0
SMALL
GASTEIGER

@<TRIPOS>ATOM
      1 C           1.3162    0.0746   -0.5648 C.ar    1  LIG1        0.0267
      2 C           0.9114    1.2418    0.0391 C.ar    1  LIG1        0.0849
      3 C          -0.5004    1.1300    0.2633 C.ar    1  LIG1        0.1643
      4 C          -0.9162   -0.1090   -0.2005 C.ar    1  LIG1        0.1087
      5 N           0.2215   -0.7905   -0.6627 N.ar    1  LIG1       -0.3549
      6 H           0.1364   -1.3653   -1.4920 H       1  LIG1        0.1655
      7 H           2.2957   -0.2340   -0.8985 H       1  LIG1        0.0827
      8 N           1.6702    2.3323    0.4871 N.pl3   1  LIG1       -0.3540
      9 H           2.4310    2.5795   -0.1340 H       1  LIG1        0.1425
     10 H           1.0775    3.1377    0.6541 H       1  LIG1        0.1425
     11 O          -1.2099    2.1044    0.8744 O.3     1  LIG1       -0.5031
     12 H          -2.1771    1.9333    0.7016 H       1  LIG1        0.2923
     13 C          -2.2173   -0.7181   -0.1551 C.ar    1  LIG1        0.0916
     14 C          -3.4807   -0.1419   -0.0148 C.ar    1  LIG1        0.0945
     15 C          -4.4447   -1.1808   -0.0373 C.ar    1  LIG1        0.1650
     16 C          -3.7687   -2.3959   -0.1873 C.ar    1  LIG1        0.1092
     17 N          -2.4102   -2.0746   -0.2785 N.ar    1  LIG1       -0.3473
     18 H          -1.6575   -2.7392   -0.3364 H       1  LIG1        0.1662
     19 N          -3.7312    1.2631    0.1311 N.pl3   1  LIG1       -0.3534
     20 H          -4.0134    1.6790   -0.7565 H       1  LIG1        0.1425
     21 H          -4.5140    1.4011    0.7673 H       1  LIG1        0.1425
     22 O          -5.7700   -0.9567    0.0947 O.3     1  LIG1       -0.5030
     23 H          -6.2535   -1.7873   -0.1673 H       1  LIG1        0.2923
     24 C          -4.2664   -3.7415   -0.1925 C.ar    1  LIG1        0.0916
     25 C          -5.5578   -4.2184   -0.4016 C.ar    1  LIG1        0.0945
     26 C          -5.5237   -5.6305   -0.2501 C.ar    1  LIG1        0.1650
     27 C          -4.2288   -6.0159    0.0509 C.ar    1  LIG1        0.1092
     28 N          -3.4493   -4.8469    0.0198 N.ar    1  LIG1       -0.3473
     29 H          -2.6323   -4.7743    0.6085 H       1  LIG1        0.1662
     30 N          -6.6883   -3.4111   -0.7540 N.pl3   1  LIG1       -0.3534
     31 H          -6.8384   -3.4042   -1.7629 H       1  LIG1        0.1425
     32 H          -7.5333   -3.8001   -0.3413 H       1  LIG1        0.1425
     33 O          -6.6193   -6.4251   -0.4412 O.3     1  LIG1       -0.5030
     34 H          -6.3144   -7.3455   -0.4773 H       1  LIG1        0.2923
     35 C          -3.6989   -7.3389    0.2634 C.ar    1  LIG1        0.0912
     36 C          -2.4886   -7.9329   -0.0664 C.ar    1  LIG1        0.0938
     37 C          -2.5598   -9.3051    0.3320 C.ar    1  LIG1        0.1554
     38 C          -3.7863   -9.5337    0.9012 C.ar    1  LIG1        0.0461
     39 N          -4.5061   -8.3369    0.8099 N.ar    1  LIG1       -0.3549
     40 H          -5.2162   -8.0971    1.4875 H       1  LIG1        0.1655
     41 H          -4.2247  -10.4298    1.3091 H       1  LIG1        0.0845
     42 N          -1.3581   -7.4481   -0.7887 N.pl3   1  LIG1       -0.3535
     43 H          -1.6331   -6.8553   -1.5668 H       1  LIG1        0.1425
     44 H          -0.7211   -6.9131   -0.2035 H       1  LIG1        0.1425
     45 O          -1.5622  -10.1979    0.1070 O.3     1  LIG1       -0.5035
     46 H          -0.9215   -9.7187   -0.4479 H       1  LIG1        0.2923
@<TRIPOS>BOND
     1    31    30    1
     2    43    42    1
     3     6     5    1
     4     7     1    1
     5    42    44    1
     6    42    36    1
     7    20    19    1
     8    30    25    1
     9    30    32    1
    10     5     1   ar
    11     5     4   ar
    12     1     2   ar
    13    34    33    1
    14    46    45    1
    15    33    26    1
    16    25    26   ar
    17    25    24   ar
    18    18    17    1
    19    17    16   ar
    20    17    13   ar
    21    26    27   ar
    22     4    13    1
    23     4     3   ar
    24    24    16    1
    25    24    28   ar
    26    16    15   ar
    27    23    22    1
    28    13    14   ar
    29     9     8    1
    30    36    35   ar
    31    36    37   ar
    32    15    14   ar
    33    15    22    1
    34    14    19    1
    35    28    27   ar
    36    28    29    1
    37     2     3   ar
    38     2     8    1
    39    27    35    1
    40    45    37    1
    41    19    21    1
    42     3    11    1
    43    35    39   ar
    44    37    38   ar
    45     8    10    1
    46    12    11    1
    47    39    38   ar
    48    39    40    1
    49    38    41    1
