@<TRIPOS>MOLECULE
mol_data/opt/b3lyp/geoms/mol2/13hf13hf-13hf.out
 35 37 0 0 0
SMALL
GASTEIGER

@<TRIPOS>ATOM
      1 C           1.2341   -0.2145    0.4283 C.ar    1  LIG1        0.0267
      2 C           0.8315    0.9944   -0.1030 C.ar    1  LIG1        0.0849
      3 C          -0.5716    0.8920   -0.3249 C.ar    1  LIG1        0.1643
      4 C          -1.0018   -0.3662    0.0696 C.ar    1  LIG1        0.1087
      5 N           0.1327   -1.0597    0.4743 N.ar    1  LIG1       -0.3549
      6 H           0.0768   -1.8467    1.1006 H       1  LIG1        0.1655
      7 H           2.2107   -0.5504    0.7414 H       1  LIG1        0.0827
      8 N           1.5905    2.1473   -0.3687 N.pl3   1  LIG1       -0.3540
      9 H           2.5174    1.9389   -0.7204 H       1  LIG1        0.1425
     10 H           1.1070    2.7541   -1.0217 H       1  LIG1        0.1425
     11 O          -1.3024    1.9057   -0.9003 O.3     1  LIG1       -0.5031
     12 H          -2.0783    1.5153   -1.3281 H       1  LIG1        0.2923
     13 C          -2.3217   -0.9438    0.0211 C.ar    1  LIG1        0.0916
     14 C          -2.7536   -2.2663   -0.1331 C.ar    1  LIG1        0.0945
     15 C          -4.1678   -2.2399   -0.2026 C.ar    1  LIG1        0.1650
     16 C          -4.5982   -0.9287   -0.0886 C.ar    1  LIG1        0.1092
     17 N          -3.4533   -0.1518    0.0238 N.ar    1  LIG1       -0.3473
     18 H          -3.5268    0.8245    0.2955 H       1  LIG1        0.1662
     19 N          -2.0365   -3.4885   -0.3071 N.pl3   1  LIG1       -0.3534
     20 H          -1.2439   -3.3766   -0.9337 H       1  LIG1        0.1425
     21 H          -1.6844   -3.8652    0.5699 H       1  LIG1        0.1425
     22 O          -4.9655   -3.3350   -0.3845 O.3     1  LIG1       -0.5030
     23 H          -4.3501   -4.0667   -0.5645 H       1  LIG1        0.2923
     24 C          -5.9143   -0.3545   -0.0586 C.ar    1  LIG1        0.0912
     25 C          -6.3042    0.9687    0.1366 C.ar    1  LIG1        0.0938
     26 C          -7.7266    0.9928    0.0818 C.ar    1  LIG1        0.1554
     27 C          -8.1740   -0.2942   -0.1411 C.ar    1  LIG1        0.0461
     28 N          -7.0516   -1.1027   -0.2240 N.ar    1  LIG1       -0.3549
     29 H          -7.0408   -2.0988   -0.3789 H       1  LIG1        0.1655
     30 H          -9.1712   -0.6935   -0.2455 H       1  LIG1        0.0845
     31 N          -5.3911    2.0506    0.3630 N.pl3   1  LIG1       -0.3535
     32 H          -5.5218    2.7781   -0.3380 H       1  LIG1        0.1425
     33 H          -5.5861    2.4956    1.2585 H       1  LIG1        0.1425
     34 O          -8.4406    2.1537    0.2381 O.3     1  LIG1       -0.5035
     35 H          -9.3818    1.9493    0.1757 H       1  LIG1        0.2923
@<TRIPOS>BOND
     1    12    11    1
     2    10     8    1
     3    20    19    1
     4    11     3    1
     5     9     8    1
     6    23    22    1
     7    22    15    1
     8    29    28    1
     9     8     2    1
    10    32    31    1
    11     3     2   ar
    12     3     4   ar
    13    19    14    1
    14    19    21    1
    15    30    27    1
    16    28    27   ar
    17    28    24   ar
    18    15    14   ar
    19    15    16   ar
    20    27    26   ar
    21    14    13   ar
    22     2     1   ar
    23    16    24    1
    24    16    17   ar
    25    24    25   ar
    26    13    17   ar
    27    13     4    1
    28    17    18    1
    29     4     5   ar
    30    26    25   ar
    31    26    34    1
    32    25    31    1
    33    35    34    1
    34    31    33    1
    35     1     5   ar
    36     1     7    1
    37     5     6    1
