@<TRIPOS>MOLECULE
mol_data/opt/b3lyp/geoms/mol2/13hf13hf13hf-13hf.out
 46 49 0 0 0
SMALL
GASTEIGER

@<TRIPOS>ATOM
      1 C           1.3092   -0.1263    0.4445 C.ar    1  LIG1        0.0267
      2 C           0.8004    1.1439    0.5947 C.ar    1  LIG1        0.0849
      3 C          -0.6060    1.0646    0.3377 C.ar    1  LIG1        0.1643
      4 C          -0.9205   -0.2560    0.0464 C.ar    1  LIG1        0.1087
      5 N           0.2586   -1.0028    0.1696 N.ar    1  LIG1       -0.3549
      6 H           0.4120   -1.7886   -0.4482 H       1  LIG1        0.1655
      7 H           2.3203   -0.4893    0.5522 H       1  LIG1        0.0827
      8 N           1.4361    2.3199    1.0214 N.pl3   1  LIG1       -0.3540
      9 H           2.3716    2.4304    0.6490 H       1  LIG1        0.1425
     10 H           0.8733    3.1324    0.7951 H       1  LIG1        0.1425
     11 O          -1.4171    2.1434    0.4326 O.3     1  LIG1       -0.5031
     12 H          -2.2758    1.9211   -0.0185 H       1  LIG1        0.2923
     13 C          -2.1902   -0.8638   -0.2421 C.ar    1  LIG1        0.0916
     14 C          -3.3966   -0.2935   -0.6358 C.ar    1  LIG1        0.0945
     15 C          -4.3513   -1.3404   -0.7372 C.ar    1  LIG1        0.1650
     16 C          -3.7362   -2.5381   -0.4067 C.ar    1  LIG1        0.1092
     17 N          -2.3886   -2.2338   -0.1653 N.ar    1  LIG1       -0.3473
     18 H          -1.8252   -2.7984    0.4527 H       1  LIG1        0.1662
     19 N          -3.5979    1.0983   -0.9154 N.pl3   1  LIG1       -0.3534
     20 H          -3.5406    1.2862   -1.9161 H       1  LIG1        0.1425
     21 H          -4.5334    1.3759   -0.6261 H       1  LIG1        0.1425
     22 O          -5.6382   -1.1314   -1.1507 O.3     1  LIG1       -0.5030
     23 H          -6.0403   -1.9940   -1.3338 H       1  LIG1        0.2923
     24 C          -4.2793   -3.8711   -0.3802 C.ar    1  LIG1        0.0916
     25 C          -3.7194   -5.1162   -0.6860 C.ar    1  LIG1        0.0945
     26 C          -4.7546   -6.0790   -0.5850 C.ar    1  LIG1        0.1650
     27 C          -5.9278   -5.4416   -0.2214 C.ar    1  LIG1        0.1092
     28 N          -5.6235   -4.0875   -0.1285 N.ar    1  LIG1       -0.3473
     29 H          -6.2673   -3.4669    0.3550 H       1  LIG1        0.1662
     30 N          -2.4192   -5.4908   -1.1412 N.pl3   1  LIG1       -0.3534
     31 H          -2.0671   -4.8484   -1.8459 H       1  LIG1        0.1425
     32 H          -1.7362   -5.5225   -0.3881 H       1  LIG1        0.1425
     33 O          -4.6107   -7.4126   -0.8434 O.3     1  LIG1       -0.5030
     34 H          -3.7101   -7.5035   -1.2005 H       1  LIG1        0.2923
     35 C          -7.2411   -5.9448    0.0674 C.ar    1  LIG1        0.0912
     36 C          -8.3677   -5.2736    0.5381 C.ar    1  LIG1        0.0938
     37 C          -9.4021   -6.2427    0.6684 C.ar    1  LIG1        0.1554
     38 C          -8.8985   -7.4691    0.2828 C.ar    1  LIG1        0.0461
     39 N          -7.5773   -7.2660   -0.0821 N.ar    1  LIG1       -0.3549
     40 H          -6.9301   -7.9685   -0.4042 H       1  LIG1        0.1655
     41 H          -9.3575   -8.4448    0.2372 H       1  LIG1        0.0845
     42 N          -8.4035   -3.8714    0.8382 N.pl3   1  LIG1       -0.3535
     43 H          -9.1151   -3.4071    0.2756 H       1  LIG1        0.1425
     44 H          -8.6862   -3.7279    1.8065 H       1  LIG1        0.1425
     45 O         -10.6560   -5.9113    1.1149 O.3     1  LIG1       -0.5035
     46 H         -11.1945   -6.7115    1.1492 H       1  LIG1        0.2923
@<TRIPOS>BOND
     1    20    19    1
     2    31    30    1
     3    23    22    1
     4    34    33    1
     5    22    15    1
     6    30    25    1
     7    30    32    1
     8    19    14    1
     9    19    21    1
    10    33    26    1
    11    15    14   ar
    12    15    16   ar
    13    25    26   ar
    14    25    24   ar
    15    14    13   ar
    16    26    27   ar
    17     6     5    1
    18    16    24    1
    19    16    17   ar
    20    40    39    1
    21    24    28   ar
    22    13    17   ar
    23    13     4    1
    24    27    28   ar
    25    27    35    1
    26    17    18    1
    27    28    29    1
    28    39    35   ar
    29    39    38   ar
    30    12    11    1
    31     4     5   ar
    32     4     3   ar
    33    35    36   ar
    34     5     1   ar
    35    41    38    1
    36    43    42    1
    37    38    37   ar
    38     3    11    1
    39     3     2   ar
    40     1     7    1
    41     1     2   ar
    42    36    37   ar
    43    36    42    1
    44     2     8    1
    45     9     8    1
    46    37    45    1
    47    10     8    1
    48    42    44    1
    49    45    46    1
