@<TRIPOS>MOLECULE
mol_data/opt/b3lyp/geoms/mol2/13hf13hf13hf-13hf-.out
 46 49 0 0 0
SMALL
GASTEIGER

@<TRIPOS>ATOM
      1 C           1.3644   -0.1713    0.2107 C.ar    1  LIG1        0.0267
      2 C           0.8844    1.0772    0.5356 C.ar    1  LIG1        0.0849
      3 C          -0.5407    1.0235    0.4059 C.ar    1  LIG1        0.1643
      4 C          -0.8932   -0.2616    0.0139 C.ar    1  LIG1        0.1087
      5 N           0.2858   -1.0173   -0.0502 N.ar    1  LIG1       -0.3549
      6 H           0.3753   -1.7317   -0.7607 H       1  LIG1        0.1655
      7 H           2.3782   -0.5418    0.1822 H       1  LIG1        0.0827
      8 N           1.5671    2.2031    1.0175 N.pl3   1  LIG1       -0.3540
      9 H           2.4706    2.3464    0.5829 H       1  LIG1        0.1425
     10 H           0.9976    3.0367    0.9257 H       1  LIG1        0.1425
     11 O          -1.3285    2.0852    0.6876 O.3     1  LIG1       -0.5031
     12 H          -2.2302    1.9089    0.3053 H       1  LIG1        0.2923
     13 C          -2.1897   -0.8391   -0.2029 C.ar    1  LIG1        0.0916
     14 C          -3.4257   -0.2326   -0.4113 C.ar    1  LIG1        0.0945
     15 C          -4.3954   -1.2647   -0.5070 C.ar    1  LIG1        0.1650
     16 C          -3.7604   -2.4893   -0.3575 C.ar    1  LIG1        0.1092
     17 N          -2.3906   -2.2108   -0.2358 N.ar    1  LIG1       -0.3473
     18 H          -1.7709   -2.8269    0.2691 H       1  LIG1        0.1662
     19 N          -3.6400    1.1793   -0.5331 N.pl3   1  LIG1       -0.3534
     20 H          -3.6749    1.4660   -1.5112 H       1  LIG1        0.1425
     21 H          -4.5400    1.4290   -0.1290 H       1  LIG1        0.1425
     22 O          -5.7172   -1.0292   -0.7601 O.3     1  LIG1       -0.5030
     23 H          -6.1329   -1.8846   -0.9535 H       1  LIG1        0.2923
     24 C          -4.3219   -3.8104   -0.4080 C.ar    1  LIG1        0.0916
     25 C          -3.8289   -5.0285   -0.8469 C.ar    1  LIG1        0.0945
     26 C          -4.8768   -5.9897   -0.7216 C.ar    1  LIG1        0.1650
     27 C          -5.9981   -5.3790   -0.2016 C.ar    1  LIG1        0.1092
     28 N          -5.6691   -4.0117   -0.0582 N.ar    1  LIG1       -0.3473
     29 H          -6.0296   -3.5160    0.7484 H       1  LIG1        0.1662
     30 N          -2.6041   -5.3859   -1.4826 N.pl3   1  LIG1       -0.3534
     31 H          -2.2781   -4.6570   -2.1110 H       1  LIG1        0.1425
     32 H          -1.8595   -5.5781   -0.8167 H       1  LIG1        0.1425
     33 O          -4.7554   -7.2769   -1.1497 O.3     1  LIG1       -0.5030
     34 H          -3.9087   -7.3030   -1.6314 H       1  LIG1        0.2923
     35 C          -7.3025   -5.8893    0.1306 C.ar    1  LIG1        0.0912
     36 C          -7.7175   -7.1753    0.4660 C.ar    1  LIG1        0.0938
     37 C          -9.1262   -7.1266    0.6720 C.ar    1  LIG1        0.1554
     38 C          -9.5537   -5.8338    0.4780 C.ar    1  LIG1        0.0461
     39 N          -8.4228   -5.0764    0.1830 N.ar    1  LIG1       -0.3549
     40 H          -8.4698   -4.1926   -0.2990 H       1  LIG1        0.1655
     41 H         -10.5339   -5.3907    0.5464 H       1  LIG1        0.0845
     42 N          -6.9959   -8.3915    0.6391 N.pl3   1  LIG1       -0.3535
     43 H          -6.2884   -8.4999   -0.0841 H       1  LIG1        0.1425
     44 H          -6.5078   -8.4094    1.5329 H       1  LIG1        0.1425
     45 O          -9.8678   -8.2090    1.0281 O.3     1  LIG1       -0.5035
     46 H          -9.2404   -8.9529    0.9882 H       1  LIG1        0.2923
@<TRIPOS>BOND
     1    31    30    1
     2    34    33    1
     3    20    19    1
     4    30    25    1
     5    30    32    1
     6    33    26    1
     7    23    22    1
     8    25    26   ar
     9    25    24   ar
    10     6     5    1
    11    22    15    1
    12    26    27   ar
    13    19    14    1
    14    19    21    1
    15    15    14   ar
    16    15    16   ar
    17    14    13   ar
    18    24    16    1
    19    24    28   ar
    20    16    17   ar
    21    40    39    1
    22    17    13   ar
    23    17    18    1
    24    13     4    1
    25    27    28   ar
    26    27    35    1
    27    43    42    1
    28    28    29    1
    29     5     4   ar
    30     5     1   ar
    31     4     3   ar
    32    35    39   ar
    33    35    36   ar
    34     7     1    1
    35    39    38   ar
    36     1     2   ar
    37    12    11    1
    38     3     2   ar
    39     3    11    1
    40    36    42    1
    41    36    37   ar
    42    38    41    1
    43    38    37   ar
    44     2     8    1
    45     9     8    1
    46    42    44    1
    47    37    45    1
    48    10     8    1
    49    46    45    1
