@<TRIPOS>MOLECULE
mol_data/opt/b3lyp/geoms/mol2/13hg13hg13hg13hg-.out
 46 49 0 0 0
SMALL
GASTEIGER

@<TRIPOS>ATOM
      1 C           0.7842    0.3877   -1.9265 C.ar    1  LIG1        0.0241
      2 C           0.9031    1.1372   -0.7740 C.ar    1  LIG1        0.0561
      3 C          -0.2179    0.8131    0.0596 C.ar    1  LIG1        0.0522
      4 C          -0.9934   -0.1249   -0.6157 C.ar    1  LIG1        0.0799
      5 N          -0.3515   -0.4026   -1.8107 N.ar    1  LIG1       -0.3570
      6 H          -0.8357   -0.7881   -2.6068 H       1  LIG1        0.1655
      7 H           1.4304    0.3205   -2.7886 H       1  LIG1        0.0826
      8 N           1.9566    1.9791   -0.3929 N.pl3   1  LIG1       -0.3560
      9 H           2.4248    2.4151   -1.1778 H       1  LIG1        0.1424
     10 H           1.6504    2.6853    0.2684 H       1  LIG1        0.1424
     11 S          -0.4136    1.4208    1.7169 S.3     1  LIG1       -0.1388
     12 H          -1.7648    1.5916    1.6659 H       1  LIG1        0.1072
     13 C          -2.2449   -0.7472   -0.2422 C.ar    1  LIG1        0.0865
     14 C          -3.3948   -0.1902    0.3103 C.ar    1  LIG1        0.0657
     15 C          -4.3383   -1.2391    0.5095 C.ar    1  LIG1        0.0529
     16 C          -3.7615   -2.4236    0.0483 C.ar    1  LIG1        0.0804
     17 N          -2.5018   -2.0997   -0.4181 N.ar    1  LIG1       -0.3494
     18 H          -1.8476   -2.7510   -0.8208 H       1  LIG1        0.1661
     19 N          -3.5716    1.1690    0.6428 N.pl3   1  LIG1       -0.3554
     20 H          -3.2752    1.7829   -0.1106 H       1  LIG1        0.1424
     21 H          -4.5425    1.3626    0.8722 H       1  LIG1        0.1424
     22 S          -5.9059   -1.0241    1.3156 S.3     1  LIG1       -0.1388
     23 H          -6.6267   -1.8292    0.4841 H       1  LIG1        0.1072
     24 C          -4.3044   -3.7642   -0.0010 C.ar    1  LIG1        0.0865
     25 C          -5.5496   -4.2062   -0.4377 C.ar    1  LIG1        0.0657
     26 C          -5.6084   -5.6163   -0.2447 C.ar    1  LIG1        0.0529
     27 C          -4.3835   -6.0231    0.2845 C.ar    1  LIG1        0.0804
     28 N          -3.6008   -4.8912    0.4037 N.ar    1  LIG1       -0.3494
     29 H          -2.6698   -4.8736    0.7880 H       1  LIG1        0.1661
     30 N          -6.5783   -3.3879   -0.9495 N.pl3   1  LIG1       -0.3554
     31 H          -6.2326   -2.7428   -1.6542 H       1  LIG1        0.1424
     32 H          -7.3249   -3.9508   -1.3477 H       1  LIG1        0.1424
     33 S          -7.0502   -6.6044   -0.5549 S.3     1  LIG1       -0.1388
     34 H          -6.3916   -7.6672   -1.1018 H       1  LIG1        0.1072
     35 C          -3.9156   -7.3467    0.6419 C.ar    1  LIG1        0.0860
     36 C          -4.0037   -8.5487   -0.0479 C.ar    1  LIG1        0.0650
     37 C          -3.3963   -9.5584    0.7652 C.ar    1  LIG1        0.0434
     38 C          -2.9581   -8.9477    1.9264 C.ar    1  LIG1        0.0173
     39 N          -3.2415   -7.6162    1.8319 N.ar    1  LIG1       -0.3570
     40 H          -3.1882   -6.9628    2.5979 H       1  LIG1        0.1655
     41 H          -2.4694   -9.3709    2.7905 H       1  LIG1        0.0819
     42 N          -4.5972   -8.7341   -1.3126 N.pl3   1  LIG1       -0.3554
     43 H          -4.2069   -8.1210   -2.0219 H       1  LIG1        0.1424
     44 H          -4.5142   -9.7016   -1.6116 H       1  LIG1        0.1424
     45 S          -3.2830  -11.2847    0.3704 S.3     1  LIG1       -0.1394
     46 H          -2.0946  -11.2768   -0.2781 H       1  LIG1        0.1072
@<TRIPOS>BOND
     1     7     1    1
     2     6     5    1
     3    43    42    1
     4     1     5   ar
     5     1     2   ar
     6     5     4   ar
     7    31    30    1
     8    44    42    1
     9    32    30    1
    10    42    36    1
    11     9     8    1
    12    34    33    1
    13    30    25    1
    14    18    17    1
    15     2     8    1
    16     2     3   ar
    17     4    13    1
    18     4     3   ar
    19    33    26    1
    20    25    26   ar
    21    25    24   ar
    22    17    13   ar
    23    17    16   ar
    24     8    10    1
    25    46    45    1
    26    26    27   ar
    27    13    14   ar
    28    20    19    1
    29    36    35   ar
    30    36    37   ar
    31    24    16    1
    32    24    28   ar
    33    16    15   ar
    34     3    11    1
    35    27    28   ar
    36    27    35    1
    37    14    15   ar
    38    14    19    1
    39    45    37    1
    40    28    29    1
    41    23    22    1
    42    15    22    1
    43    35    39   ar
    44    19    21    1
    45    37    38   ar
    46    12    11    1
    47    39    38   ar
    48    39    40    1
    49    38    41    1
