@<TRIPOS>MOLECULE
mol_data/opt/b3lyp/geoms/mol2/13hg13hg-13hg-13hg-.out
 46 49 0 0 0
SMALL
GASTEIGER

@<TRIPOS>ATOM
      1 C           0.7739    0.3862   -1.9345 C.ar    1  LIG1        0.0241
      2 C           0.8966    1.1390   -0.7845 C.ar    1  LIG1        0.0561
      3 C          -0.2206    0.8159    0.0546 C.ar    1  LIG1        0.0522
      4 C          -0.9978   -0.1248   -0.6151 C.ar    1  LIG1        0.0799
      5 N          -0.3604   -0.4050   -1.8119 N.ar    1  LIG1       -0.3570
      6 H          -0.8476   -0.7927   -2.6051 H       1  LIG1        0.1655
      7 H           1.4168    0.3174   -2.7989 H       1  LIG1        0.0826
      8 N           1.9508    1.9829   -0.4099 N.pl3   1  LIG1       -0.3560
      9 H           2.4155    2.4174   -1.1978 H       1  LIG1        0.1424
     10 H           1.6466    2.6906    0.2508 H       1  LIG1        0.1424
     11 S          -0.4104    1.4279    1.7108 S.3     1  LIG1       -0.1388
     12 H          -1.7620    1.5972    1.6647 H       1  LIG1        0.1072
     13 C          -2.2472   -0.7472   -0.2349 C.ar    1  LIG1        0.0865
     14 C          -3.3955   -0.1899    0.3205 C.ar    1  LIG1        0.0657
     15 C          -4.3371   -1.2391    0.5264 C.ar    1  LIG1        0.0529
     16 C          -3.7609   -2.4244    0.0662 C.ar    1  LIG1        0.0804
     17 N          -2.5035   -2.1005   -0.4061 N.ar    1  LIG1       -0.3494
     18 H          -1.8499   -2.7523   -0.8091 H       1  LIG1        0.1661
     19 N          -3.5723    1.1701    0.6500 N.pl3   1  LIG1       -0.3554
     20 H          -3.2799    1.7823   -0.1064 H       1  LIG1        0.1424
     21 H          -4.5425    1.3633    0.8831 H       1  LIG1        0.1424
     22 S          -5.9018   -1.0235    1.3379 S.3     1  LIG1       -0.1388
     23 H          -6.6252   -1.8310    0.5109 H       1  LIG1        0.1072
     24 C          -4.3030   -3.7655    0.0227 C.ar    1  LIG1        0.0865
     25 C          -5.5494   -4.2094   -0.4087 C.ar    1  LIG1        0.0657
     26 C          -5.6069   -5.6190   -0.2112 C.ar    1  LIG1        0.0529
     27 C          -4.3802   -6.0236    0.3154 C.ar    1  LIG1        0.0804
     28 N          -3.5977   -4.8909    0.4287 N.ar    1  LIG1       -0.3494
     29 H          -2.6653   -4.8719    0.8098 H       1  LIG1        0.1661
     30 N          -6.5802   -3.3932   -0.9194 N.pl3   1  LIG1       -0.3554
     31 H          -6.2370   -2.7495   -1.6266 H       1  LIG1        0.1424
     32 H          -7.3276   -3.9576   -1.3141 H       1  LIG1        0.1424
     33 S          -7.0493   -6.6086   -0.5136 S.3     1  LIG1       -0.1388
     34 H          -6.3920   -7.6730   -1.0589 H       1  LIG1        0.1072
     35 C          -3.9106   -7.3458    0.6755 C.ar    1  LIG1        0.0860
     36 C          -4.0003   -8.5501   -0.0101 C.ar    1  LIG1        0.0650
     37 C          -3.3897   -9.5569    0.8042 C.ar    1  LIG1        0.0434
     38 C          -2.9480   -8.9422    1.9620 C.ar    1  LIG1        0.0173
     39 N          -3.2324   -7.6112    1.8641 N.ar    1  LIG1       -0.3570
     40 H          -3.1768   -6.9553    2.6278 H       1  LIG1        0.1655
     41 H          -2.4563   -9.3624    2.8258 H       1  LIG1        0.0819
     42 N          -4.5979   -8.7398   -1.2723 N.pl3   1  LIG1       -0.3554
     43 H          -4.2102   -8.1288   -1.9848 H       1  LIG1        0.1424
     44 H          -4.5154   -9.7082   -1.5684 H       1  LIG1        0.1424
     45 S          -3.2770  -11.2843    0.4145 S.3     1  LIG1       -0.1394
     46 H          -2.0904  -11.2781   -0.2374 H       1  LIG1        0.1072
@<TRIPOS>BOND
     1     7     1    1
     2     6     5    1
     3    43    42    1
     4     1     5   ar
     5     1     2   ar
     6     5     4   ar
     7    31    30    1
     8    44    42    1
     9    32    30    1
    10    42    36    1
    11     9     8    1
    12    34    33    1
    13    30    25    1
    14    18    17    1
    15     2     8    1
    16     2     3   ar
    17     4    13    1
    18     4     3   ar
    19    33    26    1
    20     8    10    1
    21    25    26   ar
    22    25    24   ar
    23    17    13   ar
    24    17    16   ar
    25    46    45    1
    26    13    14   ar
    27    26    27   ar
    28    20    19    1
    29    36    35   ar
    30    36    37   ar
    31    24    16    1
    32    24    28   ar
    33     3    11    1
    34    16    15   ar
    35    27    28   ar
    36    27    35    1
    37    14    15   ar
    38    14    19    1
    39    45    37    1
    40    28    29    1
    41    23    22    1
    42    15    22    1
    43    19    21    1
    44    35    39   ar
    45    37    38   ar
    46    12    11    1
    47    39    38   ar
    48    39    40    1
    49    38    41    1
