@<TRIPOS>MOLECULE
mol_data/opt/b3lyp/geoms/mol2/13hg13hg-13hg13hg.out
 46 49 0 0 0
SMALL
GASTEIGER

@<TRIPOS>ATOM
      1 C           0.7603    0.3893   -1.9424 C.ar    1  LIG1        0.0241
      2 C           0.8801    1.1487   -0.7964 C.ar    1  LIG1        0.0561
      3 C          -0.2362    0.8262    0.0441 C.ar    1  LIG1        0.0522
      4 C          -1.0101   -0.1206   -0.6207 C.ar    1  LIG1        0.0799
      5 N          -0.3715   -0.4050   -1.8159 N.ar    1  LIG1       -0.3570
      6 H          -0.8568   -0.7991   -2.6070 H       1  LIG1        0.1655
      7 H           1.4035    0.3182   -2.8064 H       1  LIG1        0.0826
      8 N           1.9314    1.9982   -0.4261 N.pl3   1  LIG1       -0.3560
      9 H           2.3943    2.4304   -1.2163 H       1  LIG1        0.1424
     10 H           1.6245    2.7082    0.2308 H       1  LIG1        0.1424
     11 S          -0.4284    1.4466    1.6971 S.3     1  LIG1       -0.1388
     12 H          -1.7806    1.6107    1.6499 H       1  LIG1        0.1072
     13 C          -2.2574   -0.7454   -0.2374 C.ar    1  LIG1        0.0865
     14 C          -3.4077   -0.1892    0.3150 C.ar    1  LIG1        0.0657
     15 C          -4.3455   -1.2407    0.5265 C.ar    1  LIG1        0.0529
     16 C          -3.7651   -2.4264    0.0728 C.ar    1  LIG1        0.0804
     17 N          -2.5088   -2.1005   -0.4012 N.ar    1  LIG1       -0.3494
     18 H          -1.8529   -2.7521   -0.8008 H       1  LIG1        0.1661
     19 N          -3.5894    1.1718    0.6371 N.pl3   1  LIG1       -0.3554
     20 H          -3.2984    1.7810   -0.1222 H       1  LIG1        0.1424
     21 H          -4.5604    1.3630    0.8686 H       1  LIG1        0.1424
     22 S          -5.9110   -1.0262    1.3370 S.3     1  LIG1       -0.1388
     23 H          -6.6315   -1.8408    0.5145 H       1  LIG1        0.1072
     24 C          -4.3022   -3.7696    0.0364 C.ar    1  LIG1        0.0865
     25 C          -5.5471   -4.2205   -0.3922 C.ar    1  LIG1        0.0657
     26 C          -5.5991   -5.6293   -0.1876 C.ar    1  LIG1        0.0529
     27 C          -4.3705   -6.0265    0.3405 C.ar    1  LIG1        0.0804
     28 N          -3.5924   -4.8902    0.4477 N.ar    1  LIG1       -0.3494
     29 H          -2.6601   -4.8655    0.8286 H       1  LIG1        0.1661
     30 N          -6.5811   -3.4109   -0.9070 N.pl3   1  LIG1       -0.3554
     31 H          -6.2407   -2.7700   -1.6180 H       1  LIG1        0.1424
     32 H          -7.3266   -3.9803   -1.2981 H       1  LIG1        0.1424
     33 S          -7.0378   -6.6259   -0.4847 S.3     1  LIG1       -0.1388
     34 H          -6.3765   -7.6905   -1.0248 H       1  LIG1        0.1072
     35 C          -3.8956   -7.3450    0.7069 C.ar    1  LIG1        0.0860
     36 C          -3.9810   -8.5530    0.0274 C.ar    1  LIG1        0.0650
     37 C          -3.3662   -9.5535    0.8464 C.ar    1  LIG1        0.0434
     38 C          -2.9264   -8.9313    2.0010 C.ar    1  LIG1        0.0173
     39 N          -3.2160   -7.6019    1.8966 N.ar    1  LIG1       -0.3570
     40 H          -3.1627   -6.9420    2.6570 H       1  LIG1        0.1655
     41 H          -2.4326   -9.3453    2.8666 H       1  LIG1        0.0819
     42 N          -4.5784   -8.7514   -1.2336 N.pl3   1  LIG1       -0.3554
     43 H          -4.1932   -8.1426   -1.9493 H       1  LIG1        0.1424
     44 H          -4.4923   -9.7211   -1.5249 H       1  LIG1        0.1424
     45 S          -3.2469  -11.2824    0.4653 S.3     1  LIG1       -0.1394
     46 H          -2.0608  -11.2746   -0.1875 H       1  LIG1        0.1072
@<TRIPOS>BOND
     1     7     1    1
     2     6     5    1
     3    43    42    1
     4     1     5   ar
     5     1     2   ar
     6     5     4   ar
     7    31    30    1
     8    44    42    1
     9    32    30    1
    10    42    36    1
    11     9     8    1
    12    34    33    1
    13    30    25    1
    14    18    17    1
    15     2     8    1
    16     2     3   ar
    17     4    13    1
    18     4     3   ar
    19    33    26    1
    20     8    10    1
    21    17    13   ar
    22    17    16   ar
    23    25    26   ar
    24    25    24   ar
    25    13    14   ar
    26    26    27   ar
    27    46    45    1
    28    20    19    1
    29    36    35   ar
    30    36    37   ar
    31    24    16    1
    32    24    28   ar
    33     3    11    1
    34    16    15   ar
    35    14    15   ar
    36    14    19    1
    37    27    28   ar
    38    27    35    1
    39    28    29    1
    40    45    37    1
    41    23    22    1
    42    15    22    1
    43    19    21    1
    44    35    39   ar
    45    37    38   ar
    46    12    11    1
    47    39    38   ar
    48    39    40    1
    49    38    41    1
