@<TRIPOS>MOLECULE
mol_data/opt/b3lyp/geoms/mol2/13hg13hg13hg-13hg-.out
 46 49 0 0 0
SMALL
GASTEIGER

@<TRIPOS>ATOM
      1 C           0.7803    0.3927   -1.9345 C.ar    1  LIG1        0.0241
      2 C           0.9060    1.1356   -0.7784 C.ar    1  LIG1        0.0561
      3 C          -0.2112    0.8084    0.0590 C.ar    1  LIG1        0.0522
      4 C          -0.9914   -0.1248   -0.6175 C.ar    1  LIG1        0.0799
      5 N          -0.3560   -0.3967   -1.8173 N.ar    1  LIG1       -0.3570
      6 H          -0.8447   -0.7769   -2.6131 H       1  LIG1        0.1655
      7 H           1.4222    0.3293   -2.8000 H       1  LIG1        0.0826
      8 N           1.9627    1.9739   -0.3980 N.pl3   1  LIG1       -0.3560
      9 H           2.4273    2.4139   -1.1828 H       1  LIG1        0.1424
     10 H           1.6609    2.6766    0.2691 H       1  LIG1        0.1424
     11 S          -0.3976    1.4072    1.7206 S.3     1  LIG1       -0.1388
     12 H          -1.7489    1.5802    1.6774 H       1  LIG1        0.1072
     13 C          -2.2419   -0.7473   -0.2412 C.ar    1  LIG1        0.0865
     14 C          -3.3881   -0.1918    0.3203 C.ar    1  LIG1        0.0657
     15 C          -4.3321   -1.2404    0.5187 C.ar    1  LIG1        0.0529
     16 C          -3.7593   -2.4232    0.0479 C.ar    1  LIG1        0.0804
     17 N          -2.5017   -2.0985   -0.4232 N.ar    1  LIG1       -0.3494
     18 H          -1.8504   -2.7485   -0.8327 H       1  LIG1        0.1661
     19 N          -3.5613    1.1658    0.6612 N.pl3   1  LIG1       -0.3554
     20 H          -3.2675    1.7835   -0.0901 H       1  LIG1        0.1424
     21 H          -4.5308    1.3596    0.8965 H       1  LIG1        0.1424
     22 S          -5.8951   -1.0277    1.3342 S.3     1  LIG1       -0.1388
     23 H          -6.6215   -1.8269    0.5019 H       1  LIG1        0.1072
     24 C          -4.3045   -3.7627   -0.0059 C.ar    1  LIG1        0.0865
     25 C          -5.5527   -4.2003   -0.4387 C.ar    1  LIG1        0.0657
     26 C          -5.6127   -5.6115   -0.2530 C.ar    1  LIG1        0.0529
     27 C          -4.3857   -6.0230    0.2676 C.ar    1  LIG1        0.0804
     28 N          -3.6007   -4.8930    0.3890 N.ar    1  LIG1       -0.3494
     29 H          -2.6675   -4.8790    0.7684 H       1  LIG1        0.1661
     30 N          -6.5826   -3.3777   -0.9407 N.pl3   1  LIG1       -0.3554
     31 H          -6.2395   -2.7292   -1.6435 H       1  LIG1        0.1424
     32 H          -7.3321   -3.9373   -1.3384 H       1  LIG1        0.1424
     33 S          -7.0576   -6.5956   -0.5614 S.3     1  LIG1       -0.1388
     34 H          -6.4033   -7.6565   -1.1171 H       1  LIG1        0.1072
     35 C          -3.9180   -7.3492    0.6154 C.ar    1  LIG1        0.0860
     36 C          -4.0114   -8.5474   -0.0804 C.ar    1  LIG1        0.0650
     37 C          -3.4014   -9.5624    0.7242 C.ar    1  LIG1        0.0434
     38 C          -2.9565   -8.9585    1.8865 C.ar    1  LIG1        0.0173
     39 N          -3.2384   -7.6262    1.8005 N.ar    1  LIG1       -0.3570
     40 H          -3.1798   -6.9768    2.5696 H       1  LIG1        0.1655
     41 H          -2.4640   -9.3871    2.7458 H       1  LIG1        0.0819
     42 N          -4.6117   -8.7251   -1.3430 N.pl3   1  LIG1       -0.3554
     43 H          -4.2240   -8.1090   -2.0511 H       1  LIG1        0.1424
     44 H          -4.5318   -9.6912   -1.6475 H       1  LIG1        0.1424
     45 S          -3.2929  -11.2867    0.3196 S.3     1  LIG1       -0.1394
     46 H          -2.1077  -11.2772   -0.3348 H       1  LIG1        0.1072
@<TRIPOS>BOND
     1     7     1    1
     2     6     5    1
     3    43    42    1
     4     1     5   ar
     5     1     2   ar
     6     5     4   ar
     7    44    42    1
     8    31    30    1
     9    42    36    1
    10    32    30    1
    11     9     8    1
    12    34    33    1
    13    30    25    1
    14    18    17    1
    15     2     8    1
    16     2     3   ar
    17     4    13    1
    18     4     3   ar
    19    33    26    1
    20    25    26   ar
    21    25    24   ar
    22    17    13   ar
    23    17    16   ar
    24     8    10    1
    25    46    45    1
    26    26    27   ar
    27    13    14   ar
    28    20    19    1
    29    36    35   ar
    30    36    37   ar
    31    24    16    1
    32    24    28   ar
    33    16    15   ar
    34     3    11    1
    35    27    28   ar
    36    27    35    1
    37    45    37    1
    38    14    15   ar
    39    14    19    1
    40    28    29    1
    41    23    22    1
    42    15    22    1
    43    35    39   ar
    44    19    21    1
    45    37    38   ar
    46    12    11    1
    47    39    38   ar
    48    39    40    1
    49    38    41    1
