@<TRIPOS>MOLECULE
mol_data/opt/b3lyp/geoms/mol2/13hg13hg-13hg-.out
 35 37 0 0 0
SMALL
GASTEIGER

@<TRIPOS>ATOM
      1 C           1.1121   -0.0841   -1.1643 C.ar    1  LIG1        0.0241
      2 C           0.9449    0.9523   -0.2685 C.ar    1  LIG1        0.0561
      3 C          -0.3642    0.8139    0.2999 C.ar    1  LIG1        0.0522
      4 C          -0.9612   -0.3051   -0.2736 C.ar    1  LIG1        0.0799
      5 N          -0.0359   -0.8643   -1.1385 N.ar    1  LIG1       -0.3570
      6 H          -0.3033   -1.4748   -1.8951 H       1  LIG1        0.1655
      7 H           1.9602   -0.3516   -1.7761 H       1  LIG1        0.0826
      8 N           1.8848    1.9121    0.1307 N.pl3   1  LIG1       -0.3560
      9 H           2.5572    2.1387   -0.5917 H       1  LIG1        0.1424
     10 H           1.4359    2.7571    0.4688 H       1  LIG1        0.1424
     11 S          -0.9697    1.8352    1.6208 S.3     1  LIG1       -0.1388
     12 H          -2.2559    1.9237    1.1797 H       1  LIG1        0.1072
     13 C          -2.2840   -0.8600   -0.0863 C.ar    1  LIG1        0.0865
     14 C          -3.5226   -0.2278   -0.0235 C.ar    1  LIG1        0.0657
     15 C          -4.5143   -1.2265    0.1973 C.ar    1  LIG1        0.0529
     16 C          -3.8699   -2.4631    0.2391 C.ar    1  LIG1        0.0804
     17 N          -2.5237   -2.2204    0.0457 N.ar    1  LIG1       -0.3494
     18 H          -1.8037   -2.9249    0.0360 H       1  LIG1        0.1661
     19 N          -3.7428    1.1613   -0.1286 N.pl3   1  LIG1       -0.3554
     20 H          -3.2374    1.5648   -0.9123 H       1  LIG1        0.1424
     21 H          -4.7337    1.3650   -0.2266 H       1  LIG1        0.1424
     22 S          -6.2360   -0.8798    0.4582 S.3     1  LIG1       -0.1388
     23 H          -6.7160   -1.9208   -0.2814 H       1  LIG1        0.1072
     24 C          -4.4137   -3.7941    0.4141 C.ar    1  LIG1        0.0860
     25 C          -5.5097   -4.4044   -0.1816 C.ar    1  LIG1        0.0650
     26 C          -5.6167   -5.7247    0.3615 C.ar    1  LIG1        0.0434
     27 C          -4.5881   -5.8830    1.2731 C.ar    1  LIG1        0.0173
     28 N          -3.8505   -4.7349    1.2751 N.ar    1  LIG1       -0.3570
     29 H          -3.1464   -4.5053    1.9591 H       1  LIG1        0.1655
     30 H          -4.3414   -6.7256    1.9004 H       1  LIG1        0.0819
     31 N          -6.3645   -3.8167   -1.1352 N.pl3   1  LIG1       -0.3554
     32 H          -5.8626   -3.4542   -1.9402 H       1  LIG1        0.1424
     33 H          -7.0743   -4.4764   -1.4404 H       1  LIG1        0.1424
     34 S          -6.8747   -6.9134   -0.0290 S.3     1  LIG1       -0.1394
     35 H          -6.2676   -7.5322   -1.0690 H       1  LIG1        0.1072
@<TRIPOS>BOND
     1    32    31    1
     2     6     5    1
     3     7     1    1
     4    33    31    1
     5     1     5   ar
     6     1     2   ar
     7     5     4   ar
     8    31    25    1
     9    35    34    1
    10    20    19    1
    11     9     8    1
    12    23    22    1
    13     4    13    1
    14     4     3   ar
    15     2     8    1
    16     2     3   ar
    17    21    19    1
    18    25    26   ar
    19    25    24   ar
    20    19    14    1
    21    13    14   ar
    22    13    17   ar
    23    34    26    1
    24    14    15   ar
    25    18    17    1
    26    17    16   ar
    27     8    10    1
    28    15    16   ar
    29    15    22    1
    30    16    24    1
    31     3    11    1
    32    26    27   ar
    33    24    28   ar
    34    12    11    1
    35    27    28   ar
    36    27    30    1
    37    28    29    1
