@<TRIPOS>MOLECULE
mol_data/opt/b3lyp/geoms/mol2/13hg13hg-.out
 24 25 0 0 0
SMALL
GASTEIGER

@<TRIPOS>ATOM
      1 C           1.1372   -0.4370   -0.4497 C.ar    1  LIG1        0.0241
      2 C           0.8589    0.8882   -0.1989 C.ar    1  LIG1        0.0561
      3 C          -0.5517    0.9827    0.0631 C.ar    1  LIG1        0.0522
      4 C          -1.1000   -0.3015   -0.0335 C.ar    1  LIG1        0.0799
      5 N          -0.0495   -1.1477   -0.3165 N.ar    1  LIG1       -0.3570
      6 H          -0.1917   -2.0769   -0.6798 H       1  LIG1        0.1655
      7 H           2.0709   -0.9352   -0.6598 H       1  LIG1        0.0826
      8 N           1.7634    1.9514   -0.1040 N.pl3   1  LIG1       -0.3560
      9 H           2.5158    1.9062   -0.7796 H       1  LIG1        0.1424
     10 H           1.2945    2.8492   -0.1515 H       1  LIG1        0.1424
     11 S          -1.3775    2.5116    0.4055 S.3     1  LIG1       -0.1388
     12 H          -1.4927    2.4340    1.7520 H       1  LIG1        0.1072
     13 C          -2.4245   -0.8604    0.1476 C.ar    1  LIG1        0.0860
     14 C          -3.7153   -0.4242   -0.1572 C.ar    1  LIG1        0.0650
     15 C          -4.6060   -1.5191    0.1177 C.ar    1  LIG1        0.0434
     16 C          -3.8508   -2.5692    0.6014 C.ar    1  LIG1        0.0173
     17 N          -2.5423   -2.1900    0.5882 N.ar    1  LIG1       -0.3570
     18 H          -1.8183   -2.6461    1.1223 H       1  LIG1        0.1655
     19 H          -4.1649   -3.5401    0.9535 H       1  LIG1        0.0819
     20 N          -4.1261    0.8111   -0.6089 N.pl3   1  LIG1       -0.3554
     21 H          -3.4105    1.4615   -0.8941 H       1  LIG1        0.1424
     22 H          -4.9772    0.8220   -1.1510 H       1  LIG1        0.1424
     23 S          -6.3674   -1.5037   -0.0886 S.3     1  LIG1       -0.1394
     24 H          -6.4413   -1.9773   -1.3555 H       1  LIG1        0.1072
@<TRIPOS>BOND
     1    24    23    1
     2    22    20    1
     3    21    20    1
     4     9     8    1
     5     6     5    1
     6     7     1    1
     7    20    14    1
     8     1     5   ar
     9     1     2   ar
    10     5     4   ar
    11     2     8    1
    12     2     3   ar
    13    14    15   ar
    14    14    13   ar
    15    10     8    1
    16    23    15    1
    17     4     3   ar
    18     4    13    1
    19     3    11    1
    20    15    16   ar
    21    13    17   ar
    22    11    12    1
    23    17    16   ar
    24    17    18    1
    25    16    19    1
