@<TRIPOS>MOLECULE
mol_data/opt/b3lyp/geoms/mol2/13hg13hg-13hg13hg-.out
 46 49 0 0 0
SMALL
GASTEIGER

@<TRIPOS>ATOM
      1 C           0.8063    0.2784   -1.9840 C.ar    1  LIG1        0.0241
      2 C           0.9204    1.0406   -0.8392 C.ar    1  LIG1        0.0561
      3 C          -0.2162    0.7428   -0.0172 C.ar    1  LIG1        0.0522
      4 C          -0.9961   -0.1925   -0.6914 C.ar    1  LIG1        0.0799
      5 N          -0.3422   -0.4937   -1.8741 N.ar    1  LIG1       -0.3570
      6 H          -0.8197   -0.8848   -2.6715 H       1  LIG1        0.1655
      7 H           1.4633    0.1910   -2.8360 H       1  LIG1        0.0826
      8 N           1.9808    1.8717   -0.4539 N.pl3   1  LIG1       -0.3560
      9 H           2.4665    2.2908   -1.2375 H       1  LIG1        0.1424
     10 H           1.6761    2.5906    0.1943 H       1  LIG1        0.1424
     11 S          -0.4241    1.3730    1.6301 S.3     1  LIG1       -0.1388
     12 H          -1.7718    1.5635    1.5608 H       1  LIG1        0.1072
     13 C          -2.2605   -0.7938   -0.3273 C.ar    1  LIG1        0.0865
     14 C          -3.4097   -0.2164    0.2051 C.ar    1  LIG1        0.0657
     15 C          -4.3684   -1.2511    0.4047 C.ar    1  LIG1        0.0529
     16 C          -3.8022   -2.4477   -0.0375 C.ar    1  LIG1        0.0804
     17 N          -2.5324   -2.1449   -0.4914 N.ar    1  LIG1       -0.3494
     18 H          -1.8818   -2.8072   -0.8824 H       1  LIG1        0.1661
     19 N          -3.5736    1.1489    0.5192 N.pl3   1  LIG1       -0.3554
     20 H          -3.2592    1.7494   -0.2377 H       1  LIG1        0.1424
     21 H          -4.5452    1.3577    0.7320 H       1  LIG1        0.1424
     22 S          -5.9461   -1.0082    1.1821 S.3     1  LIG1       -0.1388
     23 H          -6.6539   -1.8276    0.3519 H       1  LIG1        0.1072
     24 C          -4.3580   -3.7831   -0.0796 C.ar    1  LIG1        0.0865
     25 C          -5.5973   -4.2302   -0.5154 C.ar    1  LIG1        0.0657
     26 C          -5.6488   -5.6459   -0.3220 C.ar    1  LIG1        0.0529
     27 C          -4.4212   -6.0543    0.2192 C.ar    1  LIG1        0.0804
     28 N          -3.6635   -4.9118    0.3465 N.ar    1  LIG1       -0.3494
     29 H          -2.7209   -4.8991    0.7024 H       1  LIG1        0.1661
     30 N          -6.6302   -3.4185   -1.0240 N.pl3   1  LIG1       -0.3554
     31 H          -6.3222   -2.8374   -1.7978 H       1  LIG1        0.1424
     32 H          -7.4240   -3.9827   -1.3141 H       1  LIG1        0.1424
     33 S          -7.0404   -6.6408   -0.7830 S.3     1  LIG1       -0.1388
     34 H          -7.5577   -6.9068    0.4386 H       1  LIG1        0.1072
     35 C          -3.8932   -7.3185    0.6866 C.ar    1  LIG1        0.0860
     36 C          -3.9687   -8.6291    0.2113 C.ar    1  LIG1        0.0650
     37 C          -3.0816   -9.4220    1.0191 C.ar    1  LIG1        0.0434
     38 C          -2.5179   -8.5926    1.9676 C.ar    1  LIG1        0.0173
     39 N          -2.9705   -7.3256    1.7493 N.ar    1  LIG1       -0.3570
     40 H          -2.9526   -6.6029    2.4536 H       1  LIG1        0.1655
     41 H          -1.8407   -8.8283    2.7745 H       1  LIG1        0.0819
     42 N          -4.7383   -9.1322   -0.8116 N.pl3   1  LIG1       -0.3554
     43 H          -5.2219   -8.4767   -1.4049 H       1  LIG1        0.1424
     44 H          -4.4009   -9.9750   -1.2515 H       1  LIG1        0.1424
     45 S          -2.7997  -11.1643    0.8448 S.3     1  LIG1       -0.1394
     46 H          -1.7303  -11.1272    0.0147 H       1  LIG1        0.1072
@<TRIPOS>BOND
     1     7     1    1
     2     6     5    1
     3     1     5   ar
     4     1     2   ar
     5     5     4   ar
     6    31    30    1
     7    43    42    1
     8    32    30    1
     9    44    42    1
    10     9     8    1
    11    30    25    1
    12    18    17    1
    13     2     8    1
    14     2     3   ar
    15    42    36    1
    16    33    26    1
    17    33    34    1
    18     4    13    1
    19     4     3   ar
    20    25    26   ar
    21    25    24   ar
    22    17    13   ar
    23    17    16   ar
    24     8    10    1
    25    13    14   ar
    26    26    27   ar
    27    20    19    1
    28    24    16    1
    29    24    28   ar
    30    16    15   ar
    31     3    11    1
    32    46    45    1
    33    14    15   ar
    34    14    19    1
    35    36    35   ar
    36    36    37   ar
    37    27    28   ar
    38    27    35    1
    39    28    29    1
    40    23    22    1
    41    15    22    1
    42    19    21    1
    43    35    39   ar
    44    45    37    1
    45    37    38   ar
    46    12    11    1
    47    39    38   ar
    48    39    40    1
    49    38    41    1
