@<TRIPOS>MOLECULE
mol_data/opt/b3lyp/geoms/mol2/13hg13hg.out
 24 25 0 0 0
SMALL
GASTEIGER

@<TRIPOS>ATOM
      1 C           1.1328   -0.4352   -0.4804 C.ar    1  LIG1        0.0241
      2 C           0.8580    0.8883   -0.2169 C.ar    1  LIG1        0.0561
      3 C          -0.5496    0.9814    0.0617 C.ar    1  LIG1        0.0522
      4 C          -1.0995   -0.3018   -0.0383 C.ar    1  LIG1        0.0799
      5 N          -0.0526   -1.1464   -0.3391 N.ar    1  LIG1       -0.3570
      6 H          -0.1996   -2.0725   -0.7081 H       1  LIG1        0.1655
      7 H           2.0638   -0.9321   -0.7048 H       1  LIG1        0.0826
      8 N           1.7641    1.9503   -0.1241 N.pl3   1  LIG1       -0.3560
      9 H           2.5085    1.9102   -0.8088 H       1  LIG1        0.1424
     10 H           1.2953    2.8487   -0.1587 H       1  LIG1        0.1424
     11 S          -1.3705    2.5083    0.4248 S.3     1  LIG1       -0.1388
     12 H          -1.4742    2.4187    1.7715 H       1  LIG1        0.1072
     13 C          -2.4222   -0.8614    0.1532 C.ar    1  LIG1        0.0860
     14 C          -3.7160   -0.4221   -0.1337 C.ar    1  LIG1        0.0650
     15 C          -4.6043   -1.5184    0.1433 C.ar    1  LIG1        0.0434
     16 C          -3.8446   -2.5725    0.6107 C.ar    1  LIG1        0.0173
     17 N          -2.5359   -2.1941    0.5854 N.ar    1  LIG1       -0.3570
     18 H          -1.8066   -2.6542    1.1086 H       1  LIG1        0.1655
     19 H          -4.1553   -3.5458    0.9591 H       1  LIG1        0.0819
     20 N          -4.1309    0.8168   -0.5716 N.pl3   1  LIG1       -0.3554
     21 H          -3.4178    1.4683   -0.8610 H       1  LIG1        0.1424
     22 H          -4.9875    0.8318   -1.1049 H       1  LIG1        0.1424
     23 S          -6.3679   -1.5001   -0.0429 S.3     1  LIG1       -0.1394
     24 H          -6.4567   -1.9631   -1.3127 H       1  LIG1        0.1072
@<TRIPOS>BOND
     1    24    23    1
     2    22    20    1
     3    21    20    1
     4     9     8    1
     5     6     5    1
     6     7     1    1
     7    20    14    1
     8     1     5   ar
     9     1     2   ar
    10     5     4   ar
    11     2     8    1
    12     2     3   ar
    13    10     8    1
    14    14    15   ar
    15    14    13   ar
    16    23    15    1
    17     4     3   ar
    18     4    13    1
    19     3    11    1
    20    15    16   ar
    21    13    17   ar
    22    11    12    1
    23    17    16   ar
    24    17    18    1
    25    16    19    1
