@<TRIPOS>MOLECULE
mol_data/opt/b3lyp/geoms/mol2/13hg13hg13hg.out
 35 37 0 0 0
SMALL
GASTEIGER

@<TRIPOS>ATOM
      1 C           1.1176   -0.0825   -1.1582 C.ar    1  LIG1        0.0241
      2 C           0.9497    0.9481   -0.2559 C.ar    1  LIG1        0.0561
      3 C          -0.3612    0.8079    0.3083 C.ar    1  LIG1        0.0522
      4 C          -0.9583   -0.3065   -0.2742 C.ar    1  LIG1        0.0799
      5 N          -0.0317   -0.8611   -1.1406 N.ar    1  LIG1       -0.3570
      6 H          -0.2983   -1.4654   -1.9025 H       1  LIG1        0.1655
      7 H           1.9668   -0.3472   -1.7697 H       1  LIG1        0.0826
      8 N           1.8899    1.9038    0.1522 N.pl3   1  LIG1       -0.3560
      9 H           2.5638    2.1353   -0.5673 H       1  LIG1        0.1424
     10 H           1.4412    2.7466    0.4961 H       1  LIG1        0.1424
     11 S          -0.9683    1.8208    1.6346 S.3     1  LIG1       -0.1388
     12 H          -2.2535    1.9138    1.1910 H       1  LIG1        0.1072
     13 C          -2.2824   -0.8605   -0.0939 C.ar    1  LIG1        0.0865
     14 C          -3.5202   -0.2269   -0.0300 C.ar    1  LIG1        0.0657
     15 C          -4.5141   -1.2257    0.1814 C.ar    1  LIG1        0.0529
     16 C          -3.8716   -2.4634    0.2165 C.ar    1  LIG1        0.0804
     17 N          -2.5245   -2.2215    0.0285 N.ar    1  LIG1       -0.3494
     18 H          -1.8059   -2.9272    0.0136 H       1  LIG1        0.1661
     19 N          -3.7381    1.1632   -0.1259 N.pl3   1  LIG1       -0.3554
     20 H          -3.2314    1.5712   -0.9064 H       1  LIG1        0.1424
     21 H          -4.7285    1.3692   -0.2233 H       1  LIG1        0.1424
     22 S          -6.2354   -0.8779    0.4417 S.3     1  LIG1       -0.1388
     23 H          -6.7159   -1.9130   -0.3059 H       1  LIG1        0.1072
     24 C          -4.4176   -3.7948    0.3812 C.ar    1  LIG1        0.0860
     25 C          -5.5134   -4.3994   -0.2204 C.ar    1  LIG1        0.0650
     26 C          -5.6230   -5.7234    0.3132 C.ar    1  LIG1        0.0434
     27 C          -4.5961   -5.8895    1.2252 C.ar    1  LIG1        0.0173
     28 N          -3.8569   -4.7424    1.2362 N.ar    1  LIG1       -0.3570
     29 H          -3.1545   -4.5181    1.9238 H       1  LIG1        0.1655
     30 H          -4.3515   -6.7367    1.8472 H       1  LIG1        0.0819
     31 N          -6.3658   -3.8041   -1.1715 N.pl3   1  LIG1       -0.3554
     32 H          -5.8621   -3.4370   -1.9732 H       1  LIG1        0.1424
     33 H          -7.0761   -4.4608   -1.4822 H       1  LIG1        0.1424
     34 S          -6.8822   -6.9077   -0.0877 S.3     1  LIG1       -0.1394
     35 H          -6.2744   -7.5198   -1.1312 H       1  LIG1        0.1072
@<TRIPOS>BOND
     1    32    31    1
     2     6     5    1
     3     7     1    1
     4    33    31    1
     5    31    25    1
     6     1     5   ar
     7     1     2   ar
     8     5     4   ar
     9    35    34    1
    10    20    19    1
    11     9     8    1
    12    23    22    1
    13     4    13    1
    14     4     3   ar
    15     2     8    1
    16     2     3   ar
    17    21    19    1
    18    25    26   ar
    19    25    24   ar
    20    19    14    1
    21    13    14   ar
    22    13    17   ar
    23    34    26    1
    24    14    15   ar
    25    18    17    1
    26    17    16   ar
    27     8    10    1
    28    15    16   ar
    29    15    22    1
    30    16    24    1
    31     3    11    1
    32    26    27   ar
    33    24    28   ar
    34    12    11    1
    35    27    28   ar
    36    27    30    1
    37    28    29    1
