@<TRIPOS>MOLECULE
mol_data/opt/b3lyp/geoms/mol2/13hg13hg13hg-.out
 35 37 0 0 0
SMALL
GASTEIGER

@<TRIPOS>ATOM
      1 C           1.1118   -0.0778   -1.1689 C.ar    1  LIG1        0.0241
      2 C           0.9478    0.9499   -0.2626 C.ar    1  LIG1        0.0561
      3 C          -0.3604    0.8075    0.3072 C.ar    1  LIG1        0.0522
      4 C          -0.9598   -0.3052   -0.2760 C.ar    1  LIG1        0.0799
      5 N          -0.0371   -0.8568   -1.1484 N.ar    1  LIG1       -0.3570
      6 H          -0.3070   -1.4590   -1.9107 H       1  LIG1        0.1655
      7 H           1.9583   -0.3403   -1.7851 H       1  LIG1        0.0826
      8 N           1.8896    1.9047    0.1440 N.pl3   1  LIG1       -0.3560
      9 H           2.5600    2.1387   -0.5779 H       1  LIG1        0.1424
     10 H           1.4424    2.7462    0.4928 H       1  LIG1        0.1424
     11 S          -0.9616    1.8162    1.6396 S.3     1  LIG1       -0.1388
     12 H          -2.2488    1.9103    1.2022 H       1  LIG1        0.1072
     13 C          -2.2830   -0.8602   -0.0913 C.ar    1  LIG1        0.0865
     14 C          -3.5206   -0.2271   -0.0196 C.ar    1  LIG1        0.0657
     15 C          -4.5132   -1.2268    0.1932 C.ar    1  LIG1        0.0529
     16 C          -3.8702   -2.4645    0.2214 C.ar    1  LIG1        0.0804
     17 N          -2.5241   -2.2216    0.0279 N.ar    1  LIG1       -0.3494
     18 H          -1.8054   -2.9270    0.0078 H       1  LIG1        0.1661
     19 N          -3.7394    1.1633   -0.1100 N.pl3   1  LIG1       -0.3554
     20 H          -3.2361    1.5740   -0.8913 H       1  LIG1        0.1424
     21 H          -4.7303    1.3693   -0.2026 H       1  LIG1        0.1424
     22 S          -6.2335   -0.8804    0.4624 S.3     1  LIG1       -0.1388
     23 H          -6.7171   -1.9130   -0.2866 H       1  LIG1        0.1072
     24 C          -4.4152   -3.7966    0.3842 C.ar    1  LIG1        0.0860
     25 C          -5.5136   -4.3995   -0.2144 C.ar    1  LIG1        0.0650
     26 C          -5.6204   -5.7253    0.3154 C.ar    1  LIG1        0.0434
     27 C          -4.5893   -5.8940    1.2221 C.ar    1  LIG1        0.0173
     28 N          -3.8503   -4.7468    1.2336 N.ar    1  LIG1       -0.3570
     29 H          -3.1449   -4.5246    1.9187 H       1  LIG1        0.1655
     30 H          -4.3417   -6.7432    1.8403 H       1  LIG1        0.0819
     31 N          -6.3704   -3.8013   -1.1597 N.pl3   1  LIG1       -0.3554
     32 H          -5.8705   -3.4319   -1.9627 H       1  LIG1        0.1424
     33 H          -7.0822   -4.4570   -1.4690 H       1  LIG1        0.1424
     34 S          -6.8811   -6.9086   -0.0836 S.3     1  LIG1       -0.1394
     35 H          -6.2779   -7.5171   -1.1319 H       1  LIG1        0.1072
@<TRIPOS>BOND
     1    32    31    1
     2     6     5    1
     3     7     1    1
     4    33    31    1
     5     1     5   ar
     6     1     2   ar
     7    31    25    1
     8     5     4   ar
     9    35    34    1
    10    20    19    1
    11     9     8    1
    12    23    22    1
    13     4    13    1
    14     4     3   ar
    15     2     8    1
    16     2     3   ar
    17    25    26   ar
    18    25    24   ar
    19    21    19    1
    20    19    14    1
    21    13    14   ar
    22    13    17   ar
    23    34    26    1
    24    14    15   ar
    25    18    17    1
    26    17    16   ar
    27     8    10    1
    28    15    16   ar
    29    15    22    1
    30    16    24    1
    31     3    11    1
    32    26    27   ar
    33    24    28   ar
    34    12    11    1
    35    27    28   ar
    36    27    30    1
    37    28    29    1
