@<TRIPOS>MOLECULE
mol_data/opt/b3lyp/geoms/mol2/13hg13hg-13hg.out
 35 37 0 0 0
SMALL
GASTEIGER

@<TRIPOS>ATOM
      1 C           1.1162   -0.0873   -1.1581 C.ar    1  LIG1        0.0241
      2 C           0.9467    0.9506   -0.2645 C.ar    1  LIG1        0.0561
      3 C          -0.3641    0.8135    0.3003 C.ar    1  LIG1        0.0522
      4 C          -0.9597   -0.3064   -0.2731 C.ar    1  LIG1        0.0799
      5 N          -0.0322   -0.8670   -1.1346 N.ar    1  LIG1       -0.3570
      6 H          -0.2974   -1.4787   -1.8909 H       1  LIG1        0.1655
      7 H           1.9660   -0.3559   -1.7672 H       1  LIG1        0.0826
      8 N           1.8858    1.9108    0.1358 N.pl3   1  LIG1       -0.3560
      9 H           2.5593    2.1372   -0.5856 H       1  LIG1        0.1424
     10 H           1.4360    2.7558    0.4727 H       1  LIG1        0.1424
     11 S          -0.9728    1.8368    1.6181 S.3     1  LIG1       -0.1388
     12 H          -2.2579    1.9249    1.1733 H       1  LIG1        0.1072
     13 C          -2.2833   -0.8605   -0.0888 C.ar    1  LIG1        0.0865
     14 C          -3.5218   -0.2277   -0.0306 C.ar    1  LIG1        0.0657
     15 C          -4.5146   -1.2257    0.1889 C.ar    1  LIG1        0.0529
     16 C          -3.8707   -2.4625    0.2348 C.ar    1  LIG1        0.0804
     17 N          -2.5239   -2.2206    0.0451 N.ar    1  LIG1       -0.3494
     18 H          -1.8044   -2.9255    0.0371 H       1  LIG1        0.1661
     19 N          -3.7413    1.1612   -0.1385 N.pl3   1  LIG1       -0.3554
     20 H          -3.2337    1.5634   -0.9214 H       1  LIG1        0.1424
     21 H          -4.7318    1.3652   -0.2393 H       1  LIG1        0.1424
     22 S          -6.2366   -0.8777    0.4450 S.3     1  LIG1       -0.1388
     23 H          -6.7154   -1.9196   -0.2941 H       1  LIG1        0.1072
     24 C          -4.4154   -3.7930    0.4105 C.ar    1  LIG1        0.0860
     25 C          -5.5103   -4.4039   -0.1866 C.ar    1  LIG1        0.0650
     26 C          -5.6185   -5.7236    0.3580 C.ar    1  LIG1        0.0434
     27 C          -4.5917   -5.8808    1.2717 C.ar    1  LIG1        0.0173
     28 N          -3.8539   -4.7328    1.2735 N.ar    1  LIG1       -0.3570
     29 H          -3.1520   -4.5021    1.9596 H       1  LIG1        0.1655
     30 H          -4.3463   -6.7227    1.9007 H       1  LIG1        0.0819
     31 N          -6.3629   -3.8176   -1.1430 N.pl3   1  LIG1       -0.3554
     32 H          -5.8594   -3.4575   -1.9480 H       1  LIG1        0.1424
     33 H          -7.0728   -4.4774   -1.4478 H       1  LIG1        0.1424
     34 S          -6.8759   -6.9126   -0.0335 S.3     1  LIG1       -0.1394
     35 H          -6.2672   -7.5323   -1.0720 H       1  LIG1        0.1072
@<TRIPOS>BOND
     1    32    31    1
     2     6     5    1
     3     7     1    1
     4    33    31    1
     5     1     5   ar
     6     1     2   ar
     7    31    25    1
     8     5     4   ar
     9    35    34    1
    10    20    19    1
    11     9     8    1
    12    23    22    1
    13     4    13    1
    14     4     3   ar
    15     2     8    1
    16     2     3   ar
    17    21    19    1
    18    25    26   ar
    19    25    24   ar
    20    19    14    1
    21    13    14   ar
    22    13    17   ar
    23    34    26    1
    24    14    15   ar
    25    18    17    1
    26    17    16   ar
    27     8    10    1
    28    15    16   ar
    29    15    22    1
    30    16    24    1
    31     3    11    1
    32    26    27   ar
    33    24    28   ar
    34    12    11    1
    35    27    28   ar
    36    27    30    1
    37    28    29    1
