@<TRIPOS>MOLECULE
mol_data/opt/b3lyp/geoms/mol2/13hg13hg-13hg-13hg.out
 46 49 0 0 0
SMALL
GASTEIGER

@<TRIPOS>ATOM
      1 C           0.7631    0.3830   -1.9597 C.ar    1  LIG1        0.0241
      2 C           0.8896    1.1399   -0.8127 C.ar    1  LIG1        0.0561
      3 C          -0.2241    0.8187    0.0317 C.ar    1  LIG1        0.0522
      4 C          -1.0031   -0.1249   -0.6317 C.ar    1  LIG1        0.0799
      5 N          -0.3701   -0.4088   -1.8300 N.ar    1  LIG1       -0.3570
      6 H          -0.8600   -0.7996   -2.6199 H       1  LIG1        0.1655
      7 H           1.4028    0.3116   -2.8263 H       1  LIG1        0.0826
      8 N           1.9445    1.9860   -0.4452 N.pl3   1  LIG1       -0.3560
      9 H           2.4057    2.4181   -1.2364 H       1  LIG1        0.1424
     10 H           1.6421    2.6957    0.2142 H       1  LIG1        0.1424
     11 S          -0.4081    1.4363    1.6866 S.3     1  LIG1       -0.1388
     12 H          -1.7600    1.6043    1.6451 H       1  LIG1        0.1072
     13 C          -2.2505   -0.7472   -0.2445 C.ar    1  LIG1        0.0865
     14 C          -3.3971   -0.1889    0.3133 C.ar    1  LIG1        0.0657
     15 C          -4.3371   -1.2382    0.5263 C.ar    1  LIG1        0.0529
     16 C          -3.7616   -2.4246    0.0680 C.ar    1  LIG1        0.0804
     17 N          -2.5063   -2.1012   -0.4102 N.ar    1  LIG1       -0.3494
     18 H          -1.8536   -2.7538   -0.8133 H       1  LIG1        0.1661
     19 N          -3.5739    1.1720    0.6388 N.pl3   1  LIG1       -0.3554
     20 H          -3.2848    1.7819   -0.1207 H       1  LIG1        0.1424
     21 H          -4.5434    1.3652    0.8749 H       1  LIG1        0.1424
     22 S          -5.8990   -1.0213    1.3429 S.3     1  LIG1       -0.1388
     23 H          -6.6247   -1.8319    0.5211 H       1  LIG1        0.1072
     24 C          -4.3027   -3.7662    0.0310 C.ar    1  LIG1        0.0865
     25 C          -5.5503   -4.2127   -0.3943 C.ar    1  LIG1        0.0657
     26 C          -5.6057   -5.6218   -0.1921 C.ar    1  LIG1        0.0529
     27 C          -4.3765   -6.0235    0.3311 C.ar    1  LIG1        0.0804
     28 N          -3.5948   -4.8897    0.4379 N.ar    1  LIG1       -0.3494
     29 H          -2.6609   -4.8685    0.8153 H       1  LIG1        0.1661
     30 N          -6.5837   -3.3991   -0.9038 N.pl3   1  LIG1       -0.3554
     31 H          -6.2439   -2.7576   -1.6146 H       1  LIG1        0.1424
     32 H          -7.3322   -3.9655   -1.2936 H       1  LIG1        0.1424
     33 S          -7.0483   -6.6136   -0.4858 S.3     1  LIG1       -0.1388
     34 H          -6.3920   -7.6794   -1.0298 H       1  LIG1        0.1072
     35 C          -3.9044   -7.3441    0.6937 C.ar    1  LIG1        0.0860
     36 C          -3.9956   -8.5507    0.0124 C.ar    1  LIG1        0.0650
     37 C          -3.3810   -9.5543    0.8276 C.ar    1  LIG1        0.0434
     38 C          -2.9353   -8.9353    1.9817 C.ar    1  LIG1        0.0173
     39 N          -3.2212   -7.6049    1.8805 N.ar    1  LIG1       -0.3570
     40 H          -3.1635   -6.9465    2.6419 H       1  LIG1        0.1655
     41 H          -2.4398   -9.3523    2.8449 H       1  LIG1        0.0819
     42 N          -4.5981   -8.7451   -1.2467 N.pl3   1  LIG1       -0.3554
     43 H          -4.2140   -8.1359   -1.9627 H       1  LIG1        0.1424
     44 H          -4.5157   -9.7144   -1.5401 H       1  LIG1        0.1424
     45 S          -3.2680  -11.2828    0.4432 S.3     1  LIG1       -0.1394
     46 H          -2.0841  -11.2776   -0.2135 H       1  LIG1        0.1072
@<TRIPOS>BOND
     1     7     1    1
     2     6     5    1
     3    43    42    1
     4     1     5   ar
     5     1     2   ar
     6     5     4   ar
     7    31    30    1
     8    44    42    1
     9    32    30    1
    10    42    36    1
    11     9     8    1
    12    34    33    1
    13    30    25    1
    14    18    17    1
    15     2     8    1
    16     2     3   ar
    17     4    13    1
    18     4     3   ar
    19    33    26    1
    20     8    10    1
    21    17    13   ar
    22    17    16   ar
    23    25    26   ar
    24    25    24   ar
    25    13    14   ar
    26    46    45    1
    27    26    27   ar
    28    20    19    1
    29    36    35   ar
    30    36    37   ar
    31    24    16    1
    32    24    28   ar
    33     3    11    1
    34    16    15   ar
    35    14    15   ar
    36    14    19    1
    37    27    28   ar
    38    27    35    1
    39    28    29    1
    40    45    37    1
    41    23    22    1
    42    15    22    1
    43    19    21    1
    44    35    39   ar
    45    37    38   ar
    46    12    11    1
    47    39    38   ar
    48    39    40    1
    49    38    41    1
