@<TRIPOS>MOLECULE
mol_data/opt/b3lyp/geoms/mol2/13hg13hg13hg-13hg.out
 46 49 0 0 0
SMALL
GASTEIGER

@<TRIPOS>ATOM
      1 C           0.7761    0.3953   -1.9350 C.ar    1  LIG1        0.0241
      2 C           0.9010    1.1392   -0.7794 C.ar    1  LIG1        0.0561
      3 C          -0.2160    0.8115    0.0581 C.ar    1  LIG1        0.0522
      4 C          -0.9953   -0.1229   -0.6179 C.ar    1  LIG1        0.0799
      5 N          -0.3594   -0.3951   -1.8174 N.ar    1  LIG1       -0.3570
      6 H          -0.8476   -0.7764   -2.6130 H       1  LIG1        0.1655
      7 H           1.4181    0.3319   -2.8005 H       1  LIG1        0.0826
      8 N           1.9567    1.9788   -0.3995 N.pl3   1  LIG1       -0.3560
      9 H           2.4210    2.4188   -1.1846 H       1  LIG1        0.1424
     10 H           1.6540    2.6817    0.2669 H       1  LIG1        0.1424
     11 S          -0.4032    1.4114    1.7192 S.3     1  LIG1       -0.1388
     12 H          -1.7547    1.5825    1.6759 H       1  LIG1        0.1072
     13 C          -2.2451   -0.7466   -0.2412 C.ar    1  LIG1        0.0865
     14 C          -3.3921   -0.1919    0.3197 C.ar    1  LIG1        0.0657
     15 C          -4.3348   -1.2414    0.5188 C.ar    1  LIG1        0.0529
     16 C          -3.7607   -2.4240    0.0491 C.ar    1  LIG1        0.0804
     17 N          -2.5034   -2.0982   -0.4221 N.ar    1  LIG1       -0.3494
     18 H          -1.8513   -2.7477   -0.8312 H       1  LIG1        0.1661
     19 N          -3.5668    1.1657    0.6596 N.pl3   1  LIG1       -0.3554
     20 H          -3.2738    1.7833   -0.0922 H       1  LIG1        0.1424
     21 H          -4.5365    1.3586    0.8947 H       1  LIG1        0.1424
     22 S          -5.8983   -1.0298    1.3339 S.3     1  LIG1       -0.1388
     23 H          -6.6235   -1.8305    0.5020 H       1  LIG1        0.1072
     24 C          -4.3044   -3.7640   -0.0038 C.ar    1  LIG1        0.0865
     25 C          -5.5520   -4.2034   -0.4365 C.ar    1  LIG1        0.0657
     26 C          -5.6105   -5.6145   -0.2499 C.ar    1  LIG1        0.0529
     27 C          -4.3832   -6.0243    0.2714 C.ar    1  LIG1        0.0804
     28 N          -3.5994   -4.8932    0.3920 N.ar    1  LIG1       -0.3494
     29 H          -2.6665   -4.8779    0.7719 H       1  LIG1        0.1661
     30 N          -6.5827   -3.3823   -0.9393 N.pl3   1  LIG1       -0.3554
     31 H          -6.2402   -2.7341   -1.6428 H       1  LIG1        0.1424
     32 H          -7.3317   -3.9430   -1.3364 H       1  LIG1        0.1424
     33 S          -7.0542   -6.6004   -0.5577 S.3     1  LIG1       -0.1388
     34 H          -6.3987   -7.6610   -1.1125 H       1  LIG1        0.1072
     35 C          -3.9142   -7.3497    0.6203 C.ar    1  LIG1        0.0860
     36 C          -4.0062   -8.5485   -0.0746 C.ar    1  LIG1        0.0650
     37 C          -3.3952   -9.5622    0.7308 C.ar    1  LIG1        0.0434
     38 C          -2.9510   -8.9570    1.8926 C.ar    1  LIG1        0.0173
     39 N          -3.2343   -7.6250    1.8057 N.ar    1  LIG1       -0.3570
     40 H          -3.1770   -6.9752    2.5745 H       1  LIG1        0.1655
     41 H          -2.4581   -9.3845    2.7523 H       1  LIG1        0.0819
     42 N          -4.6061   -8.7277   -1.3372 N.pl3   1  LIG1       -0.3554
     43 H          -4.2188   -8.1118   -2.0457 H       1  LIG1        0.1424
     44 H          -4.5254   -9.6940   -1.6409 H       1  LIG1        0.1424
     45 S          -3.2848  -11.2867    0.3275 S.3     1  LIG1       -0.1394
     46 H          -2.0996  -11.2763   -0.3270 H       1  LIG1        0.1072
@<TRIPOS>BOND
     1     7     1    1
     2     6     5    1
     3    43    42    1
     4     1     5   ar
     5     1     2   ar
     6     5     4   ar
     7    31    30    1
     8    44    42    1
     9    42    36    1
    10    32    30    1
    11     9     8    1
    12    34    33    1
    13    30    25    1
    14    18    17    1
    15     2     8    1
    16     2     3   ar
    17     4    13    1
    18     4     3   ar
    19    33    26    1
    20    25    26   ar
    21    25    24   ar
    22    17    13   ar
    23    17    16   ar
    24     8    10    1
    25    46    45    1
    26    26    27   ar
    27    13    14   ar
    28    20    19    1
    29    36    35   ar
    30    36    37   ar
    31    24    16    1
    32    24    28   ar
    33    16    15   ar
    34     3    11    1
    35    27    28   ar
    36    27    35    1
    37    14    15   ar
    38    14    19    1
    39    45    37    1
    40    28    29    1
    41    23    22    1
    42    15    22    1
    43    35    39   ar
    44    19    21    1
    45    37    38   ar
    46    12    11    1
    47    39    38   ar
    48    39    40    1
    49    38    41    1
