@<TRIPOS>MOLECULE
mol_data/opt/b3lyp/geoms/mol2/13hg.out
 13 13 0 0 0
SMALL
GASTEIGER

@<TRIPOS>ATOM
      1 C           1.1360   -0.4484   -0.0999 C.ar    1  LIG1        0.0237
      2 C           0.6817    0.8533   -0.0159 C.ar    1  LIG1        0.0554
      3 C          -0.7394    0.7834    0.1770 C.ar    1  LIG1        0.0428
      4 C          -1.0928   -0.5550    0.2208 C.ar    1  LIG1        0.0168
      5 N           0.0409   -1.2871    0.0397 N.ar    1  LIG1       -0.3645
      6 H           0.0850   -2.2925    0.0329 H       1  LIG1        0.1649
      7 H          -2.0599   -1.0136    0.3588 H       1  LIG1        0.0818
      8 H           2.1331   -0.8403   -0.2284 H       1  LIG1        0.0826
      9 N           1.4446    2.0290   -0.0375 N.pl3   1  LIG1       -0.3560
     10 H           2.1704    2.0289   -0.7434 H       1  LIG1        0.1424
     11 H           0.8579    2.8502   -0.1351 H       1  LIG1        0.1424
     12 S          -1.8304    2.1658    0.3908 S.3     1  LIG1       -0.1394
     13 H          -2.1842    2.3669   -0.9011 H       1  LIG1        0.1072
@<TRIPOS>BOND
     1    13    12    1
     2    10     9    1
     3     8     1    1
     4    11     9    1
     5     1     2   ar
     6     1     5   ar
     7     9     2    1
     8     2     3   ar
     9     6     5    1
    10     5     4   ar
    11     3     4   ar
    12     3    12    1
    13     4     7    1
