@<TRIPOS>MOLECULE
mol_data/opt/b3lyp/geoms/mol2/13hg13hg13hg13hg.out
 46 49 0 0 0
SMALL
GASTEIGER

@<TRIPOS>ATOM
      1 C           0.7690    0.3974   -1.9353 C.ar    1  LIG1        0.0241
      2 C           0.8905    1.1461   -0.7825 C.ar    1  LIG1        0.0561
      3 C          -0.2266    0.8188    0.0549 C.ar    1  LIG1        0.0522
      4 C          -1.0026   -0.1203   -0.6184 C.ar    1  LIG1        0.0799
      5 N          -0.3646   -0.3953   -1.8161 N.ar    1  LIG1       -0.3570
      6 H          -0.8507   -0.7815   -2.6106 H       1  LIG1        0.1655
      7 H           1.4121    0.3325   -2.7999 H       1  LIG1        0.0826
      8 N           1.9437    1.9899   -0.4046 N.pl3   1  LIG1       -0.3560
      9 H           2.4079    2.4278   -1.1909 H       1  LIG1        0.1424
     10 H           1.6384    2.6948    0.2585 H       1  LIG1        0.1424
     11 S          -0.4174    1.4245    1.7135 S.3     1  LIG1       -0.1388
     12 H          -1.7691    1.5927    1.6677 H       1  LIG1        0.1072
     13 C          -2.2514   -0.7456   -0.2408 C.ar    1  LIG1        0.0865
     14 C          -3.4004   -0.1914    0.3163 C.ar    1  LIG1        0.0657
     15 C          -4.3410   -1.2425    0.5181 C.ar    1  LIG1        0.0529
     16 C          -3.7633   -2.4254    0.0539 C.ar    1  LIG1        0.0804
     17 N          -2.5061   -2.0985   -0.4167 N.ar    1  LIG1       -0.3494
     18 H          -1.8521   -2.7481   -0.8226 H       1  LIG1        0.1661
     19 N          -3.5789    1.1671    0.6506 N.pl3   1  LIG1       -0.3554
     20 H          -3.2861    1.7823   -0.1032 H       1  LIG1        0.1424
     21 H          -4.5495    1.3586    0.8834 H       1  LIG1        0.1424
     22 S          -5.9061   -1.0315    1.3302 S.3     1  LIG1       -0.1388
     23 H          -6.6282   -1.8372    0.5005 H       1  LIG1        0.1072
     24 C          -4.3036   -3.7670    0.0055 C.ar    1  LIG1        0.0865
     25 C          -5.5495   -4.2113   -0.4272 C.ar    1  LIG1        0.0657
     26 C          -5.6045   -5.6218   -0.2352 C.ar    1  LIG1        0.0529
     27 C          -4.3768   -6.0264    0.2892 C.ar    1  LIG1        0.0804
     28 N          -3.5962   -4.8929    0.4065 N.ar    1  LIG1       -0.3494
     29 H          -2.6640   -4.8735    0.7880 H       1  LIG1        0.1661
     30 N          -6.5816   -3.3949   -0.9346 N.pl3   1  LIG1       -0.3554
     31 H          -6.2399   -2.7484   -1.6400 H       1  LIG1        0.1424
     32 H          -7.3285   -3.9590   -1.3307 H       1  LIG1        0.1424
     33 S          -7.0453   -6.6126   -0.5412 S.3     1  LIG1       -0.1388
     34 H          -6.3863   -7.6735   -1.0914 H       1  LIG1        0.1072
     35 C          -3.9048   -7.3493    0.6437 C.ar    1  LIG1        0.0860
     36 C          -3.9928   -8.5509   -0.0467 C.ar    1  LIG1        0.0650
     37 C          -3.3805   -9.5601    0.7634 C.ar    1  LIG1        0.0434
     38 C          -2.9394   -8.9493    1.9236 C.ar    1  LIG1        0.0173
     39 N          -3.2260   -7.6183    1.8311 N.ar    1  LIG1       -0.3570
     40 H          -3.1711   -6.9654    2.5974 H       1  LIG1        0.1655
     41 H          -2.4466   -9.3722    2.7855 H       1  LIG1        0.0819
     42 N          -4.5905   -8.7366   -1.3094 N.pl3   1  LIG1       -0.3554
     43 H          -4.2038   -8.1223   -2.0197 H       1  LIG1        0.1424
     44 H          -4.5067   -9.7038   -1.6093 H       1  LIG1        0.1424
     45 S          -3.2651  -11.2857    0.3668 S.3     1  LIG1       -0.1394
     46 H          -2.0789  -11.2749   -0.2858 H       1  LIG1        0.1072
@<TRIPOS>BOND
     1     7     1    1
     2     6     5    1
     3    43    42    1
     4     1     5   ar
     5     1     2   ar
     6     5     4   ar
     7    31    30    1
     8    44    42    1
     9    32    30    1
    10    42    36    1
    11     9     8    1
    12    34    33    1
    13    30    25    1
    14    18    17    1
    15     2     8    1
    16     2     3   ar
    17     4    13    1
    18     4     3   ar
    19    33    26    1
    20    25    26   ar
    21    25    24   ar
    22    17    13   ar
    23    17    16   ar
    24     8    10    1
    25    46    45    1
    26    13    14   ar
    27    26    27   ar
    28    20    19    1
    29    36    35   ar
    30    36    37   ar
    31    24    16    1
    32    24    28   ar
    33    16    15   ar
    34     3    11    1
    35    27    28   ar
    36    27    35    1
    37    14    15   ar
    38    14    19    1
    39    45    37    1
    40    28    29    1
    41    23    22    1
    42    15    22    1
    43    35    39   ar
    44    19    21    1
    45    37    38   ar
    46    12    11    1
    47    39    38   ar
    48    39    40    1
    49    38    41    1
