@<TRIPOS>MOLECULE
mol_data/opt/b3lyp/geoms/mol2/13hh13hh-.out
 26 27 0 0 0
SMALL
GASTEIGER

@<TRIPOS>ATOM
      1 C           1.1905   -0.2611   -0.0432 C.ar    1  LIG1        0.0249
      2 C           0.7712    1.0574   -0.0773 C.ar    1  LIG1        0.0637
      3 C          -0.6559    1.0449   -0.1372 C.ar    1  LIG1        0.0726
      4 C          -1.0610   -0.2866   -0.1345 C.ar    1  LIG1        0.0875
      5 N           0.0675   -1.0615   -0.0808 N.ar    1  LIG1       -0.3564
      6 H           0.0042   -2.0710   -0.0230 H       1  LIG1        0.1655
      7 H           2.1840   -0.6811    0.0074 H       1  LIG1        0.0826
      8 N           1.5487    2.2380    0.0162 N.pl3   1  LIG1       -0.3554
      9 H           2.5412    2.0308    0.0414 H       1  LIG1        0.1424
     10 H           1.3810    2.8614   -0.7692 H       1  LIG1        0.1424
     11 N          -1.5566    2.1616   -0.1555 N.pl3   1  LIG1       -0.3549
     12 H          -1.2578    2.8538    0.5297 H       1  LIG1        0.1424
     13 H          -1.5455    2.6324   -1.0597 H       1  LIG1        0.1424
     14 C          -2.3809   -0.8657   -0.1342 C.ar    1  LIG1        0.0875
     15 C          -2.7860   -2.1972   -0.1369 C.ar    1  LIG1        0.0726
     16 C          -4.2131   -2.2097   -0.0762 C.ar    1  LIG1        0.0637
     17 C          -4.6324   -0.8912   -0.0416 C.ar    1  LIG1        0.0249
     18 N          -3.5094   -0.0907   -0.0797 N.ar    1  LIG1       -0.3564
     19 H          -3.4460    0.9187   -0.0217 H       1  LIG1        0.1655
     20 H          -5.6258   -0.4712    0.0095 H       1  LIG1        0.0826
     21 N          -1.8853   -3.3139   -0.1558 N.pl3   1  LIG1       -0.3549
     22 H          -2.1837   -4.0062    0.5294 H       1  LIG1        0.1424
     23 H          -1.8970   -3.7846   -1.0601 H       1  LIG1        0.1424
     24 N          -4.9905   -3.3903    0.0175 N.pl3   1  LIG1       -0.3554
     25 H          -5.9830   -3.1831    0.0436 H       1  LIG1        0.1424
     26 H          -4.8235   -4.0134   -0.7683 H       1  LIG1        0.1424
@<TRIPOS>BOND
     1    23    21    1
     2    13    11    1
     3    10     8    1
     4    26    24    1
     5    21    15    1
     6    21    22    1
     7    11     3    1
     8    11    12    1
     9     3     4   ar
    10     3     2   ar
    11    15    14   ar
    12    15    16   ar
    13     4    14    1
    14     4     5   ar
    15    14    18   ar
    16     5     1   ar
    17     5     6    1
    18    18    17   ar
    19    18    19    1
    20     2     1   ar
    21     2     8    1
    22    16    17   ar
    23    16    24    1
    24     1     7    1
    25    17    20    1
    26     8     9    1
    27    24    25    1
