@<TRIPOS>MOLECULE
mol_data/opt/b3lyp/geoms/mol2/13hh13hh13hh-13hh.out
 50 53 0 0 0
SMALL
GASTEIGER

@<TRIPOS>ATOM
      1 C           1.2314   -0.1107   -0.9644 C.ar    1  LIG1        0.0249
      2 C           0.9599    1.0339   -0.2488 C.ar    1  LIG1        0.0637
      3 C          -0.4240    1.0015    0.1204 C.ar    1  LIG1        0.0726
      4 C          -0.9642   -0.1738   -0.3877 C.ar    1  LIG1        0.0875
      5 N           0.0749   -0.8740   -1.0107 N.ar    1  LIG1       -0.3564
      6 H          -0.1164   -1.5155   -1.7659 H       1  LIG1        0.1655
      7 H           2.1515   -0.4550   -1.4132 H       1  LIG1        0.0826
      8 N           1.8079    2.1098    0.1074 N.pl3   1  LIG1       -0.3554
      9 H           1.8173    2.2441    1.1163 H       1  LIG1        0.1424
     10 H           2.7627    1.9560   -0.1984 H       1  LIG1        0.1424
     11 N          -1.0186    1.9549    0.9612 N.pl3   1  LIG1       -0.3549
     12 H          -0.6561    2.8822    0.7579 H       1  LIG1        0.1424
     13 H          -2.0364    1.9502    0.8816 H       1  LIG1        0.1424
     14 C          -2.2964   -0.7236   -0.2969 C.ar    1  LIG1        0.0880
     15 C          -3.5411   -0.1001   -0.2217 C.ar    1  LIG1        0.0733
     16 C          -4.5387   -1.1159   -0.1551 C.ar    1  LIG1        0.0733
     17 C          -3.8849   -2.3462   -0.2035 C.ar    1  LIG1        0.0880
     18 N          -2.5388   -2.0862   -0.3027 N.ar    1  LIG1       -0.3488
     19 H          -1.8554   -2.8335   -0.2668 H       1  LIG1        0.1661
     20 N          -3.7590    1.3068   -0.2104 N.pl3   1  LIG1       -0.3548
     21 H          -3.4689    1.7375   -1.0860 H       1  LIG1        0.1424
     22 H          -4.7456    1.5086   -0.0762 H       1  LIG1        0.1424
     23 N          -5.9584   -0.9659   -0.0714 N.pl3   1  LIG1       -0.3548
     24 H          -6.2579   -0.6208    0.8378 H       1  LIG1        0.1424
     25 H          -6.3172   -0.3266   -0.7766 H       1  LIG1        0.1424
     26 C          -4.3875   -3.6946   -0.1649 C.ar    1  LIG1        0.0880
     27 C          -3.6969   -4.9071   -0.1411 C.ar    1  LIG1        0.0733
     28 C          -4.6678   -5.9505   -0.1193 C.ar    1  LIG1        0.0733
     29 C          -5.9262   -5.3498   -0.1247 C.ar    1  LIG1        0.0880
     30 N          -5.7304   -3.9900   -0.1553 N.ar    1  LIG1       -0.3488
     31 H          -6.4760   -3.3002   -0.1384 H       1  LIG1        0.1661
     32 N          -2.2647   -5.0108   -0.1238 N.pl3   1  LIG1       -0.3548
     33 H          -1.9282   -5.3049    0.7923 H       1  LIG1        0.1424
     34 H          -1.9424   -5.7117   -0.7876 H       1  LIG1        0.1424
     35 N          -4.4612   -7.3718   -0.0960 N.pl3   1  LIG1       -0.3548
     36 H          -4.1122   -7.7084   -0.9924 H       1  LIG1        0.1424
     37 H          -3.7614   -7.6245    0.5987 H       1  LIG1        0.1424
     38 C          -7.2384   -5.9444   -0.0817 C.ar    1  LIG1        0.0875
     39 C          -8.5067   -5.3685   -0.1056 C.ar    1  LIG1        0.0726
     40 C          -9.4588   -6.4273    0.0056 C.ar    1  LIG1        0.0637
     41 C          -8.7484   -7.6117    0.0906 C.ar    1  LIG1        0.0249
     42 N          -7.4061   -7.3015    0.0343 N.ar    1  LIG1       -0.3564
     43 H          -6.6080   -7.9217    0.0976 H       1  LIG1        0.1655
     44 H          -9.0901   -8.6312    0.1896 H       1  LIG1        0.0826
     45 N          -8.7584   -3.9627   -0.1896 N.pl3   1  LIG1       -0.3549
     46 H          -9.0655   -3.6901   -1.1222 H       1  LIG1        0.1424
     47 H          -9.5076   -3.7068    0.4504 H       1  LIG1        0.1424
     48 N         -10.8576   -6.2232    0.0947 N.pl3   1  LIG1       -0.3554
     49 H         -11.2104   -5.7000   -0.7023 H       1  LIG1        0.1424
     50 H         -11.3626   -7.1016    0.1390 H       1  LIG1        0.1424
@<TRIPOS>BOND
     1     6     5    1
     2     7     1    1
     3    46    45    1
     4    21    20    1
     5     5     1   ar
     6     5     4   ar
     7    36    35    1
     8     1     2   ar
     9    34    32    1
    10    25    23    1
    11    49    48    1
    12     4    14    1
    13     4     3   ar
    14    18    14   ar
    15    18    19    1
    16    18    17   ar
    17    14    15   ar
    18     2     8    1
    19     2     3   ar
    20    15    20    1
    21    15    16   ar
    22    20    22    1
    23    17    26    1
    24    17    16   ar
    25    10     8    1
    26    45    39    1
    27    45    47    1
    28    26    30   ar
    29    26    27   ar
    30    30    31    1
    31    30    29   ar
    32    16    23    1
    33    27    32    1
    34    27    28   ar
    35    29    28   ar
    36    29    38    1
    37    32    33    1
    38    28    35    1
    39    39    38   ar
    40    39    40   ar
    41    35    37    1
    42    38    42   ar
    43    23    24    1
    44    40    41   ar
    45    40    48    1
    46    42    41   ar
    47    42    43    1
    48    41    44    1
    49    48    50    1
    50     8     9    1
    51     3    11    1
    52    12    11    1
    53    13    11    1
