@<TRIPOS>MOLECULE
mol_data/opt/b3lyp/geoms/mol2/13hh13hh13hh.out
 38 40 0 0 0
SMALL
GASTEIGER

@<TRIPOS>ATOM
      1 C           1.1643   -0.1961   -1.0636 C.ar    1  LIG1        0.0249
      2 C           0.9291    0.9968   -0.4231 C.ar    1  LIG1        0.0637
      3 C          -0.4466    1.0118   -0.0128 C.ar    1  LIG1        0.0726
      4 C          -1.0132   -0.1894   -0.4136 C.ar    1  LIG1        0.0875
      5 N           0.0001   -0.9564   -1.0157 N.ar    1  LIG1       -0.3564
      6 H          -0.2382   -1.5672   -1.7857 H       1  LIG1        0.1655
      7 H           2.0635   -0.5786   -1.5240 H       1  LIG1        0.0826
      8 N           1.7961    2.0834   -0.1692 N.pl3   1  LIG1       -0.3554
      9 H           1.8145    2.3105    0.8225 H       1  LIG1        0.1424
     10 H           2.7455    1.8929   -0.4699 H       1  LIG1        0.1424
     11 N          -1.0080    2.0351    0.7570 N.pl3   1  LIG1       -0.3549
     12 H          -0.6355    2.9380    0.4779 H       1  LIG1        0.1424
     13 H          -2.0288    2.0281    0.6869 H       1  LIG1        0.1424
     14 C          -2.3341   -0.7407   -0.2228 C.ar    1  LIG1        0.0880
     15 C          -3.5869   -0.1485   -0.0543 C.ar    1  LIG1        0.0733
     16 C          -4.5593   -1.1858    0.0647 C.ar    1  LIG1        0.0733
     17 C          -3.8924   -2.4051   -0.0369 C.ar    1  LIG1        0.0880
     18 N          -2.5431   -2.1031   -0.2263 N.ar    1  LIG1       -0.3488
     19 H          -1.8017   -2.7824   -0.2654 H       1  LIG1        0.1661
     20 N          -3.8386    1.2579    0.0200 N.pl3   1  LIG1       -0.3548
     21 H          -4.1170    1.6518   -0.8773 H       1  LIG1        0.1424
     22 H          -4.5871    1.4458    0.6830 H       1  LIG1        0.1424
     23 N          -5.9214   -0.9752    0.3368 N.pl3   1  LIG1       -0.3548
     24 H          -6.2763   -0.1579   -0.1496 H       1  LIG1        0.1424
     25 H          -6.4963   -1.7836    0.1000 H       1  LIG1        0.1424
     26 C          -4.3901   -3.7552    0.0789 C.ar    1  LIG1        0.0875
     27 C          -5.5928   -4.3061   -0.3364 C.ar    1  LIG1        0.0726
     28 C          -5.6175   -5.6765    0.0642 C.ar    1  LIG1        0.0637
     29 C          -4.4224   -5.9416    0.7007 C.ar    1  LIG1        0.0249
     30 N          -3.6600   -4.7899    0.6631 N.ar    1  LIG1       -0.3564
     31 H          -2.8914   -4.6176    1.2918 H       1  LIG1        0.1655
     32 H          -4.0430   -6.8550    1.1347 H       1  LIG1        0.0826
     33 N          -6.6296   -3.6494   -1.0456 N.pl3   1  LIG1       -0.3549
     34 H          -6.2574   -3.1552   -1.8538 H       1  LIG1        0.1424
     35 H          -7.2872   -4.3516   -1.3792 H       1  LIG1        0.1424
     36 N          -6.6974   -6.5460   -0.2695 N.pl3   1  LIG1       -0.3554
     37 H          -6.3890   -7.5111   -0.3311 H       1  LIG1        0.1424
     38 H          -7.4341   -6.5087    0.4319 H       1  LIG1        0.1424
@<TRIPOS>BOND
     1    34    33    1
     2     6     5    1
     3     7     1    1
     4    35    33    1
     5     1     5   ar
     6     1     2   ar
     7    33    27    1
     8     5     4   ar
     9    21    20    1
    10    10     8    1
    11     2     8    1
    12     2     3   ar
    13     4    14    1
    14     4     3   ar
    15    27    28   ar
    16    27    26   ar
    17    37    36    1
    18    36    28    1
    19    36    38    1
    20    19    18    1
    21    18    14   ar
    22    18    17   ar
    23    14    15   ar
    24     8     9    1
    25    24    23    1
    26    15    20    1
    27    15    16   ar
    28    17    16   ar
    29    17    26    1
    30     3    11    1
    31    20    22    1
    32    28    29   ar
    33    16    23    1
    34    26    30   ar
    35    25    23    1
    36    12    11    1
    37    30    29   ar
    38    30    31    1
    39    13    11    1
    40    29    32    1
