@<TRIPOS>MOLECULE
mol_data/opt/b3lyp/geoms/mol2/13hh.out
 14 14 0 0 0
SMALL
GASTEIGER

@<TRIPOS>ATOM
      1 C           1.1253   -0.3904   -0.0418 C.ar    1  LIG1        0.0244
      2 C           0.7178    0.9297   -0.0578 C.ar    1  LIG1        0.0631
      3 C          -0.7150    0.9320   -0.0574 C.ar    1  LIG1        0.0631
      4 C          -1.1266   -0.3868   -0.0413 C.ar    1  LIG1        0.0244
      5 N          -0.0019   -1.1828   -0.0158 N.ar    1  LIG1       -0.3639
      6 H          -0.0035   -2.1861    0.0368 H       1  LIG1        0.1649
      7 H          -2.1205   -0.8086   -0.0284 H       1  LIG1        0.0826
      8 H           2.1179   -0.8152   -0.0293 H       1  LIG1        0.0826
      9 N           1.5287    2.0893    0.0053 N.pl3   1  LIG1       -0.3554
     10 H           2.5070    1.8642   -0.1402 H       1  LIG1        0.1424
     11 H           1.2661    2.7814   -0.6904 H       1  LIG1        0.1424
     12 N          -1.5222    2.0941    0.0061 N.pl3   1  LIG1       -0.3554
     13 H          -1.2568    2.7862   -0.6885 H       1  LIG1        0.1424
     14 H          -2.5011    1.8723   -0.1403 H       1  LIG1        0.1424
@<TRIPOS>BOND
     1    11     9    1
     2    13    12    1
     3    14    12    1
     4    10     9    1
     5     2     3   ar
     6     2     1   ar
     7     2     9    1
     8     3     4   ar
     9     3    12    1
    10     1     8    1
    11     1     5   ar
    12     4     7    1
    13     4     5   ar
    14     5     6    1
