@<TRIPOS>MOLECULE
mol_data/opt/b3lyp/geoms/mol2/13hh13hh-13hh.out
 38 40 0 0 0
SMALL
GASTEIGER

@<TRIPOS>ATOM
      1 C           1.2743   -0.3568   -0.0617 C.ar    1  LIG1        0.0249
      2 C           0.8904    0.9722   -0.0840 C.ar    1  LIG1        0.0637
      3 C          -0.5372    1.0006   -0.1263 C.ar    1  LIG1        0.0726
      4 C          -0.9804   -0.3206   -0.1245 C.ar    1  LIG1        0.0875
      5 N           0.1285   -1.1254   -0.0830 N.ar    1  LIG1       -0.3564
      6 H           0.0405   -2.1343   -0.0787 H       1  LIG1        0.1655
      7 H           2.2558   -0.8050   -0.0206 H       1  LIG1        0.0826
      8 N           1.7029    2.1265    0.0090 N.pl3   1  LIG1       -0.3554
      9 H           2.6854    1.9091   -0.1160 H       1  LIG1        0.1424
     10 H           1.4422    2.8221   -0.6841 H       1  LIG1        0.1424
     11 N          -1.4004    2.1417   -0.1426 N.pl3   1  LIG1       -0.3549
     12 H          -1.1200    2.8105    0.5717 H       1  LIG1        0.1424
     13 H          -1.3636    2.6313   -1.0352 H       1  LIG1        0.1424
     14 C          -2.3120   -0.8740   -0.1395 C.ar    1  LIG1        0.0880
     15 C          -2.7305   -2.2038   -0.1450 C.ar    1  LIG1        0.0733
     16 C          -4.1569   -2.2016   -0.1432 C.ar    1  LIG1        0.0733
     17 C          -4.5711   -0.8705   -0.1371 C.ar    1  LIG1        0.0880
     18 N          -3.4404   -0.0897   -0.1409 N.ar    1  LIG1       -0.3488
     19 H          -3.4387    0.9257   -0.0901 H       1  LIG1        0.1661
     20 N          -1.8295   -3.3239   -0.1480 N.pl3   1  LIG1       -0.3548
     21 H          -2.0014   -3.9306    0.6519 H       1  LIG1        0.1424
     22 H          -1.9645   -3.8996   -0.9776 H       1  LIG1        0.1424
     23 N          -5.0614   -3.3188   -0.1425 N.pl3   1  LIG1       -0.3548
     24 H          -4.9160   -3.9072   -0.9613 H       1  LIG1        0.1424
     25 H          -4.9033   -3.9141    0.6688 H       1  LIG1        0.1424
     26 C          -5.9010   -0.3128   -0.1209 C.ar    1  LIG1        0.0875
     27 C          -6.3400    1.0098   -0.1213 C.ar    1  LIG1        0.0726
     28 C          -7.7678    0.9858   -0.0806 C.ar    1  LIG1        0.0637
     29 C          -8.1558   -0.3420   -0.0606 C.ar    1  LIG1        0.0249
     30 N          -7.0125   -1.1142   -0.0812 N.ar    1  LIG1       -0.3564
     31 H          -6.9278   -2.1234   -0.0818 H       1  LIG1        0.1655
     32 H          -9.1388   -0.7871   -0.0209 H       1  LIG1        0.0826
     33 N          -5.4732    2.1480   -0.1356 N.pl3   1  LIG1       -0.3549
     34 H          -5.5093    2.6401   -1.0268 H       1  LIG1        0.1424
     35 H          -5.7502    2.8160    0.5808 H       1  LIG1        0.1424
     36 N          -8.5767    2.1424    0.0136 N.pl3   1  LIG1       -0.3554
     37 H          -8.3114    2.8395   -0.6763 H       1  LIG1        0.1424
     38 H          -9.5595    1.9287   -0.1153 H       1  LIG1        0.1424
@<TRIPOS>BOND
     1    13    11    1
     2    34    33    1
     3    22    20    1
     4    24    23    1
     5    10     8    1
     6    37    36    1
     7    20    15    1
     8    20    21    1
     9    15    16   ar
    10    15    14   ar
    11    16    23    1
    12    16    17   ar
    13    11     3    1
    14    11    12    1
    15    23    25    1
    16    18    14   ar
    17    18    17   ar
    18    18    19    1
    19    14     4    1
    20    17    26    1
    21    33    27    1
    22    33    35    1
    23     3     4   ar
    24     3     2   ar
    25     4     5   ar
    26    27    26   ar
    27    27    28   ar
    28    26    30   ar
    29     9     8    1
    30    38    36    1
    31     2     1   ar
    32     2     8    1
    33     5     6    1
    34     5     1   ar
    35    31    30    1
    36    30    29   ar
    37    28    29   ar
    38    28    36    1
    39     1     7    1
    40    29    32    1
