@<TRIPOS>MOLECULE
mol_data/opt/b3lyp/geoms/mol2/13hh12al-13ea12le.out
 48 51 0 0 0
SMALL
GASTEIGER

@<TRIPOS>ATOM
      1 C           1.1615   -0.0416    0.8607 C.ar    1  LIG1        0.0249
      2 C           0.8693    1.2066    0.3352 C.ar    1  LIG1        0.0638
      3 C          -0.4933    1.1866   -0.0792 C.ar    1  LIG1        0.0742
      4 C          -1.0022   -0.0783    0.2138 C.ar    1  LIG1        0.1050
      5 N           0.0383   -0.8189    0.7593 N.ar    1  LIG1       -0.3551
      6 H          -0.0702   -1.7542    1.1133 H       1  LIG1        0.1655
      7 H           2.0823   -0.4295    1.2706 H       1  LIG1        0.0826
      8 N           1.7067    2.3380    0.1291 N.pl3   1  LIG1       -0.3554
      9 H           1.6058    3.0226    0.8752 H       1  LIG1        0.1424
     10 H           2.6859    2.0770    0.0814 H       1  LIG1        0.1424
     11 N          -1.1601    2.2707   -0.6638 N.pl3   1  LIG1       -0.3548
     12 H          -0.4805    2.9236   -1.0456 H       1  LIG1        0.1424
     13 H          -1.8072    1.9825   -1.3912 H       1  LIG1        0.1424
     14 C          -2.3131   -0.6144    0.0176 C.ar    1  LIG1        0.1573
     15 C          -3.5327   -0.0341   -0.2505 C.ar    1  LIG1        0.0282
     16 C          -4.4757   -1.1027   -0.3325 C.ar    1  LIG1        0.1678
     17 C          -3.7985   -2.2821   -0.0886 C.ar    1  LIG1        0.1944
     18 O          -2.4562   -1.9720    0.1127 O.2     1  LIG1       -0.4480
     19 H          -3.7236    1.0252   -0.3207 H       1  LIG1        0.0693
     20 O          -5.7939   -1.0469   -0.6244 O.3     1  LIG1       -0.4912
     21 C          -6.3506    0.2463   -0.8069 C.3     1  LIG1        0.0790
     22 H          -7.4073    0.0911   -1.0273 H       1  LIG1        0.0660
     23 H          -6.2550    0.8570    0.0998 H       1  LIG1        0.0660
     24 H          -5.8786    0.7725   -1.6467 H       1  LIG1        0.0660
     25 C          -4.1248   -3.6775   -0.0661 C.ar    1  LIG1        0.1019
     26 C          -5.3236   -4.3941    0.1249 C.ar    1  LIG1        0.0537
     27 C          -5.0017   -5.7810    0.0340 C.ar    1  LIG1       -0.0171
     28 C          -3.6404   -5.8908   -0.1893 C.ar    1  LIG1        0.0875
     29 N          -3.1288   -4.6098   -0.2447 N.ar    1  LIG1       -0.3482
     30 H          -2.1657   -4.3797   -0.4296 H       1  LIG1        0.1661
     31 C          -6.6108   -3.8828    0.4251 C.1     1  LIG1       -0.0674
     32 C          -7.7280   -3.5085    0.7056 C.1     1  LIG1       -0.1138
     33 H          -8.7044   -3.1602    0.9473 H       1  LIG1        0.1232
     34 H          -5.6931   -6.6033    0.1286 H       1  LIG1        0.0652
     35 C          -2.7951   -7.0416   -0.3402 C.ar    1  LIG1        0.1935
     36 C          -3.0201   -8.3954   -0.2900 C.ar    1  LIG1        0.1825
     37 C          -1.7513   -9.0462   -0.5477 C.ar    1  LIG1        0.1047
     38 C          -0.8536   -8.0274   -0.7344 C.ar    1  LIG1        0.1117
     39 O          -1.4636   -6.8187   -0.6199 O.2     1  LIG1       -0.4564
     40 H           0.2024   -8.0179   -0.9509 H       1  LIG1        0.1043
     41 O          -4.2387   -8.9685   -0.1007 O.3     1  LIG1       -0.4901
     42 C          -4.3405   -9.8303    1.0413 C.3     1  LIG1        0.0790
     43 H          -5.3689  -10.1949    1.0533 H       1  LIG1        0.0660
     44 H          -3.6530  -10.6778    0.9620 H       1  LIG1        0.0660
     45 H          -4.1362   -9.2777    1.9660 H       1  LIG1        0.0660
     46 C          -1.4813  -10.4361   -0.6285 C.1     1  LIG1       -0.0628
     47 C          -1.2514  -11.6224   -0.6955 C.1     1  LIG1       -0.1137
     48 H          -1.0498  -12.6658   -0.7694 H       1  LIG1        0.1232
@<TRIPOS>BOND
     1    24    21    1
     2    13    11    1
     3    12    11    1
     4    22    21    1
     5    40    38    1
     6    21    20    1
     7    21    23    1
     8    48    47    1
     9    38    39   ar
    10    38    37   ar
    11    47    46    3
    12    11     3    1
    13    46    37    1
    14    20    16    1
    15    39    35   ar
    16    37    36   ar
    17    30    29    1
    18    35    36   ar
    19    35    28    1
    20    16    15   ar
    21    16    17   ar
    22    19    15    1
    23    36    41    1
    24    15    14   ar
    25    29    28   ar
    26    29    25   ar
    27    28    27   ar
    28    41    42    1
    29    17    25    1
    30    17    18   ar
    31     3     4   ar
    32     3     2   ar
    33    25    26   ar
    34    14    18   ar
    35    14     4    1
    36    27    26   ar
    37    27    34    1
    38    10     8    1
    39    26    31    1
    40     8     2    1
    41     8     9    1
    42     4     5   ar
    43     2     1   ar
    44    31    32    3
    45    32    33    1
    46     5     1   ar
    47     5     6    1
    48     1     7    1
    49    44    42    1
    50    42    43    1
    51    42    45    1
