@<TRIPOS>MOLECULE
mol_data/opt/b3lyp/geoms/mol2/13hh13hh-13hh-13hh.out
 50 53 0 0 0
SMALL
GASTEIGER

@<TRIPOS>ATOM
      1 C           1.3480   -0.3315   -0.0734 C.ar    1  LIG1        0.0249
      2 C           0.9578    0.8830   -0.6101 C.ar    1  LIG1        0.0637
      3 C          -0.4685    0.8746   -0.6812 C.ar    1  LIG1        0.0726
      4 C          -0.9040   -0.3497   -0.1784 C.ar    1  LIG1        0.0875
      5 N           0.2073   -1.0637    0.1850 N.ar    1  LIG1       -0.3564
      6 H           0.1231   -1.9911    0.5834 H       1  LIG1        0.1655
      7 H           2.3314   -0.7171    0.1505 H       1  LIG1        0.0826
      8 N           1.7628    1.9952   -0.9571 N.pl3   1  LIG1       -0.3554
      9 H           2.7510    1.7747   -0.8998 H       1  LIG1        0.1424
     10 H           1.5692    2.3174   -1.9015 H       1  LIG1        0.1424
     11 N          -1.3436    1.9098   -1.1520 N.pl3   1  LIG1       -0.3549
     12 H          -1.0761    2.8034   -0.7425 H       1  LIG1        0.1424
     13 H          -1.2712    2.0251   -2.1623 H       1  LIG1        0.1424
     14 C          -2.2337   -0.8723   -0.0026 C.ar    1  LIG1        0.0880
     15 C          -2.6654   -2.1237    0.4351 C.ar    1  LIG1        0.0733
     16 C          -4.0905   -2.1221    0.4229 C.ar    1  LIG1        0.0733
     17 C          -4.5011   -0.8657   -0.0369 C.ar    1  LIG1        0.0880
     18 N          -3.3468   -0.1258   -0.2759 N.ar    1  LIG1       -0.3488
     19 H          -3.2721    0.8013   -0.6765 H       1  LIG1        0.1661
     20 N          -1.7823   -3.1730    0.8591 N.pl3   1  LIG1       -0.3548
     21 H          -2.0338   -3.4974    1.7915 H       1  LIG1        0.1424
     22 H          -1.8400   -3.9830    0.2432 H       1  LIG1        0.1424
     23 N          -4.9031   -3.1572    0.9081 N.pl3   1  LIG1       -0.3548
     24 H          -5.8435   -3.1303    0.5113 H       1  LIG1        0.1424
     25 H          -4.4825   -4.0681    0.7590 H       1  LIG1        0.1424
     26 C          -5.8224   -0.3070   -0.1954 C.ar    1  LIG1        0.0880
     27 C          -7.0296   -0.9075   -0.5509 C.ar    1  LIG1        0.0733
     28 C          -8.0367    0.1014   -0.5589 C.ar    1  LIG1        0.0733
     29 C          -7.4218    1.3048   -0.2232 C.ar    1  LIG1        0.0880
     30 N          -6.0876    1.0428   -0.0304 N.ar    1  LIG1       -0.3488
     31 H          -5.4722    1.7493    0.3585 H       1  LIG1        0.1661
     32 N          -7.2005   -2.2871   -0.8639 N.pl3   1  LIG1       -0.3548
     33 H          -8.1801   -2.4892   -1.0420 H       1  LIG1        0.1424
     34 H          -6.6753   -2.5442   -1.6976 H       1  LIG1        0.1424
     35 N          -9.4349   -0.0270   -0.8545 N.pl3   1  LIG1       -0.3548
     36 H          -9.5921   -0.4402   -1.7718 H       1  LIG1        0.1424
     37 H          -9.9117   -0.6150   -0.1735 H       1  LIG1        0.1424
     38 C          -7.9647    2.6272   -0.0537 C.ar    1  LIG1        0.0875
     39 C          -7.3443    3.8150    0.3278 C.ar    1  LIG1        0.0726
     40 C          -8.3492    4.8295    0.3667 C.ar    1  LIG1        0.0637
     41 C          -9.5453    4.2350    0.0060 C.ar    1  LIG1        0.0249
     42 N          -9.2945    2.8994   -0.2397 N.ar    1  LIG1       -0.3564
     43 H          -9.9425    2.1778   -0.5279 H       1  LIG1        0.1655
     44 H         -10.5388    4.6491   -0.0786 H       1  LIG1        0.0826
     45 N          -5.9512    3.9265    0.6492 N.pl3   1  LIG1       -0.3549
     46 H          -5.4455    4.4653   -0.0527 H       1  LIG1        0.1424
     47 H          -5.8325    4.4189    1.5329 H       1  LIG1        0.1424
     48 N          -8.1184    6.1576    0.7964 N.pl3   1  LIG1       -0.3554
     49 H          -7.3414    6.5835    0.2990 H       1  LIG1        0.1424
     50 H          -8.9351    6.7443    0.6652 H       1  LIG1        0.1424
@<TRIPOS>BOND
     1    13    11    1
     2    10     8    1
     3    36    35    1
     4    34    32    1
     5    11    12    1
     6    11     3    1
     7    33    32    1
     8     8     9    1
     9     8     2    1
    10    32    27    1
    11    35    28    1
    12    35    37    1
    13     3     2   ar
    14     3     4   ar
    15    19    18    1
    16     2     1   ar
    17    28    27   ar
    18    28    29   ar
    19    27    26   ar
    20    43    42    1
    21    18    17   ar
    22    18    14   ar
    23    42    38   ar
    24    42    41   ar
    25    29    38    1
    26    29    30   ar
    27    26    17    1
    28    26    30   ar
    29     4    14    1
    30     4     5   ar
    31    44    41    1
    32     1     7    1
    33     1     5   ar
    34    38    39   ar
    35    46    45    1
    36    17    16   ar
    37    30    31    1
    38    14    15   ar
    39    41    40   ar
    40     5     6    1
    41    22    20    1
    42    49    48    1
    43    39    40   ar
    44    39    45    1
    45    40    48    1
    46    16    15   ar
    47    16    23    1
    48    15    20    1
    49    24    23    1
    50    45    47    1
    51    50    48    1
    52    25    23    1
    53    20    21    1
