@<TRIPOS>MOLECULE
mol_data/opt/b3lyp/geoms/mol2/13hh13hh13hh-13hh-.out
 50 53 0 0 0
SMALL
GASTEIGER

@<TRIPOS>ATOM
      1 C           1.1625    0.1088    0.7355 C.ar    1  LIG1        0.0249
      2 C           0.8511    1.2003   -0.0523 C.ar    1  LIG1        0.0637
      3 C          -0.5007    1.0446   -0.4811 C.ar    1  LIG1        0.0726
      4 C          -0.9970   -0.1300    0.0684 C.ar    1  LIG1        0.0875
      5 N           0.0548   -0.7108    0.7690 N.ar    1  LIG1       -0.3564
      6 H          -0.0764   -1.4632    1.4255 H       1  LIG1        0.1655
      7 H           2.0793   -0.1592    1.2395 H       1  LIG1        0.0826
      8 N           1.6644    2.2927   -0.4831 N.pl3   1  LIG1       -0.3554
      9 H           1.6445    3.0577    0.1880 H       1  LIG1        0.1424
     10 H           2.6344    2.0113   -0.5868 H       1  LIG1        0.1424
     11 N          -1.1927    1.9409   -1.3374 N.pl3   1  LIG1       -0.3549
     12 H          -0.5280    2.6385   -1.6677 H       1  LIG1        0.1424
     13 H          -1.5579    1.4493   -2.1510 H       1  LIG1        0.1424
     14 C          -2.3087   -0.7253   -0.0159 C.ar    1  LIG1        0.0880
     15 C          -3.5673   -0.1190   -0.0744 C.ar    1  LIG1        0.0733
     16 C          -4.5394   -1.1620   -0.0811 C.ar    1  LIG1        0.0733
     17 C          -3.8604   -2.3785   -0.0124 C.ar    1  LIG1        0.0880
     18 N          -2.5200   -2.0998    0.0397 N.ar    1  LIG1       -0.3488
     19 H          -1.8327   -2.8396   -0.0431 H       1  LIG1        0.1661
     20 N          -3.8504    1.2526   -0.0064 N.pl3   1  LIG1       -0.3548
     21 H          -3.0868    1.8328   -0.3570 H       1  LIG1        0.1424
     22 H          -4.7156    1.4851   -0.4813 H       1  LIG1        0.1424
     23 N          -5.9695   -1.0420   -0.1160 N.pl3   1  LIG1       -0.3548
     24 H          -6.2978   -0.4367    0.6350 H       1  LIG1        0.1424
     25 H          -6.2853   -0.6193   -0.9880 H       1  LIG1        0.1424
     26 C          -4.3556   -3.7276   -0.0107 C.ar    1  LIG1        0.0880
     27 C          -3.6767   -4.9443   -0.0775 C.ar    1  LIG1        0.0733
     28 C          -4.6487   -5.9873   -0.0678 C.ar    1  LIG1        0.0733
     29 C          -5.9073   -5.3809   -0.0096 C.ar    1  LIG1        0.0880
     30 N          -5.6960   -4.0063    0.0433 N.ar    1  LIG1       -0.3488
     31 H          -6.3834   -3.2668   -0.0409 H       1  LIG1        0.1661
     32 N          -2.2466   -5.0644   -0.1134 N.pl3   1  LIG1       -0.3548
     33 H          -1.9178   -5.6692    0.6377 H       1  LIG1        0.1424
     34 H          -1.9316   -5.4879   -0.9854 H       1  LIG1        0.1424
     35 N          -4.3656   -7.3588    0.0026 N.pl3   1  LIG1       -0.3548
     36 H          -5.1301   -7.9394   -0.3453 H       1  LIG1        0.1424
     37 H          -3.5018   -7.5923   -0.4745 H       1  LIG1        0.1424
     38 C          -7.2189   -5.9760    0.0781 C.ar    1  LIG1        0.0875
     39 C          -7.7164   -7.1516   -0.4682 C.ar    1  LIG1        0.0726
     40 C          -9.0677   -7.3058   -0.0375 C.ar    1  LIG1        0.0637
     41 C          -9.3777   -6.2124    0.7483 C.ar    1  LIG1        0.0249
     42 N          -8.2696   -5.3931    0.7785 N.ar    1  LIG1       -0.3564
     43 H          -8.1372   -4.6396    1.4335 H       1  LIG1        0.1655
     44 H         -10.2938   -5.9429    1.2529 H       1  LIG1        0.0826
     45 N          -7.0254   -8.0500   -1.3232 N.pl3   1  LIG1       -0.3549
     46 H          -7.6903   -8.7490   -1.6501 H       1  LIG1        0.1424
     47 H          -6.6621   -7.5607   -2.1391 H       1  LIG1        0.1424
     48 N          -9.8819   -8.3989   -0.4646 N.pl3   1  LIG1       -0.3554
     49 H          -9.8614   -9.1622    0.2084 H       1  LIG1        0.1424
     50 H         -10.8519   -8.1174   -0.5679 H       1  LIG1        0.1424
@<TRIPOS>BOND
     1    13    11    1
     2    47    45    1
     3    12    11    1
     4    46    45    1
     5    11     3    1
     6    45    39    1
     7    25    23    1
     8    34    32    1
     9    10     8    1
    10    50    48    1
    11     8     2    1
    12     8     9    1
    13    22    20    1
    14     3     2   ar
    15     3     4   ar
    16    37    35    1
    17    39    40   ar
    18    39    38   ar
    19    48    40    1
    20    48    49    1
    21    21    20    1
    22    36    35    1
    23    23    16    1
    24    23    24    1
    25    32    27    1
    26    32    33    1
    27    16    15   ar
    28    16    17   ar
    29    27    28   ar
    30    27    26   ar
    31    15    14   ar
    32    15    20    1
    33    28    29   ar
    34    28    35    1
    35     2     1   ar
    36    19    18    1
    37    31    30    1
    38    40    41   ar
    39    14    18   ar
    40    14     4    1
    41    17    26    1
    42    17    18   ar
    43    26    30   ar
    44    29    30   ar
    45    29    38    1
    46     4     5   ar
    47    38    42   ar
    48     1     5   ar
    49     1     7    1
    50    41    42   ar
    51    41    44    1
    52     5     6    1
    53    42    43    1
