@<TRIPOS>MOLECULE
mol_data/opt/b3lyp/geoms/mol2/13hh13hh13hh13hh-.out
 50 53 0 0 0
SMALL
GASTEIGER

@<TRIPOS>ATOM
      1 C           0.9257    0.1387    1.3278 C.ar    1  LIG1        0.0249
      2 C           0.7725    1.1395    0.3902 C.ar    1  LIG1        0.0637
      3 C          -0.4962    0.9471   -0.2359 C.ar    1  LIG1        0.0726
      4 C          -1.1021   -0.1573    0.3437 C.ar    1  LIG1        0.0875
      5 N          -0.1893   -0.6745    1.2620 N.ar    1  LIG1       -0.3564
      6 H          -0.4678   -1.2918    2.0084 H       1  LIG1        0.1655
      7 H           1.7444   -0.0799    1.9975 H       1  LIG1        0.0826
      8 N           1.6773    2.1613   -0.0241 N.pl3   1  LIG1       -0.3554
      9 H           1.5009    3.0347    0.4681 H       1  LIG1        0.1424
     10 H           2.6401    1.8998    0.1631 H       1  LIG1        0.1424
     11 N          -1.0187    1.7533   -1.2785 N.pl3   1  LIG1       -0.3549
     12 H          -0.2737    2.3551   -1.6245 H       1  LIG1        0.1424
     13 H          -1.3427    1.1751   -2.0511 H       1  LIG1        0.1424
     14 C          -2.3986   -0.7438    0.1032 C.ar    1  LIG1        0.0880
     15 C          -3.6224   -0.1432   -0.1834 C.ar    1  LIG1        0.0733
     16 C          -4.6038   -1.1753   -0.2589 C.ar    1  LIG1        0.0733
     17 C          -3.9761   -2.3989   -0.0111 C.ar    1  LIG1        0.0880
     18 N          -2.6432   -2.1146    0.1979 N.ar    1  LIG1       -0.3488
     19 H          -1.9409   -2.8030    0.4108 H       1  LIG1        0.1661
     20 N          -3.8989    1.2310   -0.2829 N.pl3   1  LIG1       -0.3548
     21 H          -3.0678    1.7814   -0.4987 H       1  LIG1        0.1424
     22 H          -4.6139    1.4174   -0.9790 H       1  LIG1        0.1424
     23 N          -5.9996   -0.9928   -0.5198 N.pl3   1  LIG1       -0.3548
     24 H          -6.3290   -0.1363   -0.0800 H       1  LIG1        0.1424
     25 H          -6.2005   -0.9210   -1.5161 H       1  LIG1        0.1424
     26 C          -4.4690   -3.7551    0.0123 C.ar    1  LIG1        0.0880
     27 C          -5.7262   -4.2799    0.3322 C.ar    1  LIG1        0.0733
     28 C          -5.6202   -5.7003    0.2741 C.ar    1  LIG1        0.0733
     29 C          -4.3086   -6.0170   -0.0731 C.ar    1  LIG1        0.0880
     30 N          -3.6235   -4.8412   -0.2121 N.ar    1  LIG1       -0.3488
     31 H          -2.6834   -4.8371   -0.5893 H       1  LIG1        0.1661
     32 N          -6.8583   -3.5707    0.7455 N.pl3   1  LIG1       -0.3548
     33 H          -6.8528   -2.6148    0.3793 H       1  LIG1        0.1424
     34 H          -7.7169   -4.0504    0.4985 H       1  LIG1        0.1424
     35 N          -6.6336   -6.6782    0.5509 N.pl3   1  LIG1       -0.3548
     36 H          -7.0542   -6.5098    1.4633 H       1  LIG1        0.1424
     37 H          -7.3903   -6.6338   -0.1306 H       1  LIG1        0.1424
     38 C          -3.6758   -7.2913   -0.2894 C.ar    1  LIG1        0.0875
     39 C          -2.3870   -7.6020   -0.7183 C.ar    1  LIG1        0.0726
     40 C          -2.2749   -9.0254   -0.7390 C.ar    1  LIG1        0.0637
     41 C          -3.4937   -9.5376   -0.3290 C.ar    1  LIG1        0.0249
     42 N          -4.3282   -8.4730   -0.0568 N.ar    1  LIG1       -0.3564
     43 H          -5.2887   -8.4835    0.2646 H       1  LIG1        0.1655
     44 H          -3.8190  -10.5592   -0.2015 H       1  LIG1        0.0826
     45 N          -1.3901   -6.6233   -1.0498 N.pl3   1  LIG1       -0.3549
     46 H          -0.5129   -6.8500   -0.5836 H       1  LIG1        0.1424
     47 H          -1.1890   -6.6256   -2.0494 H       1  LIG1        0.1424
     48 N          -1.0817   -9.7233   -1.0454 N.pl3   1  LIG1       -0.3554
     49 H          -1.2288  -10.7265   -1.0656 H       1  LIG1        0.1424
     50 H          -0.7052   -9.4448   -1.9475 H       1  LIG1        0.1424
@<TRIPOS>BOND
     1    13    11    1
     2    47    45    1
     3    50    48    1
     4    12    11    1
     5    25    23    1
     6    11     3    1
     7    49    48    1
     8    45    39    1
     9    45    46    1
    10    48    40    1
    11    22    20    1
    12    40    39   ar
    13    40    41   ar
    14    39    38   ar
    15    31    30    1
    16    23    16    1
    17    23    24    1
    18    21    20    1
    19    41    44    1
    20    41    42   ar
    21    38    29    1
    22    38    42   ar
    23    20    15    1
    24    16    15   ar
    25    16    17   ar
    26     3     4   ar
    27     3     2   ar
    28    30    29   ar
    29    30    26   ar
    30    15    14   ar
    31    37    35    1
    32    29    28   ar
    33    42    43    1
    34     8    10    1
    35     8     2    1
    36     8     9    1
    37    17    26    1
    38    17    18   ar
    39    26    27   ar
    40    14    18   ar
    41    14     4    1
    42    18    19    1
    43    28    27   ar
    44    28    35    1
    45    27    32    1
    46     4     5   ar
    47    33    32    1
    48     2     1   ar
    49    34    32    1
    50    35    36    1
    51     5     1   ar
    52     5     6    1
    53     1     7    1
