@<TRIPOS>MOLECULE
mol_data/opt/b3lyp/geoms/mol2/13hh13hh-13hh13hh-.out
 50 53 0 0 0
SMALL
GASTEIGER

@<TRIPOS>ATOM
      1 C           1.3470   -0.3107   -0.0279 C.ar    1  LIG1        0.0249
      2 C           0.9583    1.0163    0.0035 C.ar    1  LIG1        0.0637
      3 C          -0.4697    1.0414   -0.0369 C.ar    1  LIG1        0.0726
      4 C          -0.9090   -0.2804   -0.0868 C.ar    1  LIG1        0.0875
      5 N           0.2029   -1.0824   -0.0703 N.ar    1  LIG1       -0.3564
      6 H           0.1222   -2.0883   -0.1544 H       1  LIG1        0.1655
      7 H           2.3297   -0.7571    0.0007 H       1  LIG1        0.0826
      8 N           1.7678    2.1672    0.1476 N.pl3   1  LIG1       -0.3554
      9 H           2.7479    1.9633   -0.0134 H       1  LIG1        0.1424
     10 H           1.4876    2.9017   -0.4958 H       1  LIG1        0.1424
     11 N          -1.3370    2.1800   -0.0127 N.pl3   1  LIG1       -0.3549
     12 H          -1.0862    2.8045    0.7512 H       1  LIG1        0.1424
     13 H          -1.2685    2.7245   -0.8710 H       1  LIG1        0.1424
     14 C          -2.2367   -0.8382   -0.1480 C.ar    1  LIG1        0.0880
     15 C          -2.6478   -2.1701   -0.2003 C.ar    1  LIG1        0.0733
     16 C          -4.0710   -2.1773   -0.2627 C.ar    1  LIG1        0.0733
     17 C          -4.4966   -0.8485   -0.2394 C.ar    1  LIG1        0.0880
     18 N          -3.3681   -0.0607   -0.1824 N.ar    1  LIG1       -0.3488
     19 H          -3.3717    0.9518   -0.0977 H       1  LIG1        0.1661
     20 N          -1.7483   -3.2891   -0.1792 N.pl3   1  LIG1       -0.3548
     21 H          -1.7741   -3.7647    0.7221 H       1  LIG1        0.1424
     22 H          -2.0144   -3.9800   -0.8778 H       1  LIG1        0.1424
     23 N          -4.9513   -3.3015   -0.3383 N.pl3   1  LIG1       -0.3548
     24 H          -5.0647   -3.6275   -1.2968 H       1  LIG1        0.1424
     25 H          -4.5888   -4.0843    0.1997 H       1  LIG1        0.1424
     26 C          -5.8259   -0.2928   -0.2386 C.ar    1  LIG1        0.0880
     27 C          -6.2515    1.0361   -0.2613 C.ar    1  LIG1        0.0733
     28 C          -7.6747    1.0288   -0.1975 C.ar    1  LIG1        0.0733
     29 C          -8.0857   -0.3030   -0.1448 C.ar    1  LIG1        0.0880
     30 N          -6.9543   -1.0805   -0.1804 N.ar    1  LIG1       -0.3488
     31 H          -6.9509   -2.0929   -0.0950 H       1  LIG1        0.1661
     32 N          -5.3710    2.1602   -0.3378 N.pl3   1  LIG1       -0.3548
     33 H          -5.2637    2.4902   -1.2956 H       1  LIG1        0.1424
     34 H          -5.7295    2.9409    0.2058 H       1  LIG1        0.1424
     35 N          -8.5742    2.1478   -0.1753 N.pl3   1  LIG1       -0.3548
     36 H          -8.5471    2.6235    0.7258 H       1  LIG1        0.1424
     37 H          -8.3088    2.8386   -0.8743 H       1  LIG1        0.1424
     38 C          -9.4134   -0.8609   -0.0822 C.ar    1  LIG1        0.0875
     39 C          -9.8524   -2.1827   -0.0314 C.ar    1  LIG1        0.0726
     40 C         -11.2804   -2.1577    0.0105 C.ar    1  LIG1        0.0637
     41 C         -11.6692   -0.8307   -0.0207 C.ar    1  LIG1        0.0249
     42 N         -10.5253   -0.0590   -0.0647 N.ar    1  LIG1       -0.3564
     43 H         -10.4447    0.9469   -0.1487 H       1  LIG1        0.1655
     44 H         -12.6520   -0.3844    0.0087 H       1  LIG1        0.0826
     45 N          -8.9850   -3.3212   -0.0081 N.pl3   1  LIG1       -0.3549
     46 H          -9.2333   -3.9449    0.7572 H       1  LIG1        0.1424
     47 H          -9.0553   -3.8666   -0.8657 H       1  LIG1        0.1424
     48 N         -12.0897   -3.3085    0.1557 N.pl3   1  LIG1       -0.3554
     49 H         -13.0695   -3.1057   -0.0087 H       1  LIG1        0.1424
     50 H         -11.8071   -4.0448   -0.4847 H       1  LIG1        0.1424
@<TRIPOS>BOND
     1    24    23    1
     2    33    32    1
     3    22    20    1
     4    37    35    1
     5    13    11    1
     6    47    45    1
     7    10     8    1
     8    50    48    1
     9    23    16    1
    10    23    25    1
    11    32    27    1
    12    32    34    1
    13    16    17   ar
    14    16    15   ar
    15    27    26   ar
    16    27    28   ar
    17    17    26    1
    18    17    18   ar
    19    26    30   ar
    20    15    20    1
    21    15    14   ar
    22    28    35    1
    23    28    29   ar
    24    18    14   ar
    25    18    19    1
    26    30    29   ar
    27    30    31    1
    28    20    21    1
    29    35    36    1
    30     6     5    1
    31    43    42    1
    32    14     4    1
    33    29    38    1
    34     4     5   ar
    35     4     3   ar
    36    38    42   ar
    37    38    39   ar
    38     5     1   ar
    39    42    41   ar
    40     3    11    1
    41     3     2   ar
    42    39    45    1
    43    39    40   ar
    44     1     7    1
    45     1     2   ar
    46    41    44    1
    47    41    40   ar
    48     9     8    1
    49    11    12    1
    50    49    48    1
    51    45    46    1
    52     2     8    1
    53    40    48    1
