@<TRIPOS>MOLECULE
mol_data/opt/b3lyp/geoms/mol2/13hh13hh-13hh-13hh-.out
 50 53 0 0 0
SMALL
GASTEIGER

@<TRIPOS>ATOM
      1 C           1.3426   -0.2161   -0.3355 C.ar    1  LIG1        0.0249
      2 C           0.8791    1.0216   -0.7467 C.ar    1  LIG1        0.0637
      3 C          -0.5476    0.9664   -0.7245 C.ar    1  LIG1        0.0726
      4 C          -0.9092   -0.3083   -0.2933 C.ar    1  LIG1        0.0875
      5 N           0.2458   -1.0071   -0.0610 N.ar    1  LIG1       -0.3564
      6 H           0.2183   -1.9668    0.2615 H       1  LIG1        0.1655
      7 H           2.3505   -0.5818   -0.2084 H       1  LIG1        0.0826
      8 N           1.6238    2.1854   -1.0556 N.pl3   1  LIG1       -0.3554
      9 H           2.6202    1.9979   -1.0783 H       1  LIG1        0.1424
     10 H           1.3584    2.5724   -1.9571 H       1  LIG1        0.1424
     11 N          -1.4860    2.0011   -1.0569 N.pl3   1  LIG1       -0.3549
     12 H          -1.2250    2.8690   -0.5912 H       1  LIG1        0.1424
     13 H          -1.4759    2.2012   -2.0565 H       1  LIG1        0.1424
     14 C          -2.2074   -0.8894   -0.0750 C.ar    1  LIG1        0.0880
     15 C          -2.5760   -2.1873    0.2726 C.ar    1  LIG1        0.0733
     16 C          -3.9995   -2.2363    0.3324 C.ar    1  LIG1        0.0733
     17 C          -4.4739   -0.9591    0.0126 C.ar    1  LIG1        0.0880
     18 N          -3.3551   -0.1576   -0.2124 N.ar    1  LIG1       -0.3488
     19 H          -3.3221    0.7807   -0.5926 H       1  LIG1        0.1661
     20 N          -1.6393   -3.2390    0.5490 N.pl3   1  LIG1       -0.3548
     21 H          -1.8247   -3.6531    1.4612 H       1  LIG1        0.1424
     22 H          -1.7133   -3.9927   -0.1330 H       1  LIG1        0.1424
     23 N          -4.7528   -3.3390    0.7471 N.pl3   1  LIG1       -0.3548
     24 H          -5.7085   -3.2952    0.3828 H       1  LIG1        0.1424
     25 H          -4.3083   -4.2162    0.4997 H       1  LIG1        0.1424
     26 C          -5.8094   -0.4124   -0.0091 C.ar    1  LIG1        0.0880
     27 C          -7.0574   -0.9909   -0.2548 C.ar    1  LIG1        0.0733
     28 C          -8.0494    0.0311   -0.1787 C.ar    1  LIG1        0.0733
     29 C          -7.4000    1.2301    0.1064 C.ar    1  LIG1        0.0880
     30 N          -6.0400    0.9309    0.1999 N.ar    1  LIG1       -0.3488
     31 H          -5.3237    1.6053    0.4107 H       1  LIG1        0.1661
     32 N          -7.2961   -2.3784   -0.5144 N.pl3   1  LIG1       -0.3548
     33 H          -8.1651   -2.6724   -0.0739 H       1  LIG1        0.1424
     34 H          -7.3766   -2.5771   -1.5105 H       1  LIG1        0.1424
     35 N          -9.4336   -0.1909   -0.2758 N.pl3   1  LIG1       -0.3548
     36 H          -9.9513    0.6618   -0.4879 H       1  LIG1        0.1424
     37 H          -9.6495   -0.8956   -0.9739 H       1  LIG1        0.1424
     38 C          -7.9336    2.5493    0.3472 C.ar    1  LIG1        0.0875
     39 C          -9.0141    3.1986   -0.2303 C.ar    1  LIG1        0.0726
     40 C          -9.1534    4.4748    0.3948 C.ar    1  LIG1        0.0637
     41 C          -8.1448    4.5884    1.3297 C.ar    1  LIG1        0.0249
     42 N          -7.3773    3.4416    1.2629 N.ar    1  LIG1       -0.3564
     43 H          -6.7715    3.1385    2.0092 H       1  LIG1        0.1655
     44 H          -7.8917    5.3983    1.9979 H       1  LIG1        0.0826
     45 N          -9.8433    2.7083   -1.2705 N.pl3   1  LIG1       -0.3549
     46 H         -10.4150    3.4768   -1.6163 H       1  LIG1        0.1424
     47 H          -9.2806    2.3598   -2.0439 H       1  LIG1        0.1424
     48 N         -10.1385    5.4199   -0.0182 N.pl3   1  LIG1       -0.3554
     49 H         -11.0177    5.2786    0.4750 H       1  LIG1        0.1424
     50 H          -9.8382    6.3713    0.1687 H       1  LIG1        0.1424
@<TRIPOS>BOND
     1    13    11    1
     2    47    45    1
     3    10     8    1
     4    46    45    1
     5    34    32    1
     6    45    39    1
     7     9     8    1
     8    11     3    1
     9    11    12    1
    10     8     2    1
    11    37    35    1
    12     2     3   ar
    13     2     1   ar
    14     3     4   ar
    15    19    18    1
    16    32    27    1
    17    32    33    1
    18    36    35    1
    19     1     7    1
    20     1     5   ar
    21     4    14    1
    22     4     5   ar
    23    35    28    1
    24    27    28   ar
    25    27    26   ar
    26    39    38   ar
    27    39    40   ar
    28    18    14   ar
    29    18    17   ar
    30    28    29   ar
    31    22    20    1
    32    14    15   ar
    33     5     6    1
    34    48    50    1
    35    48    40    1
    36    48    49    1
    37    26    17    1
    38    26    30   ar
    39    17    16   ar
    40    29    30   ar
    41    29    38    1
    42    30    31    1
    43    15    16   ar
    44    15    20    1
    45    16    23    1
    46    38    42   ar
    47    24    23    1
    48    40    41   ar
    49    25    23    1
    50    20    21    1
    51    42    41   ar
    52    42    43    1
    53    41    44    1
