@<TRIPOS>MOLECULE
mol_data/opt/b3lyp/geoms/mol2/13hh13hh13hh13hh.out
 50 53 0 0 0
SMALL
GASTEIGER

@<TRIPOS>ATOM
      1 C           0.9927   -0.1067   -1.6281 C.ar    1  LIG1        0.0249
      2 C           0.9136    0.9969   -0.8136 C.ar    1  LIG1        0.0637
      3 C          -0.3810    0.9930   -0.1923 C.ar    1  LIG1        0.0726
      4 C          -1.0568   -0.1302   -0.6458 C.ar    1  LIG1        0.0875
      5 N          -0.1839   -0.8384   -1.4927 N.ar    1  LIG1       -0.3564
      6 H          -0.5669   -1.3232   -2.2938 H       1  LIG1        0.1655
      7 H           1.7922   -0.4478   -2.2695 H       1  LIG1        0.0826
      8 N           1.8576    2.0183   -0.5657 N.pl3   1  LIG1       -0.3554
      9 H           2.0367    2.1153    0.4311 H       1  LIG1        0.1424
     10 H           2.7407    1.8447   -1.0329 H       1  LIG1        0.1424
     11 N          -0.7699    1.9205    0.7786 N.pl3   1  LIG1       -0.3549
     12 H          -0.4015    2.8418    0.5613 H       1  LIG1        0.1424
     13 H          -1.7889    1.9507    0.8684 H       1  LIG1        0.1424
     14 C          -2.3570   -0.6650   -0.3177 C.ar    1  LIG1        0.0880
     15 C          -3.5427   -0.0624    0.1065 C.ar    1  LIG1        0.0733
     16 C          -4.5423   -1.0720    0.2282 C.ar    1  LIG1        0.0733
     17 C          -3.9584   -2.2901   -0.1204 C.ar    1  LIG1        0.0880
     18 N          -2.6289   -2.0091   -0.4467 N.ar    1  LIG1       -0.3488
     19 H          -1.9583   -2.6845   -0.7723 H       1  LIG1        0.1661
     20 N          -3.7105    1.3286    0.3973 N.pl3   1  LIG1       -0.3548
     21 H          -4.1023    1.8447   -0.3889 H       1  LIG1        0.1424
     22 H          -4.3411    1.4486    1.1866 H       1  LIG1        0.1424
     23 N          -5.8409   -0.8560    0.7047 N.pl3   1  LIG1       -0.3548
     24 H          -6.2027    0.0427    0.4017 H       1  LIG1        0.1424
     25 H          -6.4698   -1.6071    0.4075 H       1  LIG1        0.1424
     26 C          -4.4634   -3.6414   -0.0936 C.ar    1  LIG1        0.0880
     27 C          -5.7459   -4.1635   -0.2690 C.ar    1  LIG1        0.0733
     28 C          -5.6729   -5.5841   -0.1565 C.ar    1  LIG1        0.0733
     29 C          -4.3435   -5.9222    0.0833 C.ar    1  LIG1        0.0880
     30 N          -3.6244   -4.7231    0.0902 N.ar    1  LIG1       -0.3488
     31 H          -2.6668   -4.6463    0.3902 H       1  LIG1        0.1661
     32 N          -6.9310   -3.3955   -0.4992 N.pl3   1  LIG1       -0.3548
     33 H          -7.1549   -3.3117   -1.4895 H       1  LIG1        0.1424
     34 H          -7.7264   -3.8339   -0.0408 H       1  LIG1        0.1424
     35 N          -6.7824   -6.4446   -0.1958 N.pl3   1  LIG1       -0.3548
     36 H          -7.4670   -6.1402   -0.8807 H       1  LIG1        0.1424
     37 H          -6.5205   -7.4108   -0.3896 H       1  LIG1        0.1424
     38 C          -3.7375   -7.2089    0.3309 C.ar    1  LIG1        0.0875
     39 C          -4.0240   -8.4521   -0.2119 C.ar    1  LIG1        0.0726
     40 C          -3.1709   -9.4165    0.4059 C.ar    1  LIG1        0.0637
     41 C          -2.3674   -8.7418    1.3016 C.ar    1  LIG1        0.0249
     42 N          -2.6766   -7.3975    1.2174 N.ar    1  LIG1       -0.3564
     43 H          -2.4670   -6.7409    1.9529 H       1  LIG1        0.1655
     44 H          -1.5832   -9.0999    1.9523 H       1  LIG1        0.0826
     45 N          -4.9825   -8.7416   -1.2148 N.pl3   1  LIG1       -0.3549
     46 H          -4.8846   -8.1036   -2.0017 H       1  LIG1        0.1424
     47 H          -4.8220   -9.6889   -1.5522 H       1  LIG1        0.1424
     48 N          -3.1701  -10.7886    0.0188 N.pl3   1  LIG1       -0.3554
     49 H          -2.2688  -11.2213    0.1938 H       1  LIG1        0.1424
     50 H          -3.8665  -11.3208    0.5364 H       1  LIG1        0.1424
@<TRIPOS>BOND
     1     6     5    1
     2     7     1    1
     3    46    45    1
     4     1     5   ar
     5     1     2   ar
     6    47    45    1
     7     5     4   ar
     8    33    32    1
     9    45    39    1
    10    10     8    1
    11    36    35    1
    12     2     8    1
    13     2     3   ar
    14    19    18    1
    15     4    14    1
    16     4     3   ar
    17     8     9    1
    18    32    27    1
    19    32    34    1
    20    18    14   ar
    21    18    17   ar
    22    37    35    1
    23    21    20    1
    24    14    15   ar
    25    27    28   ar
    26    27    26   ar
    27    39    38   ar
    28    39    40   ar
    29    35    28    1
    30     3    11    1
    31    28    29   ar
    32    17    26    1
    33    17    16   ar
    34    26    30   ar
    35    48    49    1
    36    48    40    1
    37    48    50    1
    38    29    30   ar
    39    29    38    1
    40    30    31    1
    41    15    16   ar
    42    15    20    1
    43    16    23    1
    44    38    42   ar
    45    20    22    1
    46    24    23    1
    47    40    41   ar
    48    25    23    1
    49    12    11    1
    50    11    13    1
    51    42    41   ar
    52    42    43    1
    53    41    44    1
