@<TRIPOS>MOLECULE
mol_data/opt/b3lyp/geoms/mol2/13hh13hh.out
 26 27 0 0 0
SMALL
GASTEIGER

@<TRIPOS>ATOM
      1 C           1.2082   -0.2765   -0.6454 C.ar    1  LIG1        0.0249
      2 C           0.8440    0.9767   -0.2090 C.ar    1  LIG1        0.0637
      3 C          -0.5659    0.9560    0.0530 C.ar    1  LIG1        0.0726
      4 C          -1.0235   -0.3222   -0.2352 C.ar    1  LIG1        0.0875
      5 N           0.0834   -1.0904   -0.6162 N.ar    1  LIG1       -0.3564
      6 H          -0.0305   -1.8615   -1.2581 H       1  LIG1        0.1655
      7 H           2.1732   -0.6623   -0.9399 H       1  LIG1        0.0826
      8 N           1.6255    2.1411   -0.0247 N.pl3   1  LIG1       -0.3554
      9 H           1.5481    2.4845    0.9301 H       1  LIG1        0.1424
     10 H           2.6063    1.9754   -0.2227 H       1  LIG1        0.1424
     11 N          -1.2595    2.0322    0.6277 N.pl3   1  LIG1       -0.3549
     12 H          -0.9077    2.9153    0.2695 H       1  LIG1        0.1424
     13 H          -2.2665    1.9728    0.4775 H       1  LIG1        0.1424
     14 C          -2.3478   -0.8875   -0.1270 C.ar    1  LIG1        0.0875
     15 C          -3.5953   -0.3084   -0.3083 C.ar    1  LIG1        0.0726
     16 C          -4.5871   -1.2983   -0.0362 C.ar    1  LIG1        0.0637
     17 C          -3.9262   -2.4669    0.2885 C.ar    1  LIG1        0.0249
     18 N          -2.5723   -2.2246    0.1860 N.ar    1  LIG1       -0.3564
     19 H          -1.8580   -2.8117    0.5857 H       1  LIG1        0.1655
     20 H          -4.3077   -3.4446    0.5435 H       1  LIG1        0.0826
     21 N          -3.8653    1.0265   -0.7005 N.pl3   1  LIG1       -0.3549
     22 H          -3.3374    1.2733   -1.5347 H       1  LIG1        0.1424
     23 H          -4.8568    1.1033   -0.9194 H       1  LIG1        0.1424
     24 N          -5.9819   -1.0377   -0.1854 N.pl3   1  LIG1       -0.3554
     25 H          -6.4904   -1.8795   -0.4368 H       1  LIG1        0.1424
     26 H          -6.3890   -0.6864    0.6788 H       1  LIG1        0.1424
@<TRIPOS>BOND
     1    22    21    1
     2     6     5    1
     3     7     1    1
     4    23    21    1
     5    21    15    1
     6     1     5   ar
     7     1     2   ar
     8     5     4   ar
     9    25    24    1
    10    15    14   ar
    11    15    16   ar
    12     4    14    1
    13     4     3   ar
    14    10     8    1
    15     2     8    1
    16     2     3   ar
    17    24    16    1
    18    24    26    1
    19    14    18   ar
    20    16    17   ar
    21     8     9    1
    22     3    11    1
    23    18    17   ar
    24    18    19    1
    25    12    11    1
    26    17    20    1
    27    13    11    1
