@<TRIPOS>MOLECULE
mol_data/opt/b3lyp/geoms/mol2/13hh13hh-4hh13hh.out
 52 55 0 0 0
SMALL
GASTEIGER

@<TRIPOS>ATOM
      1 C           1.4018   -0.4893    0.2756 C.ar    1  LIG1        0.0249
      2 C           1.0243    0.8052    0.5887 C.ar    1  LIG1        0.0637
      3 C          -0.3920    0.8834    0.4244 C.ar    1  LIG1        0.0726
      4 C          -0.8340   -0.3737    0.0167 C.ar    1  LIG1        0.0875
      5 N           0.2639   -1.1889   -0.0696 N.ar    1  LIG1       -0.3564
      6 H           0.1710   -2.1665   -0.3166 H       1  LIG1        0.1655
      7 H           2.3749   -0.9573    0.2783 H       1  LIG1        0.0826
      8 N           1.8264    1.8637    1.0738 N.pl3   1  LIG1       -0.3554
      9 H           2.8158    1.6541    1.0024 H       1  LIG1        0.1424
     10 H           1.6485    2.7298    0.5737 H       1  LIG1        0.1424
     11 N          -1.2585    1.9985    0.6609 N.pl3   1  LIG1       -0.3549
     12 H          -1.0471    2.4293    1.5588 H       1  LIG1        0.1424
     13 H          -1.1492    2.7244   -0.0455 H       1  LIG1        0.1424
     14 C          -2.1637   -0.8582   -0.2497 C.ar    1  LIG1        0.0880
     15 C          -2.6025   -2.1297   -0.6195 C.ar    1  LIG1        0.0733
     16 C          -4.0218   -2.0853   -0.6996 C.ar    1  LIG1        0.0719
     17 C          -4.4298   -0.7871   -0.3804 C.ar    1  LIG1        0.0716
     18 N          -3.2670   -0.0596   -0.1337 N.ar    1  LIG1       -0.3500
     19 H          -3.2074    0.8847    0.2331 H       1  LIG1        0.1661
     20 N          -1.7306   -3.2436   -0.8599 N.pl3   1  LIG1       -0.3549
     21 H          -2.0244   -4.0567   -0.3222 H       1  LIG1        0.1424
     22 H          -1.7293   -3.5210   -1.8405 H       1  LIG1        0.1424
     23 N          -4.8391   -3.1905   -1.0178 N.pl3   1  LIG1       -0.3549
     24 H          -5.7344   -2.8995   -1.3972 H       1  LIG1        0.1424
     25 H          -4.3834   -3.8065   -1.6842 H       1  LIG1        0.1424
     26 C          -6.0833    1.1086   -0.6429 C.ar    1  LIG1        0.0346
     27 C          -7.3924    1.5720   -0.5023 C.ar    1  LIG1       -0.0295
     28 C          -5.7745   -0.2254   -0.2727 C.ar    1  LIG1        0.0226
     29 C          -8.4446    0.7741   -0.0160 C.ar    1  LIG1        0.0225
     30 H          -7.6038    2.6103   -0.7437 H       1  LIG1        0.0643
     31 C          -6.8324   -1.0270    0.1974 C.ar    1  LIG1       -0.0295
     32 C          -8.1416   -0.5683    0.3240 C.ar    1  LIG1        0.0346
     33 H          -6.6063   -2.0452    0.5051 H       1  LIG1        0.0643
     34 N          -5.0724    1.9854   -1.0894 N.pl3   1  LIG1       -0.3574
     35 H          -4.3644    1.5258   -1.6510 H       1  LIG1        0.1423
     36 H          -5.4424    2.7945   -1.5728 H       1  LIG1        0.1423
     37 N          -9.1559   -1.4254    0.8512 N.pl3   1  LIG1       -0.3574
     38 H          -9.9604   -1.4751    0.2300 H       1  LIG1        0.1423
     39 H          -8.8004   -2.3653    0.9917 H       1  LIG1        0.1423
     40 C          -9.7784    1.3498    0.1362 C.ar    1  LIG1        0.0711
     41 C         -10.3867    2.4297   -0.5065 C.ar    1  LIG1        0.0712
     42 C         -11.6670    2.6274    0.0841 C.ar    1  LIG1        0.0637
     43 C         -11.8199    1.6686    1.0717 C.ar    1  LIG1        0.0249
     44 N         -10.6958    0.8902    1.0773 N.ar    1  LIG1       -0.3575
     45 H         -10.4819    0.1267    1.7025 H       1  LIG1        0.1654
     46 H         -12.6497    1.4719    1.7350 H       1  LIG1        0.0826
     47 N          -9.8870    3.2390   -1.5462 N.pl3   1  LIG1       -0.3549
     48 H          -9.3309    2.7078   -2.2089 H       1  LIG1        0.1424
     49 H         -10.6697    3.6716   -2.0318 H       1  LIG1        0.1424
     50 N         -12.5770    3.6176   -0.3863 N.pl3   1  LIG1       -0.3554
     51 H         -13.5335    3.3931   -0.1324 H       1  LIG1        0.1424
     52 H         -12.3653    4.5338    0.0037 H       1  LIG1        0.1424
@<TRIPOS>BOND
     1    48    47    1
     2    49    47    1
     3    22    20    1
     4    25    23    1
     5    35    34    1
     6    36    34    1
     7    47    41    1
     8    24    23    1
     9    34    26    1
    10    23    16    1
    11    20    15    1
    12    20    21    1
    13    30    27    1
    14    16    15   ar
    15    16    17   ar
    16    26    27   ar
    17    26    28   ar
    18    15    14   ar
    19    41    42   ar
    20    41    40   ar
    21    27    29   ar
    22    50    51    1
    23    50    52    1
    24    50    42    1
    25    17    28    1
    26    17    18   ar
    27     6     5    1
    28    28    31   ar
    29    14    18   ar
    30    14     4    1
    31    18    19    1
    32     5     4   ar
    33     5     1   ar
    34    13    11    1
    35    29    40    1
    36    29    32   ar
    37     4     3   ar
    38    42    43   ar
    39    40    44   ar
    40    31    32   ar
    41    31    33    1
    42    38    37    1
    43     1     7    1
    44     1     2   ar
    45    32    37    1
    46     3     2   ar
    47     3    11    1
    48    10     8    1
    49     2     8    1
    50    11    12    1
    51    37    39    1
    52     9     8    1
    53    43    44   ar
    54    43    46    1
    55    44    45    1
