@<TRIPOS>MOLECULE
mol_data/opt/b3lyp/geoms/mol2/13hh12el4de4hh-.out
 54 57 0 0 0
SMALL
GASTEIGER

@<TRIPOS>ATOM
      1 C           0.7532   -0.0351   -1.8271 C.ar    1  LIG1        0.0249
      2 C           0.7413    1.1461   -1.1068 C.ar    1  LIG1        0.0638
      3 C          -0.4454    1.1590   -0.3147 C.ar    1  LIG1        0.0742
      4 C          -1.1402   -0.0307   -0.5867 C.ar    1  LIG1        0.1062
      5 N          -0.3700   -0.7405   -1.5107 N.ar    1  LIG1       -0.3551
      6 H          -0.6728   -1.6029   -1.9307 H       1  LIG1        0.1655
      7 H           1.4712   -0.4069   -2.5436 H       1  LIG1        0.0826
      8 N           1.6599    2.2292   -1.0964 N.pl3   1  LIG1       -0.3554
      9 H           2.2694    2.1982   -0.2818 H       1  LIG1        0.1424
     10 H           2.2461    2.2362   -1.9241 H       1  LIG1        0.1424
     11 N          -0.7042    2.1628    0.6025 N.pl3   1  LIG1       -0.3548
     12 H          -0.2634    3.0347    0.3295 H       1  LIG1        0.1424
     13 H          -1.6737    2.2753    0.8718 H       1  LIG1        0.1424
     14 C          -2.3566   -0.6122   -0.1124 C.ar    1  LIG1        0.1726
     15 C          -3.4998   -0.1617    0.5483 C.ar    1  LIG1        0.1141
     16 C          -4.3605   -1.3198    0.6742 C.ar    1  LIG1        0.1817
     17 C          -3.7270   -2.3787    0.0678 C.ar    1  LIG1        0.1797
     18 O          -2.4918   -1.9420   -0.3882 O.2     1  LIG1       -0.4482
     19 C          -3.7785    1.1510    0.9949 C.1     1  LIG1       -0.0621
     20 C          -4.0384    2.2730    1.3778 C.1     1  LIG1       -0.1137
     21 H          -4.2863    3.2535    1.7129 H       1  LIG1        0.1232
     22 O          -5.5149   -1.4380    1.3640 O.3     1  LIG1       -0.4901
     23 C          -6.5586   -0.4848    1.0948 C.3     1  LIG1        0.0790
     24 H          -7.4024   -0.7983    1.7093 H       1  LIG1        0.0660
     25 H          -6.2488    0.5247    1.3712 H       1  LIG1        0.0660
     26 H          -6.8508   -0.5237    0.0423 H       1  LIG1        0.0660
     27 C          -5.2710   -4.3708   -0.2119 C.ar    1  LIG1        0.0632
     28 C          -5.4313   -5.7642   -0.2572 C.ar    1  LIG1       -0.0347
     29 C          -3.9803   -3.8039   -0.0400 C.ar    1  LIG1        0.0395
     30 C          -4.3528   -6.6494   -0.1762 C.ar    1  LIG1        0.0006
     31 H          -6.4307   -6.1665   -0.3785 H       1  LIG1        0.0637
     32 C          -2.8955   -4.6924    0.0063 C.ar    1  LIG1       -0.0337
     33 C          -3.0524   -6.0837   -0.0688 C.ar    1  LIG1        0.0332
     34 H          -1.8960   -4.2890    0.1137 H       1  LIG1        0.0637
     35 N          -7.4148   -2.9896   -0.6843 N.1     1  LIG1       -0.1908
     36 C          -6.4387   -3.5737   -0.4368 C.1     1  LIG1        0.0999
     37 C          -1.8703   -6.8895   -0.0490 C.1     1  LIG1       -0.0690
     38 C          -0.8361   -7.5180   -0.0449 C.1     1  LIG1       -0.1139
     39 H           0.0635   -8.0887   -0.0432 H       1  LIG1        0.1232
     40 C          -5.3289   -8.7387   -1.2202 C.ar    1  LIG1        0.0325
     41 C          -5.5458  -10.1218   -1.1414 C.ar    1  LIG1       -0.0387
     42 C          -4.5944   -8.1190   -0.1823 C.ar    1  LIG1        0.0057
     43 C          -5.0638  -10.8786   -0.0801 C.ar    1  LIG1       -0.0393
     44 H          -6.1058  -10.6130   -1.9337 H       1  LIG1        0.0637
     45 C          -4.1082   -8.8983    0.8765 C.ar    1  LIG1       -0.0315
     46 C          -4.3298  -10.2769    0.9521 C.ar    1  LIG1        0.0252
     47 H          -3.5531   -8.4066    1.6701 H       1  LIG1        0.0643
     48 H          -5.2592  -11.9478   -0.0518 H       1  LIG1        0.0636
     49 N          -5.8752   -8.0001   -2.2858 N.pl3   1  LIG1       -0.3575
     50 H          -5.3395   -7.1804   -2.5421 H       1  LIG1        0.1423
     51 H          -6.0773   -8.5640   -3.1014 H       1  LIG1        0.1423
     52 N          -3.8925  -11.0207    2.0633 N.pl3   1  LIG1       -0.3579
     53 H          -3.7364  -12.0002    1.8619 H       1  LIG1        0.1423
     54 H          -3.0847  -10.6238    2.5262 H       1  LIG1        0.1423
@<TRIPOS>BOND
     1    51    49    1
     2     7     1    1
     3    50    49    1
     4    49    40    1
     5    44    41    1
     6     6     5    1
     7    10     8    1
     8     1     5   ar
     9     1     2   ar
    10     5     4   ar
    11    40    41   ar
    12    40    42   ar
    13    41    43   ar
    14     2     8    1
    15     2     3   ar
    16     8     9    1
    17    35    36    3
    18     4     3   ar
    19     4    14    1
    20    36    27    1
    21    18    14   ar
    22    18    17   ar
    23    31    28    1
    24     3    11    1
    25    28    27   ar
    26    28    30   ar
    27    27    29   ar
    28    42    30    1
    29    42    45   ar
    30    30    33   ar
    31    14    15   ar
    32    43    48    1
    33    43    46   ar
    34    33    37    1
    35    33    32   ar
    36    37    38    3
    37    38    39    1
    38    29    32   ar
    39    29    17    1
    40    32    34    1
    41    26    23    1
    42    17    16   ar
    43    12    11    1
    44    15    16   ar
    45    15    19    1
    46    11    13    1
    47    16    22    1
    48    45    46   ar
    49    45    47    1
    50    46    52    1
    51    19    20    3
    52    23    22    1
    53    23    25    1
    54    23    24    1
    55    20    21    1
    56    53    52    1
    57    52    54    1
