@<TRIPOS>MOLECULE
mol_data/opt/b3lyp/geoms/mol2/13hi6aa-6ff-4al-.out
 49 52 0 0 0
SMALL
GASTEIGER

@<TRIPOS>ATOM
      1 C           1.3095   -0.0826   -0.8279 C.ar    1  LIG1        0.0233
      2 C           1.0306    1.0527   -0.0909 C.ar    1  LIG1        0.0456
      3 C          -0.3561    1.0226    0.2532 C.ar    1  LIG1       -0.0045
      4 C          -0.8858   -0.1470   -0.2926 C.ar    1  LIG1        0.0527
      5 N           0.1502   -0.8230   -0.9091 N.ar    1  LIG1       -0.3588
      6 H           0.0182   -1.5978   -1.5388 H       1  LIG1        0.1654
      7 H           2.2298   -0.4237   -1.2777 H       1  LIG1        0.0826
      8 N           1.9370    2.0323    0.3615 N.pl3   1  LIG1       -0.3566
      9 H           2.8555    1.9335   -0.0549 H       1  LIG1        0.1424
     10 H           1.6030    2.9760    0.1975 H       1  LIG1        0.1424
     11 C          -1.0287    2.0318    1.1361 C.3     1  LIG1       -0.0360
     12 H          -1.8857    1.6035    1.6635 H       1  LIG1        0.0279
     13 H          -1.3922    2.9088    0.5821 H       1  LIG1        0.0279
     14 H          -0.3233    2.3983    1.8899 H       1  LIG1        0.0279
     15 C          -2.4434   -2.0985   -0.2470 C.ar    1  LIG1        0.0374
     16 C          -2.2285   -0.7104   -0.2491 C.ar    1  LIG1        0.0167
     17 C          -3.3926    0.0841   -0.2231 C.ar    1  LIG1       -0.0491
     18 C          -4.6450   -0.5043   -0.1904 C.ar    1  LIG1       -0.0349
     19 C          -4.7666   -1.9086   -0.1970 C.ar    1  LIG1        0.0762
     20 N          -3.6470   -2.6690   -0.2323 N.ar    1  LIG1       -0.2542
     21 H          -3.3077    1.1648   -0.2562 H       1  LIG1        0.0625
     22 H          -1.5981   -2.7834   -0.2370 H       1  LIG1        0.0836
     23 H          -5.5257    0.1262   -0.1874 H       1  LIG1        0.0639
     24 C          -6.1598   -4.0389   -0.2749 C.ar    1  LIG1        0.2225
     25 C          -6.0618   -2.6135   -0.1734 C.ar    1  LIG1        0.0652
     26 C          -7.2729   -1.9255   -0.0362 C.ar    1  LIG1       -0.0038
     27 C          -8.4895   -2.5957   -0.0454 C.ar    1  LIG1        0.1436
     28 C          -8.4803   -3.9964   -0.2146 C.ar    1  LIG1        0.1162
     29 N          -7.3265   -4.6736   -0.2968 N.ar    1  LIG1       -0.2088
     30 H          -7.3021   -0.8509    0.1023 H       1  LIG1        0.0663
     31 O          -5.0808   -4.8266   -0.3591 O.3     1  LIG1       -0.4919
     32 H          -4.2871   -4.2261   -0.3135 H       1  LIG1        0.2937
     33 O          -9.6224   -1.8431    0.1322 O.3     1  LIG1       -0.5046
     34 H         -10.3634   -2.4396    0.3140 H       1  LIG1        0.2922
     35 C         -10.9050   -4.3375   -0.8808 C.ar    1  LIG1       -0.0522
     36 C         -12.0467   -5.1346   -0.8927 C.ar    1  LIG1       -0.0577
     37 C          -9.7297   -4.8041   -0.2543 C.ar    1  LIG1        0.0075
     38 C         -12.0558   -6.3936   -0.2899 C.ar    1  LIG1       -0.0199
     39 H         -12.9449   -4.7790   -1.3894 H       1  LIG1        0.0619
     40 C          -9.7311   -6.0734    0.3301 C.ar    1  LIG1       -0.0107
     41 C         -10.8843   -6.8653    0.3187 C.ar    1  LIG1        0.1207
     42 H          -8.8271   -6.4565    0.7885 H       1  LIG1        0.0661
     43 H         -12.9583   -6.9921   -0.3089 H       1  LIG1        0.0654
     44 H         -10.9070   -3.3902   -1.4104 H       1  LIG1        0.0624
     45 O         -10.7685   -8.0799    0.9296 O.3     1  LIG1       -0.4951
     46 C         -11.8968   -8.9395    0.9408 C.3     1  LIG1        0.0788
     47 H         -11.5815   -9.8421    1.4661 H       1  LIG1        0.0660
     48 H         -12.7447   -8.4906    1.4742 H       1  LIG1        0.0660
     49 H         -12.2139   -9.2067   -0.0754 H       1  LIG1        0.0660
@<TRIPOS>BOND
     1     6     5    1
     2    44    35    1
     3    39    36    1
     4     7     1    1
     5     5     1   ar
     6     5     4   ar
     7    36    35   ar
     8    36    38   ar
     9    35    37   ar
    10     1     2   ar
    11    31    32    1
    12    31    24    1
    13    43    38    1
    14    29    24   ar
    15    29    28   ar
    16     4    16    1
    17     4     3   ar
    18    38    41   ar
    19    24    25   ar
    20    21    17    1
    21    37    28    1
    22    37    40   ar
    23    16    15   ar
    24    16    17   ar
    25    15    22    1
    26    15    20   ar
    27    20    19   ar
    28    17    18   ar
    29    28    27   ar
    30    19    18   ar
    31    19    25    1
    32    18    23    1
    33    25    26   ar
    34     2     3   ar
    35     2     8    1
    36    49    46    1
    37     9     8    1
    38    27    26   ar
    39    27    33    1
    40    26    30    1
    41    33    34    1
    42    10     8    1
    43     3    11    1
    44    41    40   ar
    45    41    45    1
    46    40    42    1
    47    13    11    1
    48    45    46    1
    49    46    47    1
    50    46    48    1
    51    11    12    1
    52    11    14    1
