@<TRIPOS>MOLECULE
mol_data/opt/b3lyp/geoms/mol2/13hi13hi-4hi13hi.out
 56 59 0 0 0
SMALL
GASTEIGER

@<TRIPOS>ATOM
      1 C           1.4117   -0.4243    0.0419 C.ar    1  LIG1        0.0233
      2 C           1.0662    0.8327    0.5098 C.ar    1  LIG1        0.0457
      3 C          -0.3584    0.9205    0.5209 C.ar    1  LIG1       -0.0031
      4 C          -0.8355   -0.3032    0.0414 C.ar    1  LIG1        0.0694
      5 N           0.2496   -1.1029   -0.2277 N.ar    1  LIG1       -0.3576
      6 H           0.1214   -2.0520   -0.5635 H       1  LIG1        0.1654
      7 H           2.3813   -0.8766   -0.1054 H       1  LIG1        0.0826
      8 N           1.9335    1.8526    0.9782 N.pl3   1  LIG1       -0.3566
      9 H           2.9049    1.5665    0.9211 H       1  LIG1        0.1424
     10 H           1.8314    2.7100    0.4426 H       1  LIG1        0.1424
     11 C          -1.1468    2.1011    1.0088 C.3     1  LIG1       -0.0359
     12 H          -1.6553    2.6519    0.2044 H       1  LIG1        0.0279
     13 H          -0.4833    2.8067    1.5173 H       1  LIG1        0.0279
     14 H          -1.9127    1.8115    1.7399 H       1  LIG1        0.0279
     15 C          -2.1690   -0.8098   -0.1902 C.ar    1  LIG1        0.0848
     16 C          -2.5863   -2.0688   -0.6249 C.ar    1  LIG1        0.0552
     17 C          -4.0095   -2.0727   -0.7062 C.ar    1  LIG1       -0.0038
     18 C          -4.4435   -0.8053   -0.3178 C.ar    1  LIG1        0.0535
     19 N          -3.3087   -0.0625   -0.0219 N.ar    1  LIG1       -0.3513
     20 H          -3.3417    0.8911    0.3043 H       1  LIG1        0.1660
     21 N          -1.6753   -3.1329   -0.9489 N.pl3   1  LIG1       -0.3561
     22 H          -1.8548   -3.9520   -0.3711 H       1  LIG1        0.1424
     23 H          -1.7975   -3.4328   -1.9147 H       1  LIG1        0.1424
     24 C          -4.8434   -3.2282   -1.1759 C.3     1  LIG1       -0.0359
     25 H          -5.0618   -3.9463   -0.3734 H       1  LIG1        0.0279
     26 H          -4.3263   -3.7880   -1.9643 H       1  LIG1        0.0279
     27 H          -5.8027   -2.8937   -1.5797 H       1  LIG1        0.0279
     28 C          -6.0856    1.1079   -0.4886 C.ar    1  LIG1        0.0344
     29 C          -7.3804    1.5888   -0.2896 C.ar    1  LIG1       -0.0310
     30 C          -5.7888   -0.2415   -0.1681 C.ar    1  LIG1        0.0195
     31 C          -8.4286    0.7859    0.1991 C.ar    1  LIG1        0.0048
     32 H          -7.5847    2.6350   -0.5028 H       1  LIG1        0.0643
     33 C          -6.8430   -1.0306    0.3203 C.ar    1  LIG1       -0.0473
     34 C          -8.1480   -0.5705    0.5025 C.ar    1  LIG1       -0.0406
     35 H          -6.6216   -2.0598    0.5858 H       1  LIG1        0.0627
     36 N          -5.0739    1.9802   -0.9437 N.pl3   1  LIG1       -0.3574
     37 H          -4.4319    1.5417   -1.5954 H       1  LIG1        0.1423
     38 H          -5.4446    2.8372   -1.3361 H       1  LIG1        0.1423
     39 C          -9.2015   -1.5375    0.9978 C.3     1  LIG1       -0.0391
     40 H          -8.8852   -2.5695    0.8214 H       1  LIG1        0.0278
     41 H         -10.1604   -1.3846    0.4943 H       1  LIG1        0.0278
     42 H          -9.3855   -1.4507    2.0780 H       1  LIG1        0.0278
     43 C          -9.7530    1.3961    0.3384 C.ar    1  LIG1        0.0680
     44 C         -10.3990    2.3328   -0.4691 C.ar    1  LIG1        0.0531
     45 C         -11.6626    2.6441    0.1199 C.ar    1  LIG1       -0.0119
     46 C         -11.7518    1.8948    1.2768 C.ar    1  LIG1        0.0069
     47 N         -10.6223    1.1335    1.3942 N.ar    1  LIG1       -0.3589
     48 H         -10.3684    0.6027    2.2097 H       1  LIG1        0.1654
     49 H         -12.5414    1.8480    2.0128 H       1  LIG1        0.0810
     50 N          -9.9088    2.9141   -1.6566 N.pl3   1  LIG1       -0.3561
     51 H          -9.2144    2.3279   -2.1078 H       1  LIG1        0.1424
     52 H         -10.6547    3.1108   -2.3157 H       1  LIG1        0.1424
     53 C         -12.6837    3.5933   -0.4311 C.3     1  LIG1       -0.0365
     54 H         -13.5512    3.6659    0.2312 H       1  LIG1        0.0279
     55 H         -13.0573    3.2780   -1.4156 H       1  LIG1        0.0279
     56 H         -12.2746    4.6038   -0.5539 H       1  LIG1        0.0279
@<TRIPOS>BOND
     1    52    50    1
     2    51    50    1
     3    26    24    1
     4    23    21    1
     5    50    44    1
     6    37    36    1
     7    27    24    1
     8    55    53    1
     9    38    36    1
    10    24    17    1
    11    24    25    1
    12    21    16    1
    13    21    22    1
    14    36    28    1
    15    17    16   ar
    16    17    18   ar
    17    16    15   ar
    18     6     5    1
    19    56    53    1
    20    32    29    1
    21    28    29   ar
    22    28    30   ar
    23    44    45   ar
    24    44    43   ar
    25    53    45    1
    26    53    54    1
    27    18    30    1
    28    18    19   ar
    29    29    31   ar
    30     5     4   ar
    31     5     1   ar
    32    15    19   ar
    33    15     4    1
    34    30    33   ar
    35     7     1    1
    36    19    20    1
    37     4     3   ar
    38     1     2   ar
    39    45    46   ar
    40    31    43    1
    41    31    34   ar
    42    12    11    1
    43    33    34   ar
    44    33    35    1
    45    43    47   ar
    46    10     8    1
    47    41    39    1
    48    34    39    1
    49     2     3   ar
    50     2     8    1
    51     3    11    1
    52    40    39    1
    53     9     8    1
    54    39    42    1
    55    11    13    1
    56    11    14    1
    57    46    47   ar
    58    46    49    1
    59    47    48    1
