@<TRIPOS>MOLECULE
mol_data/opt/b3lyp/geoms/mol2/13hi13hi-13hi-13hi-.out
 54 57 0 0 0
SMALL
GASTEIGER

@<TRIPOS>ATOM
      1 C           1.3016   -0.3611   -0.5842 C.ar    1  LIG1        0.0233
      2 C           0.9112    0.9355   -0.8733 C.ar    1  LIG1        0.0457
      3 C          -0.5042    1.0152   -0.7055 C.ar    1  LIG1       -0.0031
      4 C          -0.9321   -0.2595   -0.3222 C.ar    1  LIG1        0.0695
      5 N           0.1761   -1.0690   -0.2430 N.ar    1  LIG1       -0.3576
      6 H           0.0906   -2.0354    0.0546 H       1  LIG1        0.1654
      7 H           2.2810   -0.8163   -0.5847 H       1  LIG1        0.0826
      8 N           1.7375    2.0406   -1.2006 N.pl3   1  LIG1       -0.3566
      9 H           2.7174    1.7787   -1.2150 H       1  LIG1        0.1424
     10 H           1.5073    2.4289   -2.1110 H       1  LIG1        0.1424
     11 C          -1.3181    2.2643   -0.8757 C.3     1  LIG1       -0.0359
     12 H          -2.0619    2.3821   -0.0783 H       1  LIG1        0.0279
     13 H          -1.8530    2.3117   -1.8364 H       1  LIG1        0.0279
     14 H          -0.6636    3.1404   -0.8312 H       1  LIG1        0.0279
     15 C          -2.2356   -0.8082   -0.0246 C.ar    1  LIG1        0.0849
     16 C          -2.5878   -2.0704    0.4459 C.ar    1  LIG1        0.0552
     17 C          -4.0103   -2.1353    0.5622 C.ar    1  LIG1       -0.0024
     18 C          -4.5077   -0.9065    0.1408 C.ar    1  LIG1        0.0699
     19 N          -3.4146   -0.1095   -0.1840 N.ar    1  LIG1       -0.3501
     20 H          -3.4908    0.7529   -0.6984 H       1  LIG1        0.1661
     21 N          -1.6269   -3.0879    0.7748 N.pl3   1  LIG1       -0.3561
     22 H          -1.5876   -3.2379    1.7823 H       1  LIG1        0.1424
     23 H          -1.9005   -3.9792    0.3664 H       1  LIG1        0.1424
     24 C          -4.7904   -3.2865    1.1256 C.3     1  LIG1       -0.0359
     25 H          -4.4324   -3.5577    2.1273 H       1  LIG1        0.0279
     26 H          -4.7050   -4.1907    0.5078 H       1  LIG1        0.0279
     27 H          -5.8528   -3.0458    1.2009 H       1  LIG1        0.0279
     28 C          -5.8599   -0.3922    0.0394 C.ar    1  LIG1        0.0849
     29 C          -7.0109   -0.9407   -0.5176 C.ar    1  LIG1        0.0552
     30 C          -8.0726    0.0037   -0.3894 C.ar    1  LIG1       -0.0024
     31 C          -7.5416    1.1352    0.2306 C.ar    1  LIG1        0.0699
     32 N          -6.2100    0.8792    0.4860 N.ar    1  LIG1       -0.3501
     33 H          -5.5783    1.5262    0.9290 H       1  LIG1        0.1661
     34 N          -7.1427   -2.2334   -1.0620 N.pl3   1  LIG1       -0.3561
     35 H          -7.7749   -2.2494   -1.8553 H       1  LIG1        0.1424
     36 H          -6.2440   -2.6124   -1.3433 H       1  LIG1        0.1424
     37 C          -9.4998   -0.2333   -0.7865 C.3     1  LIG1       -0.0359
     38 H          -9.8744   -1.1710   -0.3578 H       1  LIG1        0.0279
     39 H          -9.6299   -0.3100   -1.8757 H       1  LIG1        0.0279
     40 H         -10.1439    0.5799   -0.4447 H       1  LIG1        0.0279
     41 C          -8.1546    2.3920    0.6194 C.ar    1  LIG1        0.0844
     42 C          -8.9623    3.2739   -0.0875 C.ar    1  LIG1        0.0546
     43 C          -9.2491    4.3948    0.7561 C.ar    1  LIG1       -0.0118
     44 C          -8.6008    4.1648    1.9518 C.ar    1  LIG1        0.0069
     45 N          -7.9171    2.9781    1.8644 N.ar    1  LIG1       -0.3578
     46 H          -7.5754    2.4588    2.6575 H       1  LIG1        0.1654
     47 H          -8.5737    4.7642    2.8504 H       1  LIG1        0.0810
     48 N          -9.4445    3.1081   -1.4001 N.pl3   1  LIG1       -0.3561
     49 H          -9.4485    3.9792   -1.9205 H       1  LIG1        0.1424
     50 H          -8.9059    2.4161   -1.9107 H       1  LIG1        0.1424
     51 C         -10.0737    5.5891    0.3813 C.3     1  LIG1       -0.0365
     52 H         -11.0821    5.2978    0.0633 H       1  LIG1        0.0279
     53 H          -9.6300    6.1588   -0.4473 H       1  LIG1        0.0279
     54 H         -10.1762    6.2780    1.2249 H       1  LIG1        0.0279
@<TRIPOS>BOND
     1    10     8    1
     2    49    48    1
     3    50    48    1
     4    39    37    1
     5    35    34    1
     6    13    11    1
     7    48    42    1
     8    36    34    1
     9     9     8    1
    10     8     2    1
    11    34    29    1
    12    11    14    1
    13    11     3    1
    14    11    12    1
    15     2     3   ar
    16     2     1   ar
    17    37    40    1
    18    37    30    1
    19    37    38    1
    20     3     4   ar
    21    20    19    1
    22     7     1    1
    23     1     5   ar
    24    29    30   ar
    25    29    28   ar
    26    53    51    1
    27    30    31   ar
    28     4     5   ar
    29     4    15    1
    30     5     6    1
    31    19    15   ar
    32    19    18   ar
    33    42    41   ar
    34    42    43   ar
    35    15    16   ar
    36    28    18    1
    37    28    32   ar
    38    52    51    1
    39    18    17   ar
    40    31    32   ar
    41    31    41    1
    42    23    21    1
    43    51    43    1
    44    51    54    1
    45    16    17   ar
    46    16    21    1
    47    32    33    1
    48    26    24    1
    49    17    24    1
    50    41    45   ar
    51    43    44   ar
    52    21    22    1
    53    24    27    1
    54    24    25    1
    55    45    44   ar
    56    45    46    1
    57    44    47    1
