@<TRIPOS>MOLECULE
mol_data/opt/b3lyp/geoms/mol2/13hi13hi.out
 28 29 0 0 0
SMALL
GASTEIGER

@<TRIPOS>ATOM
      1 C           1.1485   -0.3206   -0.6589 C.ar    1  LIG1        0.0233
      2 C           0.8407    0.9552   -0.2361 C.ar    1  LIG1        0.0457
      3 C          -0.5445    0.9776    0.1330 C.ar    1  LIG1       -0.0031
      4 C          -1.0447   -0.3019   -0.0885 C.ar    1  LIG1        0.0694
      5 N           0.0037   -1.0908   -0.5285 N.ar    1  LIG1       -0.3576
      6 H          -0.1347   -1.9820   -0.9769 H       1  LIG1        0.1654
      7 H           2.0833   -0.7487   -0.9891 H       1  LIG1        0.0826
      8 N           1.7223    2.0415   -0.0542 N.pl3   1  LIG1       -0.3566
      9 H           2.5997    1.9146   -0.5454 H       1  LIG1        0.1424
     10 H           1.3092    2.9208   -0.3459 H       1  LIG1        0.1424
     11 C          -1.2552    2.1417    0.7573 C.3     1  LIG1       -0.0359
     12 H          -2.2265    1.8408    1.1567 H       1  LIG1        0.0279
     13 H          -1.4401    2.9602    0.0468 H       1  LIG1        0.0279
     14 H          -0.6613    2.5638    1.5773 H       1  LIG1        0.0279
     15 C          -2.3746   -0.8553    0.0885 C.ar    1  LIG1        0.0844
     16 C          -3.6221   -0.3801   -0.2965 C.ar    1  LIG1        0.0546
     17 C          -4.6077   -1.3438    0.0900 C.ar    1  LIG1       -0.0118
     18 C          -3.9289   -2.3824    0.6941 C.ar    1  LIG1        0.0069
     19 N          -2.5853   -2.1054    0.6703 N.ar    1  LIG1       -0.3578
     20 H          -1.8925   -2.5700    1.2352 H       1  LIG1        0.1654
     21 H          -4.3075   -3.2957    1.1299 H       1  LIG1        0.0810
     22 N          -3.8970    0.8435   -0.9383 N.pl3   1  LIG1       -0.3561
     23 H          -3.0619    1.2371   -1.3597 H       1  LIG1        0.1424
     24 H          -4.6160    0.7502   -1.6484 H       1  LIG1        0.1424
     25 C          -6.0838   -1.2359   -0.1476 C.3     1  LIG1       -0.0365
     26 H          -6.6186   -2.0764    0.3043 H       1  LIG1        0.0279
     27 H          -6.3356   -1.2323   -1.2175 H       1  LIG1        0.0279
     28 H          -6.4923   -0.3117    0.2785 H       1  LIG1        0.0279
@<TRIPOS>BOND
     1    24    22    1
     2    23    22    1
     3    27    25    1
     4     7     1    1
     5     6     5    1
     6    22    16    1
     7     1     5   ar
     8     1     2   ar
     9     9     8    1
    10     5     4   ar
    11    10     8    1
    12    16    15   ar
    13    16    17   ar
    14     2     8    1
    15     2     3   ar
    16    25    17    1
    17    25    28    1
    18    25    26    1
    19     4    15    1
    20     4     3   ar
    21    13    11    1
    22    15    19   ar
    23    17    18   ar
    24     3    11    1
    25    19    18   ar
    26    19    20    1
    27    18    21    1
    28    11    12    1
    29    11    14    1
