@<TRIPOS>MOLECULE
mol_data/opt/b3lyp/geoms/mol2/13hi13hi13hi-13hi-.out
 54 57 0 0 0
SMALL
GASTEIGER

@<TRIPOS>ATOM
      1 C           1.0998   -0.0902   -1.2791 C.ar    1  LIG1        0.0233
      2 C           0.9129    1.0107   -0.4696 C.ar    1  LIG1        0.0457
      3 C          -0.4289    0.9697    0.0315 C.ar    1  LIG1       -0.0031
      4 C          -1.0283   -0.1678   -0.5047 C.ar    1  LIG1        0.0695
      5 N          -0.0765   -0.8203   -1.2657 N.ar    1  LIG1       -0.3576
      6 H          -0.3010   -1.5575   -1.9137 H       1  LIG1        0.1654
      7 H           1.9711   -0.4308   -1.8185 H       1  LIG1        0.0826
      8 N           1.8758    1.9622   -0.0691 N.pl3   1  LIG1       -0.3566
      9 H           2.7050    1.9396   -0.6517 H       1  LIG1        0.1424
     10 H           1.5030    2.9059   -0.0720 H       1  LIG1        0.1424
     11 C          -0.9981    1.9120    1.0511 C.3     1  LIG1       -0.0359
     12 H          -1.9340    1.5271    1.4634 H       1  LIG1        0.0279
     13 H          -1.2127    2.9103    0.6426 H       1  LIG1        0.0279
     14 H          -0.2922    2.0564    1.8780 H       1  LIG1        0.0279
     15 C          -2.3685   -0.7042   -0.3628 C.ar    1  LIG1        0.0849
     16 C          -3.6133   -0.0802   -0.4434 C.ar    1  LIG1        0.0552
     17 C          -4.6236   -1.0684   -0.2702 C.ar    1  LIG1       -0.0024
     18 C          -3.9632   -2.2920   -0.1101 C.ar    1  LIG1        0.0699
     19 N          -2.6121   -2.0539   -0.1758 N.ar    1  LIG1       -0.3501
     20 H          -1.9453   -2.7814    0.0633 H       1  LIG1        0.1661
     21 N          -3.8535    1.2983   -0.6358 N.pl3   1  LIG1       -0.3561
     22 H          -3.0006    1.7780   -0.9053 H       1  LIG1        0.1424
     23 H          -4.5536    1.4625   -1.3527 H       1  LIG1        0.1424
     24 C          -6.0999   -0.7970   -0.2517 C.3     1  LIG1       -0.0359
     25 H          -6.6105   -1.3700    0.5314 H       1  LIG1        0.0279
     26 H          -6.5999   -1.0229   -1.2057 H       1  LIG1        0.0279
     27 H          -6.2854    0.2602   -0.0367 H       1  LIG1        0.0279
     28 C          -4.4374   -3.6370    0.1162 C.ar    1  LIG1        0.0849
     29 C          -3.7265   -4.7926    0.4337 C.ar    1  LIG1        0.0552
     30 C          -4.6468   -5.8787    0.5493 C.ar    1  LIG1       -0.0024
     31 C          -5.9124   -5.3670    0.2805 C.ar    1  LIG1        0.0699
     32 N          -5.7661   -4.0049    0.0470 N.ar    1  LIG1       -0.3501
     33 H          -6.4923   -3.4313   -0.3497 H       1  LIG1        0.1661
     34 N          -2.3051   -4.8121    0.6442 N.pl3   1  LIG1       -0.3561
     35 H          -2.0853   -4.9526    1.6297 H       1  LIG1        0.1424
     36 H          -1.8811   -5.5911    0.1453 H       1  LIG1        0.1424
     37 C          -4.3062   -7.2771    0.9730 C.3     1  LIG1       -0.0359
     38 H          -3.6939   -7.2769    1.8837 H       1  LIG1        0.0279
     39 H          -3.7330   -7.8210    0.2100 H       1  LIG1        0.0279
     40 H          -5.2088   -7.8583    1.1729 H       1  LIG1        0.0279
     41 C          -7.2205   -5.9918    0.2490 C.ar    1  LIG1        0.0844
     42 C          -7.6616   -7.1651   -0.3513 C.ar    1  LIG1        0.0546
     43 C          -9.0647   -7.2972   -0.1005 C.ar    1  LIG1       -0.0118
     44 C          -9.4394   -6.1942    0.6392 C.ar    1  LIG1        0.0069
     45 N          -8.3413   -5.3934    0.8267 N.ar    1  LIG1       -0.3578
     46 H          -8.2792   -4.6578    1.5123 H       1  LIG1        0.1654
     47 H         -10.4076   -5.9227    1.0344 H       1  LIG1        0.0810
     48 N          -6.8782   -8.0886   -1.0710 N.pl3   1  LIG1       -0.3561
     49 H          -7.3783   -8.4766   -1.8642 H       1  LIG1        0.1424
     50 H          -6.0137   -7.6682   -1.3969 H       1  LIG1        0.1424
     51 C          -9.9434   -8.4123   -0.5820 C.3     1  LIG1       -0.0365
     52 H          -9.5713   -9.3895   -0.2511 H       1  LIG1        0.0279
     53 H         -10.0075   -8.4495   -1.6786 H       1  LIG1        0.0279
     54 H         -10.9643   -8.3002   -0.2054 H       1  LIG1        0.0279
@<TRIPOS>BOND
     1     6     5    1
     2    49    48    1
     3     7     1    1
     4    53    51    1
     5    50    48    1
     6    23    21    1
     7     1     5   ar
     8     1     2   ar
     9     5     4   ar
    10    26    24    1
    11    48    42    1
    12    22    21    1
    13     9     8    1
    14    21    16    1
    15    51    52    1
    16    51    54    1
    17    51    43    1
    18     4    15    1
    19     4     3   ar
    20     2     8    1
    21     2     3   ar
    22    16    15   ar
    23    16    17   ar
    24    15    19   ar
    25    42    43   ar
    26    42    41   ar
    27    33    32    1
    28    17    24    1
    29    17    18   ar
    30    24    27    1
    31    24    25    1
    32    19    18   ar
    33    19    20    1
    34    18    28    1
    35    43    44   ar
    36    10     8    1
    37     3    11    1
    38    32    28   ar
    39    32    31   ar
    40    28    29   ar
    41    36    34    1
    42    39    37    1
    43    41    31    1
    44    41    45   ar
    45    31    30   ar
    46    29    30   ar
    47    29    34    1
    48    30    37    1
    49    44    45   ar
    50    44    47    1
    51    13    11    1
    52    34    35    1
    53    45    46    1
    54    37    40    1
    55    37    38    1
    56    11    12    1
    57    11    14    1
