@<TRIPOS>MOLECULE
mol_data/opt/b3lyp/geoms/mol2/13hi13hi13hi-13hi.out
 54 57 0 0 0
SMALL
GASTEIGER

@<TRIPOS>ATOM
      1 C           1.0963   -0.0268   -1.2524 C.ar    1  LIG1        0.0233
      2 C           0.9243    1.0224   -0.3740 C.ar    1  LIG1        0.0457
      3 C          -0.4074    0.9489    0.1497 C.ar    1  LIG1       -0.0031
      4 C          -1.0167   -0.1552   -0.4425 C.ar    1  LIG1        0.0695
      5 N          -0.0791   -0.7592   -1.2595 N.ar    1  LIG1       -0.3576
      6 H          -0.3188   -1.4516   -1.9502 H       1  LIG1        0.1654
      7 H           1.9576   -0.3330   -1.8274 H       1  LIG1        0.0826
      8 N           1.8948    1.9495    0.0648 N.pl3   1  LIG1       -0.3566
      9 H           2.7089    1.9687   -0.5389 H       1  LIG1        0.1424
     10 H           1.5192    2.8897    0.1319 H       1  LIG1        0.1424
     11 C          -0.9577    1.8262    1.2354 C.3     1  LIG1       -0.0359
     12 H          -1.8921    1.4217    1.6317 H       1  LIG1        0.0279
     13 H          -1.1692    2.8506    0.8954 H       1  LIG1        0.0279
     14 H          -0.2421    1.9116    2.0624 H       1  LIG1        0.0279
     15 C          -2.3534   -0.7019   -0.3100 C.ar    1  LIG1        0.0849
     16 C          -3.6004   -0.0774   -0.3238 C.ar    1  LIG1        0.0552
     17 C          -4.6064   -1.0777   -0.2057 C.ar    1  LIG1       -0.0024
     18 C          -3.9422   -2.3084   -0.1470 C.ar    1  LIG1        0.0699
     19 N          -2.5921   -2.0623   -0.2198 N.ar    1  LIG1       -0.3501
     20 H          -1.9211   -2.8021   -0.0369 H       1  LIG1        0.1661
     21 N          -3.8449    1.3111   -0.4142 N.pl3   1  LIG1       -0.3561
     22 H          -3.0005    1.8084   -0.6789 H       1  LIG1        0.1424
     23 H          -4.5680    1.5214   -1.0953 H       1  LIG1        0.1424
     24 C          -6.0821   -0.8097   -0.1472 C.3     1  LIG1       -0.0359
     25 H          -6.5847   -1.4418    0.5934 H       1  LIG1        0.0279
     26 H          -6.5929   -0.9693   -1.1078 H       1  LIG1        0.0279
     27 H          -6.2631    0.2289    0.1481 H       1  LIG1        0.0279
     28 C          -4.4100   -3.6678   -0.0043 C.ar    1  LIG1        0.0849
     29 C          -3.6808   -4.8402    0.2235 C.ar    1  LIG1        0.0552
     30 C          -4.5915   -5.9339    0.2933 C.ar    1  LIG1       -0.0024
     31 C          -5.8670   -5.4004    0.0985 C.ar    1  LIG1        0.0699
     32 N          -5.7294   -4.0388   -0.0724 N.ar    1  LIG1       -0.3501
     33 H          -6.5429   -3.4619   -0.2632 H       1  LIG1        0.1661
     34 N          -2.2514   -4.8653    0.3651 N.pl3   1  LIG1       -0.3561
     35 H          -1.9754   -5.1383    1.3066 H       1  LIG1        0.1424
     36 H          -1.8300   -5.5388   -0.2706 H       1  LIG1        0.1424
     37 C          -4.2167   -7.3668    0.5342 C.3     1  LIG1       -0.0359
     38 H          -3.1342   -7.4601    0.6671 H       1  LIG1        0.0279
     39 H          -4.4885   -8.0239   -0.3036 H       1  LIG1        0.0279
     40 H          -4.6792   -7.7768    1.4426 H       1  LIG1        0.0279
     41 C          -7.1830   -5.9936    0.0421 C.ar    1  LIG1        0.0844
     42 C          -8.4248   -5.3963   -0.1726 C.ar    1  LIG1        0.0546
     43 C          -9.4278   -6.4158   -0.1433 C.ar    1  LIG1       -0.0118
     44 C          -8.7704   -7.6050    0.0883 C.ar    1  LIG1        0.0069
     45 N          -7.4226   -7.3427    0.1989 N.ar    1  LIG1       -0.3578
     46 H          -6.7107   -8.0322    0.3685 H       1  LIG1        0.1654
     47 H          -9.1534   -8.6104    0.1831 H       1  LIG1        0.0810
     48 N          -8.5967   -3.9851   -0.3840 N.pl3   1  LIG1       -0.3561
     49 H          -9.0568   -3.8053   -1.2746 H       1  LIG1        0.1424
     50 H          -9.1954   -3.5806    0.3337 H       1  LIG1        0.1424
     51 C         -10.9023   -6.2184   -0.3304 C.3     1  LIG1       -0.0365
     52 H         -11.4397   -7.1685   -0.2622 H       1  LIG1        0.0279
     53 H         -11.1369   -5.7795   -1.3087 H       1  LIG1        0.0279
     54 H         -11.3266   -5.5474    0.4275 H       1  LIG1        0.0279
@<TRIPOS>BOND
     1     6     5    1
     2     7     1    1
     3    53    51    1
     4    49    48    1
     5     5     1   ar
     6     5     4   ar
     7     1     2   ar
     8    26    24    1
     9    23    21    1
    10    22    21    1
    11     9     8    1
    12     4    15    1
    13     4     3   ar
    14    21    16    1
    15    48    42    1
    16    48    50    1
    17     2     8    1
    18     2     3   ar
    19    51    52    1
    20    51    43    1
    21    51    54    1
    22    16    15   ar
    23    16    17   ar
    24    15    19   ar
    25    39    37    1
    26    36    34    1
    27    33    32    1
    28    19    18   ar
    29    19    20    1
    30    17    24    1
    31    17    18   ar
    32    42    43   ar
    33    42    41   ar
    34    24    27    1
    35    24    25    1
    36    18    28    1
    37    43    44   ar
    38    32    28   ar
    39    32    31   ar
    40    28    29   ar
    41    41    31    1
    42    41    45   ar
    43     8    10    1
    44    44    47    1
    45    44    45   ar
    46    31    30   ar
    47     3    11    1
    48    45    46    1
    49    29    30   ar
    50    29    34    1
    51    30    37    1
    52    34    35    1
    53    37    38    1
    54    37    40    1
    55    13    11    1
    56    11    12    1
    57    11    14    1
