@<TRIPOS>MOLECULE
mol_data/opt/b3lyp/geoms/mol2/13hi6ef-12dh-12fe-.out
 47 50 0 0 0
SMALL
GASTEIGER

@<TRIPOS>ATOM
      1 C           1.2698    0.1086   -0.8282 C.ar    1  LIG1        0.0233
      2 C           0.9126    1.1675   -0.0075 C.ar    1  LIG1        0.0456
      3 C          -0.4566    1.0041    0.3410 C.ar    1  LIG1       -0.0045
      4 C          -0.9042   -0.1676   -0.2938 C.ar    1  LIG1        0.0540
      5 N           0.1716   -0.6911   -0.9812 N.ar    1  LIG1       -0.3587
      6 H           0.1476   -1.5694   -1.4759 H       1  LIG1        0.1654
      7 H           2.2131   -0.1314   -1.2960 H       1  LIG1        0.0826
      8 N           1.7478    2.1902    0.4903 N.pl3   1  LIG1       -0.3566
      9 H           2.6779    2.1551    0.0894 H       1  LIG1        0.1424
     10 H           1.3628    3.1158    0.3332 H       1  LIG1        0.1424
     11 C          -1.1807    1.9122    1.2913 C.3     1  LIG1       -0.0360
     12 H          -1.9037    1.3698    1.9074 H       1  LIG1        0.0279
     13 H          -1.7268    2.7214    0.7863 H       1  LIG1        0.0279
     14 H          -0.4575    2.3828    1.9655 H       1  LIG1        0.0279
     15 C          -2.4702   -2.1754   -0.5755 C.ar    1  LIG1        0.1233
     16 C          -2.2203   -0.7893   -0.3076 C.ar    1  LIG1        0.0359
     17 C          -3.3620   -0.0182   -0.0588 C.ar    1  LIG1       -0.0062
     18 C          -4.6428   -0.5660   -0.0433 C.ar    1  LIG1        0.1465
     19 C          -4.7791   -1.9518   -0.3177 C.ar    1  LIG1        0.1499
     20 N          -3.6957   -2.7007   -0.5760 N.ar    1  LIG1       -0.2309
     21 H          -3.2842    1.0464    0.1140 H       1  LIG1        0.0662
     22 C          -1.4255   -3.1221   -0.8574 C.1     1  LIG1       -0.0491
     23 C          -0.5708   -3.9416   -1.1121 C.1     1  LIG1       -0.1124
     24 H           0.1659   -4.6868   -1.3060 H       1  LIG1        0.1232
     25 O          -5.6372    0.2967    0.2719 O.3     1  LIG1       -0.5045
     26 H          -6.5186   -0.0420    0.0629 H       1  LIG1        0.2922
     27 C          -6.0398   -2.6951   -0.2947 C.ar    1  LIG1        0.1767
     28 C          -7.3700   -2.3994   -0.5823 C.ar    1  LIG1        0.1204
     29 C          -8.1395   -3.5992   -0.3650 C.ar    1  LIG1        0.0925
     30 C          -7.2183   -4.5525    0.0158 C.ar    1  LIG1        0.1961
     31 O          -5.9577   -3.9943    0.0540 O.2     1  LIG1       -0.4467
     32 N          -8.3812   -0.1807   -1.4246 N.1     1  LIG1       -0.1907
     33 C          -7.9110   -1.1825   -1.0524 C.1     1  LIG1        0.1049
     34 N          -9.5130   -3.7016   -0.4515 N.pl3   1  LIG1       -0.3539
     35 H          -9.9539   -2.9980   -1.0286 H       1  LIG1        0.1425
     36 H          -9.8616   -4.6375   -0.6266 H       1  LIG1        0.1425
     37 C          -7.3486   -5.9403    0.3513 C.ar    1  LIG1        0.2139
     38 C          -8.3152   -6.8783    0.0904 C.ar    1  LIG1        0.1815
     39 C          -7.9203   -8.0996    0.7415 C.ar    1  LIG1        0.1045
     40 C          -6.7198   -7.8149    1.3431 C.ar    1  LIG1        0.1118
     41 O          -6.3697   -6.5291    1.1248 O.2     1  LIG1       -0.4547
     42 H          -6.0357   -8.4115    1.9248 H       1  LIG1        0.1043
     43 O          -9.4322   -6.6905   -0.6684 O.3     1  LIG1       -0.5023
     44 H          -9.9518   -7.5083   -0.6464 H       1  LIG1        0.2923
     45 C          -8.6620   -9.3052    0.7016 C.1     1  LIG1       -0.0628
     46 C          -9.3579  -10.2933    0.6210 C.1     1  LIG1       -0.1137
     47 H          -9.9433  -11.1822    0.5684 H       1  LIG1        0.1232
@<TRIPOS>BOND
     1     6     5    1
     2    32    33    3
     3    24    23    1
     4     7     1    1
     5    23    22    3
     6    33    28    1
     7    35    34    1
     8     5     1   ar
     9     5     4   ar
    10    22    15    1
    11     1     2   ar
    12    43    44    1
    13    43    38    1
    14    36    34    1
    15    28    29   ar
    16    28    27   ar
    17    20    15   ar
    18    20    19   ar
    19    15    16   ar
    20    34    29    1
    21    29    30   ar
    22    19    27    1
    23    19    18   ar
    24    16     4    1
    25    16    17   ar
    26    27    31   ar
    27     4     3   ar
    28    17    18   ar
    29    17    21    1
    30    18    25    1
    31     2     3   ar
    32     2     8    1
    33    30    31   ar
    34    30    37    1
    35    26    25    1
    36     9     8    1
    37    38    37   ar
    38    38    39   ar
    39    10     8    1
    40     3    11    1
    41    37    41   ar
    42    47    46    1
    43    46    45    3
    44    45    39    1
    45    39    40   ar
    46    13    11    1
    47    41    40   ar
    48    11    12    1
    49    11    14    1
    50    40    42    1
