@<TRIPOS>MOLECULE
mol_data/opt/b3lyp/geoms/mol2/13hi13hi13hi13hi.out
 54 57 0 0 0
SMALL
GASTEIGER

@<TRIPOS>ATOM
      1 C           0.5660    0.2699   -2.2106 C.ar    1  LIG1        0.0233
      2 C           0.7554    1.0419   -1.0843 C.ar    1  LIG1        0.0457
      3 C          -0.3490    0.8119   -0.1990 C.ar    1  LIG1       -0.0031
      4 C          -1.1912   -0.1000   -0.8269 C.ar    1  LIG1        0.0695
      5 N          -0.6012   -0.4560   -2.0289 N.ar    1  LIG1       -0.3576
      6 H          -1.1146   -0.8890   -2.7800 H       1  LIG1        0.1654
      7 H           1.1799    0.1414   -3.0897 H       1  LIG1        0.0826
      8 N           1.8786    1.8283   -0.7550 N.pl3   1  LIG1       -0.3566
      9 H           2.4514    2.0449   -1.5626 H       1  LIG1        0.1424
     10 H           1.6174    2.6948   -0.2970 H       1  LIG1        0.1424
     11 C          -0.4750    1.3666    1.1889 C.3     1  LIG1       -0.0359
     12 H          -1.3125    0.9095    1.7206 H       1  LIG1        0.0279
     13 H          -0.6437    2.4530    1.1970 H       1  LIG1        0.0279
     14 H           0.4405    1.1858    1.7655 H       1  LIG1        0.0279
     15 C          -2.4545   -0.6812   -0.4108 C.ar    1  LIG1        0.0849
     16 C          -3.6080   -0.0951    0.0997 C.ar    1  LIG1        0.0552
     17 C          -4.5815   -1.1173    0.3091 C.ar    1  LIG1       -0.0024
     18 C          -4.0067   -2.3214   -0.0996 C.ar    1  LIG1        0.0699
     19 N          -2.7231   -2.0417   -0.5241 N.ar    1  LIG1       -0.3501
     20 H          -2.0744   -2.7206   -0.8874 H       1  LIG1        0.1661
     21 N          -3.7825    1.2636    0.4269 N.pl3   1  LIG1       -0.3561
     22 H          -3.0980    1.8504   -0.0390 H       1  LIG1        0.1424
     23 H          -4.7156    1.5941    0.2049 H       1  LIG1        0.1424
     24 C          -5.9309   -0.9182    0.9329 C.3     1  LIG1       -0.0359
     25 H          -6.4176   -1.8757    1.1310 H       1  LIG1        0.0279
     26 H          -6.6122   -0.3373    0.2945 H       1  LIG1        0.0279
     27 H          -5.8459   -0.3726    1.8807 H       1  LIG1        0.0279
     28 C          -4.5256   -3.6771   -0.0992 C.ar    1  LIG1        0.0849
     29 C          -5.7217   -4.1997   -0.5801 C.ar    1  LIG1        0.0552
     30 C          -5.7207   -5.6103   -0.3642 C.ar    1  LIG1       -0.0024
     31 C          -4.5022   -5.9321    0.2341 C.ar    1  LIG1        0.0699
     32 N          -3.7941   -4.7575    0.3866 N.ar    1  LIG1       -0.3501
     33 H          -2.8892   -4.6887    0.8231 H       1  LIG1        0.1661
     34 N          -6.7939   -3.4711   -1.1306 N.pl3   1  LIG1       -0.3561
     35 H          -6.5009   -2.5501   -1.4394 H       1  LIG1        0.1424
     36 H          -7.2334   -3.9607   -1.9028 H       1  LIG1        0.1424
     37 C          -6.8632   -6.5363   -0.6598 C.3     1  LIG1       -0.0359
     38 H          -6.6911   -7.5238   -0.2255 H       1  LIG1        0.0279
     39 H          -7.0256   -6.6833   -1.7374 H       1  LIG1        0.0279
     40 H          -7.8004   -6.1396   -0.2510 H       1  LIG1        0.0279
     41 C          -3.9648   -7.2017    0.6880 C.ar    1  LIG1        0.0844
     42 C          -3.8709   -8.4340    0.0536 C.ar    1  LIG1        0.0546
     43 C          -3.2064   -9.3443    0.9369 C.ar    1  LIG1       -0.0118
     44 C          -2.9095   -8.6361    2.0828 C.ar    1  LIG1        0.0069
     45 N          -3.3358   -7.3410    1.9268 N.ar    1  LIG1       -0.3578
     46 H          -3.4709   -6.6918    2.6858 H       1  LIG1        0.1654
     47 H          -2.4211   -8.9615    2.9901 H       1  LIG1        0.0810
     48 N          -4.3551   -8.7620   -1.2274 N.pl3   1  LIG1       -0.3561
     49 H          -4.5338   -7.9313   -1.7822 H       1  LIG1        0.1424
     50 H          -3.7211   -9.3719   -1.7330 H       1  LIG1        0.1424
     51 C          -2.8829  -10.7778    0.6416 C.3     1  LIG1       -0.0365
     52 H          -2.4265  -11.2656    1.5078 H       1  LIG1        0.0279
     53 H          -2.1782  -10.8828   -0.1953 H       1  LIG1        0.0279
     54 H          -3.7823  -11.3453    0.3736 H       1  LIG1        0.0279
@<TRIPOS>BOND
     1     7     1    1
     2     6     5    1
     3     1     5   ar
     4     1     2   ar
     5     5     4   ar
     6    36    34    1
     7    49    48    1
     8    39    37    1
     9    50    48    1
    10     9     8    1
    11    35    34    1
    12    48    42    1
    13    34    29    1
    14     2     8    1
    15     2     3   ar
    16    20    19    1
    17     4    15    1
    18     4     3   ar
    19     8    10    1
    20    37    30    1
    21    37    40    1
    22    37    38    1
    23    29    30   ar
    24    29    28   ar
    25    19    15   ar
    26    19    18   ar
    27    15    16   ar
    28    30    31   ar
    29     3    11    1
    30    53    51    1
    31    18    28    1
    32    18    17   ar
    33    28    32   ar
    34    22    21    1
    35    42    41   ar
    36    42    43   ar
    37    16    17   ar
    38    16    21    1
    39    23    21    1
    40    31    32   ar
    41    31    41    1
    42    26    24    1
    43    17    24    1
    44    54    51    1
    45    32    33    1
    46    51    43    1
    47    51    52    1
    48    41    45   ar
    49    24    25    1
    50    24    27    1
    51    43    44   ar
    52    11    13    1
    53    11    12    1
    54    11    14    1
    55    45    44   ar
    56    45    46    1
    57    44    47    1
