@<TRIPOS>MOLECULE
mol_data/opt/b3lyp/geoms/mol2/13hi12ff-13le4lf.out
 51 54 0 0 0
SMALL
GASTEIGER

@<TRIPOS>ATOM
      1 C           1.1410    0.1345    1.1837 C.ar    1  LIG1        0.0242
      2 C           1.0097    1.0830    0.1923 C.ar    1  LIG1        0.0583
      3 C          -0.3383    0.9993   -0.3055 C.ar    1  LIG1        0.0706
      4 C          -0.9921   -0.0129    0.4134 C.ar    1  LIG1        0.0674
      5 N          -0.0687   -0.5309    1.2840 N.ar    1  LIG1       -0.3579
      6 H          -0.3049   -1.1883    2.0094 H       1  LIG1        0.1654
      7 H           1.9753   -0.1104    1.8223 H       1  LIG1        0.0826
      8 N           1.9611    2.0113   -0.2503 N.pl3   1  LIG1       -0.3559
      9 H           2.9001    1.6355   -0.2979 H       1  LIG1        0.1424
     10 H           1.6987    2.4107   -1.1449 H       1  LIG1        0.1424
     11 C          -0.8059    1.7588   -1.4044 C.1     1  LIG1       -0.0657
     12 C          -1.1047    2.4335   -2.3674 C.1     1  LIG1       -0.1138
     13 H          -1.4068    3.0171   -3.2050 H       1  LIG1        0.1232
     14 C          -3.5035    0.1874    0.2054 C.ar    1  LIG1        0.1298
     15 C          -4.7606   -0.4139    0.1332 C.ar    1  LIG1       -0.0115
     16 C          -2.3316   -0.6001    0.3234 C.ar    1  LIG1        0.0412
     17 C          -4.9069   -1.8108    0.1978 C.ar    1  LIG1       -0.0109
     18 H          -5.6473    0.1969    0.0458 H       1  LIG1        0.0660
     19 C          -2.4966   -1.9913    0.3971 C.ar    1  LIG1       -0.0485
     20 C          -3.7505   -2.5919    0.3421 C.ar    1  LIG1       -0.0531
     21 H          -1.6104   -2.6153    0.4737 H       1  LIG1        0.0625
     22 O          -3.3160    1.5355    0.1938 O.3     1  LIG1       -0.4944
     23 C          -4.4377    2.3810    0.0062 C.3     1  LIG1        0.0788
     24 H          -4.0436    3.3980   -0.0011 H       1  LIG1        0.0660
     25 H          -4.9391    2.1802   -0.9490 H       1  LIG1        0.0660
     26 H          -5.1656    2.2769    0.8210 H       1  LIG1        0.0660
     27 H          -3.8330   -3.6708    0.4200 H       1  LIG1        0.0624
     28 C          -7.4069   -1.9503    0.6853 C.ar    1  LIG1        0.1253
     29 C          -8.6146   -2.6183    0.5432 C.ar    1  LIG1       -0.0070
     30 C          -6.2376   -2.4582    0.0790 C.ar    1  LIG1        0.0254
     31 C          -8.7411   -3.8158   -0.1902 C.ar    1  LIG1        0.0450
     32 H          -9.5004   -2.2076    1.0185 H       1  LIG1        0.0662
     33 C          -6.3715   -3.6439   -0.6525 C.ar    1  LIG1       -0.0291
     34 C          -7.5761   -4.3441   -0.8065 C.ar    1  LIG1        0.0363
     35 H          -5.4892   -4.0409   -1.1473 H       1  LIG1        0.0643
     36 O          -7.3231   -0.7914    1.4249 O.3     1  LIG1       -0.5061
     37 H          -8.1857   -0.6311    1.8290 H       1  LIG1        0.2922
     38 N          -7.5646   -5.5557   -1.5050 N.pl3   1  LIG1       -0.3574
     39 H          -8.4473   -5.8391   -1.9017 H       1  LIG1        0.1423
     40 H          -6.7956   -5.6459   -2.1542 H       1  LIG1        0.1423
     41 C         -10.0611   -4.4217   -0.2643 C.ar    1  LIG1        0.1798
     42 C         -11.2577   -4.1542    0.3614 C.ar    1  LIG1        0.1838
     43 C         -12.2348   -5.0794   -0.1243 C.ar    1  LIG1        0.1056
     44 C         -11.5894   -5.8714   -1.0279 C.ar    1  LIG1        0.1169
     45 O         -10.2871   -5.4902   -1.1249 O.2     1  LIG1       -0.4572
     46 H         -11.8916   -6.7032   -1.6451 H       1  LIG1        0.1050
     47 O         -11.5436   -3.2031    1.2861 O.3     1  LIG1       -0.5020
     48 H         -12.4856   -3.3421    1.4976 H       1  LIG1        0.2924
     49 N         -13.5718   -5.0311    0.3690 N.pl3   1  LIG1       -0.3527
     50 H         -14.2443   -4.8278   -0.3649 H       1  LIG1        0.1425
     51 H         -13.8482   -5.9022    0.8125 H       1  LIG1        0.1425
@<TRIPOS>BOND
     1    13    12    1
     2    12    11    3
     3    40    38    1
     4    39    38    1
     5    46    44    1
     6    38    34    1
     7    11     3    1
     8    35    33    1
     9    10     8    1
    10    45    44   ar
    11    45    41   ar
    12    44    43   ar
    13    25    23    1
    14    34    33   ar
    15    34    31   ar
    16    33    30   ar
    17    50    49    1
    18     3     2   ar
    19     3     4   ar
    20     9     8    1
    21    41    31    1
    22    41    42   ar
    23     8     2    1
    24    31    29   ar
    25    43    42   ar
    26    43    49    1
    27    24    23    1
    28    23    22    1
    29    23    26    1
    30    18    15    1
    31    30    17    1
    32    30    28   ar
    33    15    17   ar
    34    15    14   ar
    35     2     1   ar
    36    22    14    1
    37    17    20   ar
    38    14    16   ar
    39    16    19   ar
    40    16     4    1
    41    20    19   ar
    42    20    27    1
    43    42    47    1
    44    49    51    1
    45    19    21    1
    46     4     5   ar
    47    29    28   ar
    48    29    32    1
    49    28    36    1
    50     1     5   ar
    51     1     7    1
    52     5     6    1
    53    47    48    1
    54    36    37    1
