@<TRIPOS>MOLECULE
mol_data/opt/b3lyp/geoms/mol2/13hi13hi-13hi-13hi.out
 54 57 0 0 0
SMALL
GASTEIGER

@<TRIPOS>ATOM
      1 C           1.3357   -0.4804   -0.4292 C.ar    1  LIG1        0.0233
      2 C           0.9860    0.7772   -0.8907 C.ar    1  LIG1        0.0457
      3 C          -0.4344    0.8952   -0.8095 C.ar    1  LIG1       -0.0031
      4 C          -0.9064   -0.3187   -0.3015 C.ar    1  LIG1        0.0695
      5 N           0.1802   -1.1274   -0.0673 N.ar    1  LIG1       -0.3576
      6 H           0.0594   -2.0511    0.3354 H       1  LIG1        0.1654
      7 H           2.3046   -0.9459   -0.3239 H       1  LIG1        0.0826
      8 N           1.8500    1.8237   -1.3051 N.pl3   1  LIG1       -0.3566
      9 H           2.8237    1.5496   -1.2293 H       1  LIG1        0.1424
     10 H           1.6795    2.0932   -2.2701 H       1  LIG1        0.1424
     11 C          -1.2147    2.1251   -1.1716 C.3     1  LIG1       -0.0359
     12 H          -1.9783    2.3645   -0.4211 H       1  LIG1        0.0279
     13 H          -1.7209    2.0515   -2.1460 H       1  LIG1        0.0279
     14 H          -0.5417    2.9866   -1.2247 H       1  LIG1        0.0279
     15 C          -2.2343   -0.8106   -0.0122 C.ar    1  LIG1        0.0849
     16 C          -2.6367   -2.0120    0.5666 C.ar    1  LIG1        0.0552
     17 C          -4.0636   -2.0357    0.6268 C.ar    1  LIG1       -0.0024
     18 C          -4.5117   -0.8446    0.0622 C.ar    1  LIG1        0.0699
     19 N          -3.3881   -0.1119   -0.2964 N.ar    1  LIG1       -0.3501
     20 H          -3.4255    0.7240   -0.8562 H       1  LIG1        0.1661
     21 N          -1.7150   -3.0092    1.0397 N.pl3   1  LIG1       -0.3561
     22 H          -1.7487   -3.0797    2.0561 H       1  LIG1        0.1424
     23 H          -1.9717   -3.9280    0.6842 H       1  LIG1        0.1424
     24 C          -4.8952   -3.1048    1.2730 C.3     1  LIG1       -0.0359
     25 H          -4.5342   -3.3307    2.2847 H       1  LIG1        0.0279
     26 H          -4.8745   -4.0518    0.7163 H       1  LIG1        0.0279
     27 H          -5.9405   -2.7981    1.3515 H       1  LIG1        0.0279
     28 C          -5.8430   -0.3103   -0.1465 C.ar    1  LIG1        0.0849
     29 C          -6.9933   -0.8992   -0.6712 C.ar    1  LIG1        0.0552
     30 C          -8.0283    0.0783   -0.6948 C.ar    1  LIG1       -0.0024
     31 C          -7.4699    1.2636   -0.2038 C.ar    1  LIG1        0.0699
     32 N          -6.1580    1.0132    0.1122 N.ar    1  LIG1       -0.3501
     33 H          -5.6095    1.7015    0.6202 H       1  LIG1        0.1661
     34 N          -7.1346   -2.2413   -1.0901 N.pl3   1  LIG1       -0.3561
     35 H          -7.6080   -2.3063   -1.9861 H       1  LIG1        0.1424
     36 H          -6.2267   -2.6872   -1.1777 H       1  LIG1        0.1424
     37 C          -9.4370   -0.1667   -1.1535 C.3     1  LIG1       -0.0359
     38 H          -9.6446   -1.2410   -1.1806 H       1  LIG1        0.0279
     39 H          -9.6452    0.2263   -2.1599 H       1  LIG1        0.0279
     40 H         -10.1737    0.2707   -0.4678 H       1  LIG1        0.0279
     41 C          -8.0140    2.5831    0.0262 C.ar    1  LIG1        0.0844
     42 C          -7.4411    3.6864    0.6579 C.ar    1  LIG1        0.0546
     43 C          -8.3820    4.7631    0.6283 C.ar    1  LIG1       -0.0118
     44 C          -9.5001    4.2875   -0.0232 C.ar    1  LIG1        0.0069
     45 N          -9.2731    2.9760   -0.3762 N.ar    1  LIG1       -0.3578
     46 H          -9.9067    2.3992   -0.9026 H       1  LIG1        0.1654
     47 H         -10.4340    4.7761   -0.2595 H       1  LIG1        0.0810
     48 N          -6.1215    3.6738    1.2281 N.pl3   1  LIG1       -0.3561
     49 H          -5.5624    4.4402    0.8583 H       1  LIG1        0.1424
     50 H          -6.1596    3.8098    2.2371 H       1  LIG1        0.1424
     51 C          -8.1814    6.1350    1.1995 C.3     1  LIG1       -0.0365
     52 H          -9.0622    6.7628    1.0383 H       1  LIG1        0.0279
     53 H          -7.3258    6.6491    0.7428 H       1  LIG1        0.0279
     54 H          -7.9932    6.1060    2.2803 H       1  LIG1        0.0279
@<TRIPOS>BOND
     1    10     8    1
     2    39    37    1
     3    13    11    1
     4    35    34    1
     5     8     9    1
     6     8     2    1
     7    14    11    1
     8    38    37    1
     9    36    34    1
    10    11     3    1
    11    11    12    1
    12    37    30    1
    13    37    40    1
    14    34    29    1
    15    46    45    1
    16     2     3   ar
    17     2     1   ar
    18    20    19    1
    19     3     4   ar
    20    30    29   ar
    21    30    31   ar
    22    29    28   ar
    23     1     7    1
    24     1     5   ar
    25    45    44   ar
    26    45    41   ar
    27     4     5   ar
    28     4    15    1
    29    19    15   ar
    30    19    18   ar
    31    47    44    1
    32    31    41    1
    33    31    32   ar
    34    28    18    1
    35    28    32   ar
    36     5     6    1
    37    44    43   ar
    38    15    16   ar
    39    41    42   ar
    40    18    17   ar
    41    32    33    1
    42    16    17   ar
    43    16    21    1
    44    17    24    1
    45    43    42   ar
    46    43    51    1
    47    42    48    1
    48    23    21    1
    49    26    24    1
    50    53    51    1
    51    49    48    1
    52    52    51    1
    53    21    22    1
    54    51    54    1
    55    48    50    1
    56    24    27    1
    57    24    25    1
