@<TRIPOS>MOLECULE
mol_data/opt/b3lyp/geoms/mol2/13hi13hi-13hi.out
 41 43 0 0 0
SMALL
GASTEIGER

@<TRIPOS>ATOM
      1 C           1.2604   -0.3267   -0.1751 C.ar    1  LIG1        0.0233
      2 C           0.8843    1.0034   -0.0960 C.ar    1  LIG1        0.0457
      3 C          -0.5404    1.0543   -0.0238 C.ar    1  LIG1       -0.0031
      4 C          -0.9889   -0.2692   -0.0727 C.ar    1  LIG1        0.0695
      5 N           0.1158   -1.0844   -0.1502 N.ar    1  LIG1       -0.3576
      6 H           0.0135   -2.0936   -0.1632 H       1  LIG1        0.1654
      7 H           2.2398   -0.7780   -0.2347 H       1  LIG1        0.0826
      8 N           1.7281    2.1412   -0.0178 N.pl3   1  LIG1       -0.3566
      9 H           2.7069    1.8783   -0.0607 H       1  LIG1        0.1424
     10 H           1.5499    2.7942   -0.7757 H       1  LIG1        0.1424
     11 C          -1.3463    2.3125    0.1157 C.3     1  LIG1       -0.0359
     12 H          -2.1412    2.2133    0.8639 H       1  LIG1        0.0279
     13 H          -1.8237    2.6303   -0.8222 H       1  LIG1        0.0279
     14 H          -0.6981    3.1307    0.4452 H       1  LIG1        0.0279
     15 C          -2.3086   -0.8603   -0.0530 C.ar    1  LIG1        0.0849
     16 C          -2.6817   -2.2079   -0.0251 C.ar    1  LIG1        0.0552
     17 C          -4.1051   -2.2841   -0.0198 C.ar    1  LIG1       -0.0024
     18 C          -4.5719   -0.9690   -0.0490 C.ar    1  LIG1        0.0699
     19 N          -3.4728   -0.1357   -0.0656 N.ar    1  LIG1       -0.3501
     20 H          -3.5931    0.8714   -0.1108 H       1  LIG1        0.1661
     21 N          -1.7355   -3.2897   -0.0069 N.pl3   1  LIG1       -0.3561
     22 H          -1.7971   -3.8215    0.8594 H       1  LIG1        0.1424
     23 H          -1.9124   -3.9448   -0.7654 H       1  LIG1        0.1424
     24 C          -4.9119   -3.5492    0.0116 C.3     1  LIG1       -0.0359
     25 H          -4.2519   -4.4219    0.0458 H       1  LIG1        0.0279
     26 H          -5.5461   -3.6705   -0.8775 H       1  LIG1        0.0279
     27 H          -5.5616   -3.6140    0.8953 H       1  LIG1        0.0279
     28 C          -5.8983   -0.3962   -0.0665 C.ar    1  LIG1        0.0844
     29 C          -6.2947    0.9403   -0.0975 C.ar    1  LIG1        0.0546
     30 C          -7.7245    0.9877   -0.1052 C.ar    1  LIG1       -0.0118
     31 C          -8.1596   -0.3199   -0.0791 C.ar    1  LIG1        0.0069
     32 N          -7.0565   -1.1449   -0.0553 N.ar    1  LIG1       -0.3578
     33 H          -7.0851   -2.1497   -0.0350 H       1  LIG1        0.1654
     34 H          -9.1607   -0.7255   -0.0751 H       1  LIG1        0.0810
     35 N          -5.3686    2.0391   -0.1178 N.pl3   1  LIG1       -0.3561
     36 H          -5.5207    2.6264   -0.9357 H       1  LIG1        0.1424
     37 H          -5.4992    2.6399    0.6941 H       1  LIG1        0.1424
     38 C          -8.5726    2.2239   -0.1357 C.3     1  LIG1       -0.0365
     39 H          -9.6371    1.9731   -0.1291 H       1  LIG1        0.0279
     40 H          -8.3846    2.8290   -1.0321 H       1  LIG1        0.0279
     41 H          -8.3834    2.8725    0.7292 H       1  LIG1        0.0279
@<TRIPOS>BOND
     1    40    38    1
     2    36    35    1
     3    26    24    1
     4    13    11    1
     5    10     8    1
     6    23    21    1
     7     7     1    1
     8     1     5   ar
     9     1     2   ar
    10     6     5    1
    11     5     4   ar
    12    38    39    1
    13    38    30    1
    14    38    41    1
    15    35    29    1
    16    35    37    1
    17    20    19    1
    18    30    29   ar
    19    30    31   ar
    20    29    28   ar
    21     2     3   ar
    22     2     8    1
    23    31    34    1
    24    31    32   ar
    25     4    15    1
    26     4     3   ar
    27    28    32   ar
    28    28    18    1
    29    19    15   ar
    30    19    18   ar
    31     9     8    1
    32    32    33    1
    33    15    16   ar
    34    18    17   ar
    35    16    17   ar
    36    16    21    1
    37     3    11    1
    38    17    24    1
    39    21    22    1
    40    24    25    1
    41    24    27    1
    42    11    14    1
    43    11    12    1
