@<TRIPOS>MOLECULE
mol_data/opt/b3lyp/geoms/mol2/13hi13hi-13hi13hi-.out
 54 57 0 0 0
SMALL
GASTEIGER

@<TRIPOS>ATOM
      1 C           1.3374   -0.3342   -0.1713 C.ar    1  LIG1        0.0233
      2 C           0.9801    0.9989   -0.0619 C.ar    1  LIG1        0.0457
      3 C          -0.4439    1.0684    0.0090 C.ar    1  LIG1       -0.0031
      4 C          -0.9112   -0.2472   -0.0712 C.ar    1  LIG1        0.0695
      5 N           0.1820   -1.0758   -0.1659 N.ar    1  LIG1       -0.3576
      6 H           0.0637   -2.0829   -0.2034 H       1  LIG1        0.1654
      7 H           2.3105   -0.7979   -0.2403 H       1  LIG1        0.0826
      8 N           1.8405    2.1225    0.0440 N.pl3   1  LIG1       -0.3566
      9 H           2.8152    1.8449    0.0014 H       1  LIG1        0.1424
     10 H           1.6776    2.7917   -0.7033 H       1  LIG1        0.1424
     11 C          -1.2335    2.3336    0.1758 C.3     1  LIG1       -0.0359
     12 H          -2.0236    2.2306    0.9288 H       1  LIG1        0.0279
     13 H          -1.7150    2.6720   -0.7529 H       1  LIG1        0.0279
     14 H          -0.5734    3.1390    0.5134 H       1  LIG1        0.0279
     15 C          -2.2389   -0.8198   -0.0661 C.ar    1  LIG1        0.0849
     16 C          -2.6307   -2.1629   -0.0732 C.ar    1  LIG1        0.0552
     17 C          -4.0540   -2.2210   -0.0688 C.ar    1  LIG1       -0.0024
     18 C          -4.5041   -0.8989   -0.0633 C.ar    1  LIG1        0.0699
     19 N          -3.3930   -0.0798   -0.0587 N.ar    1  LIG1       -0.3501
     20 H          -3.4994    0.9293   -0.0781 H       1  LIG1        0.1661
     21 N          -1.6978   -3.2570   -0.0845 N.pl3   1  LIG1       -0.3561
     22 H          -1.7734   -3.8146    0.7644 H       1  LIG1        0.1424
     23 H          -1.8829   -3.8865   -0.8626 H       1  LIG1        0.1424
     24 C          -4.8783   -3.4748   -0.0701 C.3     1  LIG1       -0.0359
     25 H          -4.2296   -4.3569   -0.0643 H       1  LIG1        0.0279
     26 H          -5.5226   -3.5563   -0.9550 H       1  LIG1        0.0279
     27 H          -5.5293   -3.5516    0.8102 H       1  LIG1        0.0279
     28 C          -5.8227   -0.3121   -0.0658 C.ar    1  LIG1        0.0849
     29 C          -6.1992    1.0357   -0.0670 C.ar    1  LIG1        0.0552
     30 C          -7.6224    1.1084   -0.0720 C.ar    1  LIG1       -0.0024
     31 C          -8.0866   -0.2079   -0.0742 C.ar    1  LIG1        0.0699
     32 N          -6.9862   -1.0399   -0.0699 N.ar    1  LIG1       -0.3501
     33 H          -7.1069   -2.0477   -0.0699 H       1  LIG1        0.1661
     34 N          -5.2546    2.1179   -0.0646 N.pl3   1  LIG1       -0.3561
     35 H          -5.3788    2.7213   -0.8748 H       1  LIG1        0.1424
     36 H          -5.3643    2.7057    0.7591 H       1  LIG1        0.1424
     37 C          -8.4307    2.3728   -0.0743 C.3     1  LIG1       -0.0359
     38 H          -9.0781    2.4627    0.8088 H       1  LIG1        0.0279
     39 H          -9.0671    2.4671   -0.9651 H       1  LIG1        0.0279
     40 H          -7.7711    3.2463   -0.0679 H       1  LIG1        0.0279
     41 C          -9.4115   -0.7835   -0.0791 C.ar    1  LIG1        0.0844
     42 C          -9.8062   -2.1211   -0.0790 C.ar    1  LIG1        0.0546
     43 C         -11.2358   -2.1707   -0.0850 C.ar    1  LIG1       -0.0118
     44 C         -11.6727   -0.8634   -0.0885 C.ar    1  LIG1        0.0069
     45 N         -10.5709   -0.0366   -0.0850 N.ar    1  LIG1       -0.3578
     46 H         -10.6010    0.9684   -0.0865 H       1  LIG1        0.1654
     47 H         -12.6743   -0.4593   -0.0933 H       1  LIG1        0.0810
     48 N          -8.8789   -3.2198   -0.0737 N.pl3   1  LIG1       -0.3561
     49 H          -9.0241   -3.8118    0.7422 H       1  LIG1        0.1424
     50 H          -9.0202   -3.8162   -0.8871 H       1  LIG1        0.1424
     51 C         -12.0832   -3.4077   -0.0866 C.3     1  LIG1       -0.0365
     52 H         -11.8992   -4.0331    0.7965 H       1  LIG1        0.0279
     53 H         -11.8911   -4.0365   -0.9654 H       1  LIG1        0.0279
     54 H         -13.1477   -3.1569   -0.0920 H       1  LIG1        0.0279
@<TRIPOS>BOND
     1    53    51    1
     2    39    37    1
     3    26    24    1
     4    50    48    1
     5    35    34    1
     6    23    21    1
     7    13    11    1
     8    10     8    1
     9     7     1    1
    10     6     5    1
    11     1     5   ar
    12     1     2   ar
    13     5     4   ar
    14    47    44    1
    15    54    51    1
    16    44    45   ar
    17    44    43   ar
    18    51    43    1
    19    51    52    1
    20    46    45    1
    21    45    41   ar
    22    43    42   ar
    23    21    16    1
    24    21    22    1
    25    41    42   ar
    26    41    31    1
    27    42    48    1
    28    20    19    1
    29    37    30    1
    30    37    40    1
    31    37    38    1
    32    31    30   ar
    33    31    32   ar
    34    48    49    1
    35    16    17   ar
    36    16    15   ar
    37    30    29   ar
    38     4    15    1
    39     4     3   ar
    40    24    17    1
    41    24    25    1
    42    24    27    1
    43    32    33    1
    44    32    28   ar
    45    17    18   ar
    46    29    28   ar
    47    29    34    1
    48    15    19   ar
    49    28    18    1
    50    34    36    1
    51    18    19   ar
    52     2     3   ar
    53     2     8    1
    54     9     8    1
    55     3    11    1
    56    11    14    1
    57    11    12    1
