@<TRIPOS>MOLECULE
mol_data/opt/b3lyp/geoms/mol2/13hi13hi13hi.out
 41 43 0 0 0
SMALL
GASTEIGER

@<TRIPOS>ATOM
      1 C           1.0040   -0.1251   -1.3291 C.ar    1  LIG1        0.0233
      2 C           0.8721    0.9557   -0.4836 C.ar    1  LIG1        0.0457
      3 C          -0.4406    0.9107    0.0916 C.ar    1  LIG1       -0.0031
      4 C          -1.0779   -0.2080   -0.4355 C.ar    1  LIG1        0.0695
      5 N          -0.1736   -0.8537   -1.2630 N.ar    1  LIG1       -0.3576
      6 H          -0.4558   -1.5290   -1.9554 H       1  LIG1        0.1654
      7 H           1.8414   -0.4575   -1.9244 H       1  LIG1        0.0826
      8 N           1.8627    1.8891   -0.1141 N.pl3   1  LIG1       -0.3566
      9 H           2.6441    1.9018   -0.7596 H       1  LIG1        0.1424
     10 H           1.4902    2.8291   -0.0328 H       1  LIG1        0.1424
     11 C          -0.9503    1.8378    1.1551 C.3     1  LIG1       -0.0359
     12 H          -1.9048    1.4899    1.5566 H       1  LIG1        0.0279
     13 H          -1.1114    2.8601    0.7843 H       1  LIG1        0.0279
     14 H          -0.2340    1.9122    1.9826 H       1  LIG1        0.0279
     15 C          -2.4125   -0.7389   -0.2278 C.ar    1  LIG1        0.0849
     16 C          -3.6590   -0.1222   -0.2554 C.ar    1  LIG1        0.0552
     17 C          -4.6606   -1.1132   -0.0298 C.ar    1  LIG1       -0.0024
     18 C          -4.0024   -2.3352    0.1136 C.ar    1  LIG1        0.0699
     19 N          -2.6495   -2.0916   -0.0047 N.ar    1  LIG1       -0.3501
     20 H          -1.9312   -2.7936    0.0658 H       1  LIG1        0.1661
     21 N          -3.9086    1.2553   -0.4122 N.pl3   1  LIG1       -0.3561
     22 H          -3.1140    1.7331   -0.8248 H       1  LIG1        0.1424
     23 H          -4.7350    1.4323   -0.9733 H       1  LIG1        0.1424
     24 C          -6.1315   -0.8499    0.1029 C.3     1  LIG1       -0.0359
     25 H          -6.6607   -1.7404    0.4498 H       1  LIG1        0.0279
     26 H          -6.5976   -0.5490   -0.8465 H       1  LIG1        0.0279
     27 H          -6.3191   -0.0386    0.8168 H       1  LIG1        0.0279
     28 C          -4.5083   -3.6713    0.3703 C.ar    1  LIG1        0.0844
     29 C          -5.5230   -4.3978   -0.2396 C.ar    1  LIG1        0.0546
     30 C          -5.5781   -5.6919    0.3708 C.ar    1  LIG1       -0.0118
     31 C          -4.5893   -5.7169    1.3325 C.ar    1  LIG1        0.0069
     32 N          -3.9243   -4.5165    1.3158 N.ar    1  LIG1       -0.3578
     33 H          -3.3391   -4.1794    2.0638 H       1  LIG1        0.1654
     34 H          -4.3109   -6.5043    2.0181 H       1  LIG1        0.0810
     35 N          -6.3764   -3.9539   -1.2683 N.pl3   1  LIG1       -0.3561
     36 H          -5.9998   -3.1365   -1.7372 H       1  LIG1        0.1424
     37 H          -6.5591   -4.6784   -1.9548 H       1  LIG1        0.1424
     38 C          -6.5190   -6.7988    0.0017 C.3     1  LIG1       -0.0365
     39 H          -6.3897   -7.6626    0.6603 H       1  LIG1        0.0279
     40 H          -6.3641   -7.1528   -1.0273 H       1  LIG1        0.0279
     41 H          -7.5652   -6.4776    0.0734 H       1  LIG1        0.0279
@<TRIPOS>BOND
     1     6     5    1
     2    37    35    1
     3     7     1    1
     4    36    35    1
     5     1     5   ar
     6     1     2   ar
     7    35    29    1
     8     5     4   ar
     9    40    38    1
    10    23    21    1
    11    26    24    1
    12    22    21    1
    13     9     8    1
    14     2     8    1
    15     2     3   ar
    16     4    15    1
    17     4     3   ar
    18    21    16    1
    19    16    15   ar
    20    16    17   ar
    21    29    28   ar
    22    29    30   ar
    23    15    19   ar
    24     8    10    1
    25    17    24    1
    26    17    18   ar
    27    19    20    1
    28    19    18   ar
    29    38    41    1
    30    38    30    1
    31    38    39    1
    32     3    11    1
    33    24    25    1
    34    24    27    1
    35    18    28    1
    36    28    32   ar
    37    30    31   ar
    38    13    11    1
    39    11    12    1
    40    11    14    1
    41    32    31   ar
    42    32    33    1
    43    31    34    1
