@<TRIPOS>MOLECULE
mol_data/opt/b3lyp/geoms/mol2/13hi13hi-.out
 28 29 0 0 0
SMALL
GASTEIGER

@<TRIPOS>ATOM
      1 C           1.1767   -0.3000   -0.1968 C.ar    1  LIG1        0.0233
      2 C           0.8163    1.0310   -0.0742 C.ar    1  LIG1        0.0457
      3 C          -0.6080    1.0940    0.0066 C.ar    1  LIG1       -0.0031
      4 C          -1.0701   -0.2219   -0.0813 C.ar    1  LIG1        0.0694
      5 N           0.0242   -1.0457   -0.1901 N.ar    1  LIG1       -0.3576
      6 H          -0.0903   -2.0534   -0.2334 H       1  LIG1        0.1654
      7 H           2.1507   -0.7597   -0.2766 H       1  LIG1        0.0826
      8 N           1.6708    2.1586    0.0347 N.pl3   1  LIG1       -0.3566
      9 H           2.6471    1.8834    0.0269 H       1  LIG1        0.1424
     10 H           1.5291    2.8142   -0.7289 H       1  LIG1        0.1424
     11 C          -1.4001    2.3549    0.1944 C.3     1  LIG1       -0.0359
     12 H          -2.1672    2.2492    0.9726 H       1  LIG1        0.0279
     13 H          -1.9022    2.6973   -0.7228 H       1  LIG1        0.0279
     14 H          -0.7364    3.1625    0.5180 H       1  LIG1        0.0279
     15 C          -2.3962   -0.8007   -0.0725 C.ar    1  LIG1        0.0844
     16 C          -2.7897   -2.1375   -0.0902 C.ar    1  LIG1        0.0546
     17 C          -4.2196   -2.1880   -0.0795 C.ar    1  LIG1       -0.0118
     18 C          -4.6567   -0.8808   -0.0593 C.ar    1  LIG1        0.0069
     19 N          -3.5548   -0.0546   -0.0511 N.ar    1  LIG1       -0.3578
     20 H          -3.5823    0.9506   -0.0671 H       1  LIG1        0.1654
     21 H          -5.6584   -0.4771   -0.0481 H       1  LIG1        0.0810
     22 N          -1.8619   -3.2361   -0.1162 N.pl3   1  LIG1       -0.3561
     23 H          -1.9510   -3.8048    0.7245 H       1  LIG1        0.1424
     24 H          -2.0607   -3.8545   -0.9004 H       1  LIG1        0.1424
     25 C          -5.0663   -3.4255   -0.0881 C.3     1  LIG1       -0.0365
     26 H          -4.8706   -4.0634    0.7836 H       1  LIG1        0.0279
     27 H          -4.8852   -4.0421   -0.9781 H       1  LIG1        0.0279
     28 H          -6.1311   -3.1757   -0.0770 H       1  LIG1        0.0279
@<TRIPOS>BOND
     1    27    25    1
     2    24    22    1
     3    10     8    1
     4    13    11    1
     5     7     1    1
     6     6     5    1
     7     1     5   ar
     8     1     2   ar
     9     5     4   ar
    10    22    16    1
    11    22    23    1
    12    16    17   ar
    13    16    15   ar
    14    25    17    1
    15    25    28    1
    16    25    26    1
    17     4    15    1
    18     4     3   ar
    19    17    18   ar
    20     2     3   ar
    21     2     8    1
    22    15    19   ar
    23    20    19    1
    24    18    19   ar
    25    18    21    1
    26     3    11    1
    27     9     8    1
    28    11    14    1
    29    11    12    1
