@<TRIPOS>MOLECULE
mol_data/opt/b3lyp/geoms/mol2/13hi13hi13hi13hi-.out
 54 57 0 0 0
SMALL
GASTEIGER

@<TRIPOS>ATOM
      1 C           0.4385    0.4566   -2.2976 C.ar    1  LIG1        0.0233
      2 C           0.6684    1.1574   -1.1330 C.ar    1  LIG1        0.0457
      3 C          -0.3866    0.8467   -0.2131 C.ar    1  LIG1       -0.0031
      4 C          -1.2422   -0.0403   -0.8593 C.ar    1  LIG1        0.0695
      5 N          -0.7055   -0.3036   -2.1086 N.ar    1  LIG1       -0.3576
      6 H          -1.2443   -0.7061   -2.8587 H       1  LIG1        0.1654
      7 H           1.0109    0.3984   -3.2114 H       1  LIG1        0.0826
      8 N           1.7923    1.9451   -0.8067 N.pl3   1  LIG1       -0.3566
      9 H           2.3188    2.2267   -1.6259 H       1  LIG1        0.1424
     10 H           1.5368    2.7748   -0.2820 H       1  LIG1        0.1424
     11 C          -0.4529    1.3054    1.2137 C.3     1  LIG1       -0.0359
     12 H          -1.2581    0.8006    1.7521 H       1  LIG1        0.0279
     13 H          -0.6336    2.3862    1.3035 H       1  LIG1        0.0279
     14 H           0.4912    1.1003    1.7335 H       1  LIG1        0.0279
     15 C          -2.4728   -0.6753   -0.4257 C.ar    1  LIG1        0.0849
     16 C          -3.6088   -0.1542    0.1849 C.ar    1  LIG1        0.0552
     17 C          -4.5545   -1.2085    0.3588 C.ar    1  LIG1       -0.0024
     18 C          -3.9815   -2.3646   -0.1743 C.ar    1  LIG1        0.0699
     19 N          -2.7292   -2.0253   -0.6425 N.ar    1  LIG1       -0.3501
     20 H          -2.0697   -2.6759   -1.0373 H       1  LIG1        0.1661
     21 N          -3.7918    1.1720    0.6250 N.pl3   1  LIG1       -0.3561
     22 H          -3.1305    1.8039    0.1855 H       1  LIG1        0.1424
     23 H          -4.7352    1.5040    0.4542 H       1  LIG1        0.1424
     24 C          -5.8680   -1.0835    1.0732 C.3     1  LIG1       -0.0359
     25 H          -6.2935   -2.0663    1.2903 H       1  LIG1        0.0279
     26 H          -6.6211   -0.5263    0.4967 H       1  LIG1        0.0279
     27 H          -5.7411   -0.5490    2.0223 H       1  LIG1        0.0279
     28 C          -4.4709   -3.7274   -0.2600 C.ar    1  LIG1        0.0849
     29 C          -5.7001   -4.2321   -0.6832 C.ar    1  LIG1        0.0552
     30 C          -5.6486   -5.6540   -0.6195 C.ar    1  LIG1       -0.0024
     31 C          -4.3643   -5.9880   -0.1773 C.ar    1  LIG1        0.0699
     32 N          -3.6698   -4.8210    0.0244 N.ar    1  LIG1       -0.3501
     33 H          -2.7729   -4.8338    0.5022 H       1  LIG1        0.1661
     34 N          -6.8259   -3.4816   -1.0885 N.pl3   1  LIG1       -0.3561
     35 H          -6.5809   -2.5056   -1.2195 H       1  LIG1        0.1424
     36 H          -7.2201   -3.8321   -1.9562 H       1  LIG1        0.1424
     37 C          -6.7876   -6.5729   -0.9553 C.3     1  LIG1       -0.0359
     38 H          -6.8897   -7.3833   -0.2227 H       1  LIG1        0.0279
     39 H          -6.7011   -7.0336   -1.9508 H       1  LIG1        0.0279
     40 H          -7.7331   -6.0219   -0.9390 H       1  LIG1        0.0279
     41 C          -3.7215   -7.2521    0.1051 C.ar    1  LIG1        0.0844
     42 C          -2.4937   -7.5121    0.7123 C.ar    1  LIG1        0.0546
     43 C          -2.3033   -8.9290    0.7578 C.ar    1  LIG1       -0.0118
     44 C          -3.4181   -9.4923    0.1739 C.ar    1  LIG1        0.0069
     45 N          -4.2678   -8.4786   -0.2090 N.ar    1  LIG1       -0.3578
     46 H          -5.1356   -8.6042   -0.7014 H       1  LIG1        0.1654
     47 H          -3.6722  -10.5283    0.0046 H       1  LIG1        0.0810
     48 N          -1.6183   -6.4806    1.1976 N.pl3   1  LIG1       -0.3561
     49 H          -1.5373   -6.5187    2.2126 H       1  LIG1        0.1424
     50 H          -0.6766   -6.6056    0.8315 H       1  LIG1        0.1424
     51 C          -1.1209   -9.6494    1.3336 C.3     1  LIG1       -0.0365
     52 H          -0.9849   -9.4274    2.3997 H       1  LIG1        0.0279
     53 H          -0.1855   -9.3723    0.8305 H       1  LIG1        0.0279
     54 H          -1.2334  -10.7330    1.2375 H       1  LIG1        0.0279
@<TRIPOS>BOND
     1     7     1    1
     2     6     5    1
     3     1     5   ar
     4     1     2   ar
     5     5     4   ar
     6    36    34    1
     7    39    37    1
     8     9     8    1
     9    35    34    1
    10     2     8    1
    11     2     3   ar
    12    34    29    1
    13    20    19    1
    14    37    40    1
    15    37    30    1
    16    37    38    1
    17     4    15    1
    18     4     3   ar
    19     8    10    1
    20    46    45    1
    21    29    30   ar
    22    29    28   ar
    23    19    15   ar
    24    19    18   ar
    25    30    31   ar
    26    15    16   ar
    27    28    18    1
    28    28    32   ar
    29     3    11    1
    30    45    41   ar
    31    45    44   ar
    32    31    32   ar
    33    31    41    1
    34    18    17   ar
    35    47    44    1
    36    32    33    1
    37    41    42   ar
    38    44    43   ar
    39    16    17   ar
    40    16    21    1
    41    22    21    1
    42    17    24    1
    43    23    21    1
    44    26    24    1
    45    42    43   ar
    46    42    48    1
    47    43    51    1
    48    53    51    1
    49    50    48    1
    50    24    25    1
    51    24    27    1
    52    48    49    1
    53    11    13    1
    54    11    14    1
    55    11    12    1
    56    54    51    1
    57    51    52    1
