@<TRIPOS>MOLECULE
mol_data/opt/b3lyp/geoms/mol2/13hl4ee-12el-4hf12al6ah-13aa12le.out
 99 106 0 0 0
SMALL
GASTEIGER

@<TRIPOS>ATOM
      1 C           1.1060    0.3295    1.4937 C.ar    1  LIG1        0.0267
      2 C           0.9276    1.5442    0.8604 C.ar    1  LIG1        0.0850
      3 C          -0.4313    1.5811    0.4149 C.ar    1  LIG1        0.1658
      4 C          -1.0406    0.3777    0.7628 C.ar    1  LIG1        0.0918
      5 N          -0.0677   -0.3825    1.3921 N.ar    1  LIG1       -0.3561
      6 H          -0.2825   -1.2061    1.9311 H       1  LIG1        0.1655
      7 H           1.9701   -0.0759    1.9986 H       1  LIG1        0.0827
      8 N           1.8678    2.5814    0.6719 N.pl3   1  LIG1       -0.3540
      9 H           2.8051    2.2892    0.9259 H       1  LIG1        0.1425
     10 H           1.8820    2.8897   -0.2962 H       1  LIG1        0.1425
     11 O          -0.9936    2.5430   -0.3793 O.3     1  LIG1       -0.4911
     12 C          -0.9952    3.8641    0.1776 C.3     1  LIG1        0.0790
     13 H          -1.4711    4.5047   -0.5676 H       1  LIG1        0.0660
     14 H          -1.5746    3.8911    1.1051 H       1  LIG1        0.0660
     15 H           0.0207    4.2171    0.3795 H       1  LIG1        0.0660
     16 C          -3.5799    0.4546    0.5417 C.ar    1  LIG1        0.0346
     17 C          -4.7594   -0.2155    0.1863 C.ar    1  LIG1       -0.0338
     18 C          -2.3328   -0.2178    0.4234 C.ar    1  LIG1        0.0185
     19 C          -4.7764   -1.5395   -0.2684 C.ar    1  LIG1        0.0352
     20 H          -5.6982    0.3115    0.3027 H       1  LIG1        0.0637
     21 C          -2.3559   -1.5444   -0.0304 C.ar    1  LIG1       -0.0352
     22 C          -3.5330   -2.2237   -0.3764 C.ar    1  LIG1        0.0361
     23 H          -1.4138   -2.0645   -0.1643 H       1  LIG1        0.0637
     24 C          -3.7151    1.7614    1.1015 C.1     1  LIG1       -0.0690
     25 C          -3.9436    2.8362    1.6095 C.1     1  LIG1       -0.1139
     26 H          -4.1270    3.7867    2.0539 H       1  LIG1        0.1232
     27 C          -3.3963   -3.5465   -0.8999 C.1     1  LIG1       -0.0689
     28 C          -3.1811   -4.6474   -1.3567 C.1     1  LIG1       -0.1139
     29 H          -3.0112   -5.6028   -1.7968 H       1  LIG1        0.1232
     30 C          -6.0559   -2.1548   -0.5910 C.ar    1  LIG1        0.1559
     31 C          -7.2463   -1.6503   -1.0840 C.ar    1  LIG1        0.1127
     32 C          -8.1452   -2.7745   -1.1627 C.ar    1  LIG1        0.1817
     33 C          -7.4724   -3.8941   -0.7101 C.ar    1  LIG1        0.1802
     34 O          -6.1980   -3.4860   -0.3727 O.2     1  LIG1       -0.4497
     35 C          -7.5227   -0.3310   -1.5184 C.1     1  LIG1       -0.0622
     36 C          -7.7808    0.7927   -1.8890 C.1     1  LIG1       -0.1137
     37 H          -7.9873    1.7782   -2.2372 H       1  LIG1        0.1232
     38 O          -9.4035   -2.7123   -1.6973 O.3     1  LIG1       -0.4901
     39 C         -10.3498   -1.9435   -0.9268 C.3     1  LIG1        0.0790
     40 H         -11.2589   -1.8968   -1.5287 H       1  LIG1        0.0660
     41 H         -10.5564   -2.4471    0.0233 H       1  LIG1        0.0660
     42 H          -9.9769   -0.9318   -0.7509 H       1  LIG1        0.0660
     43 C          -8.9794   -5.9594   -0.5593 C.ar    1  LIG1        0.0364
     44 C          -9.0396   -7.3355   -0.3165 C.ar    1  LIG1       -0.0262
     45 C          -7.7081   -5.3241   -0.5161 C.ar    1  LIG1        0.0451
     46 C          -7.9247   -8.1299   -0.0078 C.ar    1  LIG1        0.0605
     47 H         -10.0114   -7.8166   -0.3810 H       1  LIG1        0.0644
     48 C          -6.5842   -6.1262   -0.2316 C.ar    1  LIG1       -0.0069
     49 C          -6.6657   -7.4868    0.0267 C.ar    1  LIG1        0.1283
     50 H          -5.6084   -5.6519   -0.2057 H       1  LIG1        0.0662
     51 N         -10.1639   -5.2547   -0.7766 N.pl3   1  LIG1       -0.3574
     52 H         -10.0778   -4.4569   -1.3971 H       1  LIG1        0.1423
     53 H         -10.9462   -5.8479   -1.0186 H       1  LIG1        0.1423
     54 O          -5.5465   -8.2183    0.3267 O.3     1  LIG1       -0.5060
     55 H          -4.8019   -7.6077    0.4061 H       1  LIG1        0.2922
     56 C          -8.1231   -9.5420    0.2757 C.ar    1  LIG1        0.1429
     57 C          -9.2528  -10.2504    0.6318 C.ar    1  LIG1        0.0268
     58 C          -8.8477  -11.6065    0.7619 C.ar    1  LIG1        0.1663
     59 C          -7.4922  -11.6648    0.4851 C.ar    1  LIG1        0.1786
     60 O          -7.0675  -10.3946    0.1872 O.2     1  LIG1       -0.4509
     61 H         -10.2345   -9.8391    0.8070 H       1  LIG1        0.0692
     62 O          -9.5895  -12.6948    1.1021 O.3     1  LIG1       -0.4913
     63 C         -10.9543  -12.4510    1.4149 C.3     1  LIG1        0.0790
     64 H         -11.3862  -13.4184    1.6747 H       1  LIG1        0.0660
     65 H         -11.0529  -11.7691    2.2687 H       1  LIG1        0.0660
     66 H         -11.4933  -12.0331    0.5552 H       1  LIG1        0.0660
     67 C          -5.1513  -12.4392    0.1958 C.ar    1  LIG1        0.0392
     68 C          -6.5075  -12.7216    0.4638 C.ar    1  LIG1        0.0408
     69 C          -6.8471  -14.0652    0.6856 C.ar    1  LIG1       -0.0267
     70 C          -5.8654  -15.0563    0.6675 C.ar    1  LIG1        0.0530
     71 C          -4.5203  -14.6587    0.4420 C.ar    1  LIG1        0.1076
     72 N          -4.2065  -13.3708    0.1857 N.ar    1  LIG1       -0.2510
     73 H          -7.8824  -14.3382    0.8620 H       1  LIG1        0.0644
     74 H          -4.8400  -11.4187   -0.0065 H       1  LIG1        0.0837
     75 N          -6.1987  -16.3949    0.8901 N.pl3   1  LIG1       -0.3563
     76 H          -7.1845  -16.5900    0.7681 H       1  LIG1        0.1424
     77 H          -5.6272  -17.0492    0.3687 H       1  LIG1        0.1424
     78 C          -3.3929  -15.5833    0.4351 C.ar    1  LIG1        0.0673
     79 C          -3.1882  -16.8967    0.8741 C.ar    1  LIG1       -0.0342
     80 C          -1.8393  -17.2320    0.6255 C.ar    1  LIG1       -0.0326
     81 C          -1.2357  -16.1221    0.0369 C.ar    1  LIG1        0.0863
     82 N          -2.1920  -15.1441   -0.0685 N.ar    1  LIG1       -0.3504
     83 H          -2.0698  -14.1964   -0.3964 H       1  LIG1        0.1660
     84 H          -3.9089  -17.5121    1.3903 H       1  LIG1        0.0639
     85 H          -1.3382  -18.1599    0.8553 H       1  LIG1        0.0640
     86 C           0.1102  -15.9220   -0.4236 C.ar    1  LIG1        0.1935
     87 C           1.2168  -16.7331   -0.4895 C.ar    1  LIG1        0.1825
     88 C           2.2949  -15.9378   -1.0406 C.ar    1  LIG1        0.1047
     89 C           1.7499  -14.7000   -1.2655 C.ar    1  LIG1        0.1117
     90 O           0.4446  -14.6719   -0.8961 O.2     1  LIG1       -0.4564
     91 H           2.1600  -13.7853   -1.6625 H       1  LIG1        0.1043
     92 O           1.2628  -18.0186   -0.0453 O.3     1  LIG1       -0.4901
     93 C           1.5990  -18.9952   -1.0400 C.3     1  LIG1        0.0790
     94 H           1.5904  -19.9606   -0.5312 H       1  LIG1        0.0660
     95 H           0.8578  -18.9990   -1.8481 H       1  LIG1        0.0660
     96 H           2.5937  -18.8113   -1.4573 H       1  LIG1        0.0660
     97 C           3.6389  -16.3265   -1.2720 C.1     1  LIG1       -0.0628
     98 C           4.7850  -16.6609   -1.4710 C.1     1  LIG1       -0.1137
     99 H           5.7979  -16.9477   -1.6334 H       1  LIG1        0.1232
@<TRIPOS>BOND
     1    37    36    1
     2    36    35    3
     3    95    93    1
     4    29    28    1
     5    38    32    1
     6    38    39    1
     7    91    89    1
     8    99    98    1
     9    40    39    1
    10    35    31    1
    11    98    97    3
    12    96    93    1
    13    52    51    1
    14    28    27    3
    15    97    88    1
    16    89    88   ar
    17    89    90   ar
    18    32    31   ar
    19    32    33   ar
    20    31    30   ar
    21    88    87   ar
    22    93    94    1
    23    93    92    1
    24    53    51    1
    25    39    42    1
    26    39    41    1
    27    27    22    1
    28    90    86   ar
    29    51    43    1
    30    33    45    1
    31    33    34   ar
    32    30    34   ar
    33    30    19    1
    34    13    12    1
    35    43    45   ar
    36    43    44   ar
    37    45    48   ar
    38    87    86   ar
    39    87    92    1
    40    86    81    1
    41    83    82    1
    42    47    44    1
    43    11    12    1
    44    11     3    1
    45    22    19   ar
    46    22    21   ar
    47    44    46   ar
    48    10     8    1
    49    19    17   ar
    50    48    50    1
    51    48    49   ar
    52    23    21    1
    53    82    81   ar
    54    82    78   ar
    55    21    18   ar
    56    46    49   ar
    57    46    56    1
    58    74    67    1
    59    49    54    1
    60    81    80   ar
    61    12    15    1
    62    12    14    1
    63    72    67   ar
    64    72    71   ar
    65    17    20    1
    66    17    16   ar
    67    60    56   ar
    68    60    59   ar
    69    67    68   ar
    70    56    57   ar
    71    54    55    1
    72    77    75    1
    73     3     4   ar
    74     3     2   ar
    75    18    16   ar
    76    18     4    1
    77    78    71    1
    78    78    79   ar
    79    71    70   ar
    80    68    59    1
    81    68    69   ar
    82    59    58   ar
    83    16    24    1
    84    66    63    1
    85    80    85    1
    86    80    79   ar
    87    57    58   ar
    88    57    61    1
    89    70    69   ar
    90    70    75    1
    91     8     2    1
    92     8     9    1
    93    69    73    1
    94    58    62    1
    95     4     5   ar
    96    76    75    1
    97     2     1   ar
    98    79    84    1
    99    24    25    3
   100    62    63    1
   101     5     1   ar
   102     5     6    1
   103    63    64    1
   104    63    65    1
   105     1     7    1
   106    25    26    1
