@<TRIPOS>MOLECULE
mol_data/opt/b3lyp/geoms/mol2/13hl13hl-13hl-13hl.out
 58 61 0 0 0
SMALL
GASTEIGER

@<TRIPOS>ATOM
      1 C           1.3693   -0.9125   -0.8383 C.ar    1  LIG1        0.0267
      2 C           1.0009    0.1659   -1.6262 C.ar    1  LIG1        0.0851
      3 C          -0.4002    0.3424   -1.4400 C.ar    1  LIG1        0.1673
      4 C          -0.8515   -0.6331   -0.5575 C.ar    1  LIG1        0.1089
      5 N           0.2405   -1.3861   -0.2048 N.ar    1  LIG1       -0.3549
      6 H           0.1590   -2.1291    0.4792 H       1  LIG1        0.1655
      7 H           2.3363   -1.3679   -0.6869 H       1  LIG1        0.0827
      8 N           1.8134    1.0027   -2.4257 N.pl3   1  LIG1       -0.3540
      9 H           2.7354    0.6063   -2.5711 H       1  LIG1        0.1425
     10 H           1.3868    1.1609   -3.3341 H       1  LIG1        0.1425
     11 O          -1.2060    1.2852   -2.0535 O.3     1  LIG1       -0.4911
     12 C          -0.9470    2.6256   -1.6103 C.3     1  LIG1        0.0790
     13 H          -1.6058    3.2781   -2.1888 H       1  LIG1        0.0660
     14 H          -1.1685    2.7335   -0.5411 H       1  LIG1        0.0660
     15 H           0.0975    2.9023   -1.7878 H       1  LIG1        0.0660
     16 C          -2.1690   -0.9119   -0.0485 C.ar    1  LIG1        0.0916
     17 C          -2.6017   -1.8939    0.8372 C.ar    1  LIG1        0.0947
     18 C          -4.0017   -1.7074    1.0208 C.ar    1  LIG1        0.1679
     19 C          -4.4123   -0.6335    0.2333 C.ar    1  LIG1        0.1094
     20 N          -3.2665   -0.1675   -0.4011 N.ar    1  LIG1       -0.3473
     21 H          -3.2326    0.5536   -1.1069 H       1  LIG1        0.1662
     22 N          -1.7387   -2.8573    1.4581 N.pl3   1  LIG1       -0.3534
     23 H          -1.9340   -2.8929    2.4571 H       1  LIG1        0.1425
     24 H          -1.9401   -3.7923    1.1059 H       1  LIG1        0.1425
     25 O          -4.7515   -2.4033    1.9345 O.3     1  LIG1       -0.4911
     26 C          -5.4499   -3.5375    1.4139 C.3     1  LIG1        0.0790
     27 H          -5.9499   -4.0070    2.2648 H       1  LIG1        0.0660
     28 H          -6.1949   -3.2370    0.6689 H       1  LIG1        0.0660
     29 H          -4.7555   -4.2628    0.9655 H       1  LIG1        0.0660
     30 C          -5.7016    0.0213    0.0669 C.ar    1  LIG1        0.0917
     31 C          -6.8943   -0.4352   -0.4942 C.ar    1  LIG1        0.0947
     32 C          -7.8212    0.6369   -0.4294 C.ar    1  LIG1        0.1679
     33 C          -7.1941    1.7288    0.1662 C.ar    1  LIG1        0.1094
     34 N          -5.9105    1.3423    0.4405 N.ar    1  LIG1       -0.3473
     35 H          -5.2684    1.9538    0.9316 H       1  LIG1        0.1662
     36 N          -7.1592   -1.7236   -1.0034 N.pl3   1  LIG1       -0.3534
     37 H          -8.0707   -1.7639   -1.4444 H       1  LIG1        0.1425
     38 H          -6.4458   -2.0443   -1.6497 H       1  LIG1        0.1425
     39 O          -9.1292    0.6128   -0.8903 O.3     1  LIG1       -0.4911
     40 C          -9.2418    0.9377   -2.2816 C.3     1  LIG1        0.0790
     41 H         -10.3003    0.8544   -2.5413 H       1  LIG1        0.0660
     42 H          -8.8932    1.9587   -2.4794 H       1  LIG1        0.0660
     43 H          -8.6619    0.2431   -2.9017 H       1  LIG1        0.0660
     44 C          -7.7019    3.0273    0.5259 C.ar    1  LIG1        0.0912
     45 C          -7.0555    4.1124    1.1070 C.ar    1  LIG1        0.0940
     46 C          -8.0367    5.1334    1.2810 C.ar    1  LIG1        0.1585
     47 C          -9.2477    4.6572    0.8131 C.ar    1  LIG1        0.0463
     48 N          -9.0171    3.3766    0.3388 N.ar    1  LIG1       -0.3549
     49 H          -9.7160    2.7099    0.0487 H       1  LIG1        0.1655
     50 H         -10.2248    5.1086    0.7641 H       1  LIG1        0.0845
     51 N          -5.6671    4.1354    1.4584 N.pl3   1  LIG1       -0.3535
     52 H          -5.1772    4.8515    0.9241 H       1  LIG1        0.1425
     53 H          -5.5620    4.4031    2.4355 H       1  LIG1        0.1425
     54 O          -7.7200    6.3448    1.8248 O.3     1  LIG1       -0.4918
     55 C          -8.8049    7.2460    1.9620 C.3     1  LIG1        0.0789
     56 H          -8.4051    8.1552    2.4143 H       1  LIG1        0.0660
     57 H          -9.2467    7.4894    0.9857 H       1  LIG1        0.0660
     58 H          -9.5886    6.8303    2.6102 H       1  LIG1        0.0660
@<TRIPOS>BOND
     1    10     8    1
     2    43    40    1
     3     9     8    1
     4    41    40    1
     5    42    40    1
     6     8     2    1
     7    40    39    1
     8    13    12    1
     9    11    12    1
    10    11     3    1
    11    15    12    1
    12    38    36    1
    13     2     3   ar
    14     2     1   ar
    15    12    14    1
    16    37    36    1
    17     3     4   ar
    18    21    20    1
    19    36    31    1
    20    39    32    1
    21     1     7    1
    22     1     5   ar
    23     4     5   ar
    24     4    16    1
    25    31    32   ar
    26    31    30   ar
    27    32    33   ar
    28    20    16   ar
    29    20    19   ar
    30     5     6    1
    31    16    17   ar
    32    49    48    1
    33    30    19    1
    34    30    34   ar
    35    33    34   ar
    36    33    44    1
    37    19    18   ar
    38    48    44   ar
    39    48    47   ar
    40    34    35    1
    41    44    45   ar
    42    28    26    1
    43    50    47    1
    44    47    46   ar
    45    17    18   ar
    46    17    22    1
    47    52    51    1
    48    29    26    1
    49    57    55    1
    50    18    25    1
    51    24    22    1
    52    45    46   ar
    53    45    51    1
    54    46    54    1
    55    26    25    1
    56    26    27    1
    57    22    23    1
    58    51    53    1
    59    54    55    1
    60    55    56    1
    61    55    58    1
