@<TRIPOS>MOLECULE
mol_data/opt/b3lyp/geoms/mol2/13hl6ff-6ld4ie.out
 56 59 0 0 0
SMALL
GASTEIGER

@<TRIPOS>ATOM
      1 C           1.4836   -0.2531    0.1517 C.ar    1  LIG1        0.0267
      2 C           1.0841    1.0668    0.0991 C.ar    1  LIG1        0.0850
      3 C          -0.3495    1.0546    0.0545 C.ar    1  LIG1        0.1659
      4 C          -0.7825   -0.2671    0.0641 C.ar    1  LIG1        0.0958
      5 N           0.3660   -1.0596    0.1009 N.ar    1  LIG1       -0.3559
      6 H           0.3499   -2.0038    0.4601 H       1  LIG1        0.1655
      7 H           2.4762   -0.6735    0.2193 H       1  LIG1        0.0827
      8 N           1.9024    2.2212    0.1615 N.pl3   1  LIG1       -0.3540
      9 H           2.8633    1.9748    0.3751 H       1  LIG1        0.1425
     10 H           1.9042    2.7428   -0.7104 H       1  LIG1        0.1425
     11 O          -1.2124    2.1129    0.0544 O.3     1  LIG1       -0.4911
     12 C          -0.9351    3.1845   -0.8447 C.3     1  LIG1        0.0790
     13 H          -1.8282    3.8122   -0.8573 H       1  LIG1        0.0660
     14 H          -0.0851    3.7832   -0.5012 H       1  LIG1        0.0660
     15 H          -0.7450    2.8128   -1.8598 H       1  LIG1        0.0660
     16 C          -2.4174   -2.1152   -0.4840 C.ar    1  LIG1        0.2225
     17 C          -2.1300   -0.8262    0.0507 C.ar    1  LIG1        0.0667
     18 C          -3.2179   -0.1158    0.5649 C.ar    1  LIG1       -0.0037
     19 C          -4.4929   -0.6823    0.5610 C.ar    1  LIG1        0.1438
     20 C          -4.6529   -1.9760    0.0402 C.ar    1  LIG1        0.1212
     21 N          -3.6147   -2.6605   -0.4715 N.ar    1  LIG1       -0.2086
     22 H          -3.0777    0.8711    0.9876 H       1  LIG1        0.0663
     23 O          -1.4376   -2.8922   -1.0456 O.3     1  LIG1       -0.4919
     24 H          -0.7151   -2.3115   -1.3294 H       1  LIG1        0.2937
     25 O          -5.5138    0.0601    1.0893 O.3     1  LIG1       -0.5046
     26 H          -6.2976   -0.5011    1.1725 H       1  LIG1        0.2922
     27 C          -6.2302   -3.9193    0.5599 C.ar    1  LIG1        0.2246
     28 C          -5.9879   -2.6329   -0.0030 C.ar    1  LIG1        0.0668
     29 C          -7.0711   -2.0430   -0.6376 C.ar    1  LIG1       -0.0278
     30 C          -8.3216   -2.6940   -0.7050 C.ar    1  LIG1        0.0785
     31 C          -8.4498   -3.9624   -0.1052 C.ar    1  LIG1        0.0924
     32 N          -7.4004   -4.5447    0.4992 N.ar    1  LIG1       -0.2110
     33 H          -6.9508   -1.0794   -1.1231 H       1  LIG1        0.0639
     34 O          -5.2156   -4.5052    1.2037 O.3     1  LIG1       -0.4792
     35 C          -5.4367   -5.8123    1.7513 C.3     1  LIG1        0.0804
     36 H          -4.4886   -6.0889    2.2120 H       1  LIG1        0.0660
     37 H          -6.2373   -5.7955    2.4951 H       1  LIG1        0.0660
     38 H          -5.7019   -6.5236    0.9654 H       1  LIG1        0.0660
     39 N         -10.2343   -1.5445   -2.0255 N.1     1  LIG1       -0.1908
     40 C          -9.3870   -2.0772   -1.4307 C.1     1  LIG1        0.1013
     41 C         -10.9284   -4.3222    0.4071 C.ar    1  LIG1       -0.0412
     42 C         -12.0378   -5.1757    0.3117 C.ar    1  LIG1       -0.0571
     43 C          -9.7075   -4.7663   -0.1459 C.ar    1  LIG1        0.0058
     44 C         -11.9640   -6.4195   -0.3000 C.ar    1  LIG1       -0.0460
     45 H         -12.9822   -4.8517    0.7407 H       1  LIG1        0.0621
     46 C          -9.6230   -6.0345   -0.7330 C.ar    1  LIG1       -0.0369
     47 C         -10.7424   -6.8726   -0.8300 C.ar    1  LIG1        0.0253
     48 H          -8.6705   -6.3726   -1.1254 H       1  LIG1        0.0636
     49 H         -12.8412   -7.0549   -0.3615 H       1  LIG1        0.0630
     50 C         -11.0837   -2.9998    1.1210 C.3     1  LIG1       -0.0391
     51 H         -11.8641   -3.0699    1.8838 H       1  LIG1        0.0278
     52 H         -11.3712   -2.2036    0.4260 H       1  LIG1        0.0278
     53 H         -10.1594   -2.6874    1.6139 H       1  LIG1        0.0278
     54 C         -10.6404   -8.1574   -1.4476 C.1     1  LIG1       -0.0696
     55 C         -10.5571   -9.2462   -1.9693 C.1     1  LIG1       -0.1139
     56 H         -10.4829  -10.2028   -2.4320 H       1  LIG1        0.1232
@<TRIPOS>BOND
     1    56    55    1
     2    39    40    3
     3    55    54    3
     4    15    12    1
     5    54    47    1
     6    40    30    1
     7    24    23    1
     8    48    46    1
     9    33    29    1
    10    23    16    1
    11    13    12    1
    12    12    14    1
    13    12    11    1
    14    47    46   ar
    15    47    44   ar
    16    46    43   ar
    17    10     8    1
    18    30    29   ar
    19    30    31   ar
    20    29    28   ar
    21    16    21   ar
    22    16    17   ar
    23    21    20   ar
    24    49    44    1
    25    44    42   ar
    26    43    31    1
    27    43    41   ar
    28    31    32   ar
    29    28    20    1
    30    28    27   ar
    31    20    19   ar
    32    17     4    1
    33    17    18   ar
    34    11     3    1
    35     3     4   ar
    36     3     2   ar
    37     4     5   ar
    38     2     1   ar
    39     2     8    1
    40     5     1   ar
    41     5     6    1
    42     1     7    1
    43     8     9    1
    44    42    41   ar
    45    42    45    1
    46    41    50    1
    47    52    50    1
    48    32    27   ar
    49    27    34    1
    50    19    18   ar
    51    19    25    1
    52    18    22    1
    53    38    35    1
    54    25    26    1
    55    50    53    1
    56    50    51    1
    57    34    35    1
    58    35    36    1
    59    35    37    1
