@<TRIPOS>MOLECULE
mol_data/opt/b3lyp/geoms/mol2/13hl13hl-13hl13hl-.out
 58 61 0 0 0
SMALL
GASTEIGER

@<TRIPOS>ATOM
      1 C           1.4187   -0.3699    0.1662 C.ar    1  LIG1        0.0267
      2 C           1.0773    0.9523   -0.0658 C.ar    1  LIG1        0.0851
      3 C          -0.3415    0.9900   -0.1834 C.ar    1  LIG1        0.1673
      4 C          -0.8292   -0.3046   -0.0323 C.ar    1  LIG1        0.1089
      5 N           0.2590   -1.1163    0.1761 N.ar    1  LIG1       -0.3549
      6 H           0.1418   -2.1008    0.3812 H       1  LIG1        0.1655
      7 H           2.3855   -0.8252    0.3193 H       1  LIG1        0.0827
      8 N           1.9136    2.0904   -0.1235 N.pl3   1  LIG1       -0.3540
      9 H           2.8888    1.8383   -0.2411 H       1  LIG1        0.1425
     10 H           1.6442    2.6972   -0.8923 H       1  LIG1        0.1425
     11 O          -1.1185    2.1023   -0.4457 O.3     1  LIG1       -0.4911
     12 C          -1.1794    3.0257    0.6512 C.3     1  LIG1        0.0790
     13 H          -1.8105    3.8552    0.3236 H       1  LIG1        0.0660
     14 H          -1.6260    2.5540    1.5350 H       1  LIG1        0.0660
     15 H          -0.1811    3.3950    0.9096 H       1  LIG1        0.0660
     16 C          -2.1727   -0.8179   -0.0685 C.ar    1  LIG1        0.0916
     17 C          -2.6422   -2.1180    0.1158 C.ar    1  LIG1        0.0947
     18 C          -4.0600   -2.0614    0.0214 C.ar    1  LIG1        0.1679
     19 C          -4.4344   -0.7423   -0.2226 C.ar    1  LIG1        0.1094
     20 N          -3.2646   -0.0104   -0.2848 N.ar    1  LIG1       -0.3473
     21 H          -3.2218    0.9935   -0.4074 H       1  LIG1        0.1662
     22 N          -1.7994   -3.2498    0.3715 N.pl3   1  LIG1       -0.3534
     23 H          -2.1867   -3.8058    1.1311 H       1  LIG1        0.1425
     24 H          -1.7599   -3.8654   -0.4398 H       1  LIG1        0.1425
     25 O          -4.9402   -3.1105    0.1999 O.3     1  LIG1       -0.4911
     26 C          -5.1000   -3.9379   -0.9543 C.3     1  LIG1        0.0790
     27 H          -5.8406   -4.6982   -0.6954 H       1  LIG1        0.0660
     28 H          -5.4571   -3.3574   -1.8135 H       1  LIG1        0.0660
     29 H          -4.1584   -4.4315   -1.2285 H       1  LIG1        0.0660
     30 C          -5.7313   -0.1396   -0.3640 C.ar    1  LIG1        0.0917
     31 C          -6.0779    1.1606   -0.7413 C.ar    1  LIG1        0.0947
     32 C          -7.4912    1.2438   -0.6713 C.ar    1  LIG1        0.1679
     33 C          -7.9888    0.0043   -0.2709 C.ar    1  LIG1        0.1094
     34 N          -6.9025   -0.8200   -0.1036 N.ar    1  LIG1       -0.3473
     35 H          -6.9815   -1.7794    0.2153 H       1  LIG1        0.1662
     36 N          -5.1610    2.1826   -1.1154 N.pl3   1  LIG1       -0.3534
     37 H          -4.7376    1.9770   -2.0190 H       1  LIG1        0.1425
     38 H          -5.6558    3.0634   -1.2228 H       1  LIG1        0.1425
     39 O          -8.2533    2.3632   -0.9621 O.3     1  LIG1       -0.4911
     40 C          -8.4677    3.2132    0.1730 C.3     1  LIG1        0.0790
     41 H          -9.0334    4.0780   -0.1833 H       1  LIG1        0.0660
     42 H          -9.0392    2.6950    0.9525 H       1  LIG1        0.0660
     43 H          -7.5170    3.5518    0.6021 H       1  LIG1        0.0660
     44 C          -9.3417   -0.4552   -0.1049 C.ar    1  LIG1        0.0912
     45 C          -9.8264   -1.6785    0.3453 C.ar    1  LIG1        0.0940
     46 C         -11.2492   -1.6140    0.2669 C.ar    1  LIG1        0.1585
     47 C         -11.6034   -0.3716   -0.2253 C.ar    1  LIG1        0.0463
     48 N         -10.4256    0.3306   -0.4213 N.ar    1  LIG1       -0.3549
     49 H         -10.3294    1.2144   -0.8972 H       1  LIG1        0.1655
     50 H         -12.5642    0.0712   -0.4300 H       1  LIG1        0.0845
     51 N          -9.0070   -2.7640    0.7876 N.pl3   1  LIG1       -0.3535
     52 H          -9.0375   -2.8490    1.8029 H       1  LIG1        0.1425
     53 H          -9.3739   -3.6412    0.4249 H       1  LIG1        0.1425
     54 O         -12.0333   -2.6670    0.6431 O.3     1  LIG1       -0.4918
     55 C         -13.4253   -2.4774    0.4596 C.3     1  LIG1        0.0789
     56 H         -13.9153   -3.3967    0.7850 H       1  LIG1        0.0660
     57 H         -13.7960   -1.6359    1.0613 H       1  LIG1        0.0660
     58 H         -13.6659   -2.2891   -0.5959 H       1  LIG1        0.0660
@<TRIPOS>BOND
     1    37    36    1
     2    28    26    1
     3    29    26    1
     4    38    36    1
     5    36    31    1
     6    39    32    1
     7    39    40    1
     8    26    27    1
     9    26    25    1
    10    49    48    1
    11    10     8    1
    12    31    32   ar
    13    31    30   ar
    14    32    33   ar
    15    58    55    1
    16    11     3    1
    17    11    12    1
    18    24    22    1
    19    50    47    1
    20    48    47   ar
    21    48    44   ar
    22    21    20    1
    23    30    19    1
    24    30    34   ar
    25    20    19   ar
    26    20    16   ar
    27    33    44    1
    28    33    34   ar
    29     9     8    1
    30    47    46   ar
    31    19    18   ar
    32     3     2   ar
    33     3     4   ar
    34    41    40    1
    35     8     2    1
    36    44    45   ar
    37    34    35    1
    38    16     4    1
    39    16    17   ar
    40     2     1   ar
    41     4     5   ar
    42    18    17   ar
    43    18    25    1
    44    17    22    1
    45     1     5   ar
    46     1     7    1
    47    40    43    1
    48    40    42    1
    49     5     6    1
    50    46    45   ar
    51    46    54    1
    52    13    12    1
    53    45    51    1
    54    22    23    1
    55    53    51    1
    56    55    54    1
    57    55    56    1
    58    55    57    1
    59    12    15    1
    60    12    14    1
    61    51    52    1
