@<TRIPOS>MOLECULE
mol_data/opt/b3lyp/geoms/mol2/13hl13hl13hl13hl-.out
 58 61 0 0 0
SMALL
GASTEIGER

@<TRIPOS>ATOM
      1 C           1.4094   -0.3652   -0.2723 C.ar    1  LIG1        0.0267
      2 C           1.1585    0.9673   -0.5096 C.ar    1  LIG1        0.0851
      3 C          -0.2629    1.1262   -0.5366 C.ar    1  LIG1        0.1673
      4 C          -0.8561   -0.1162   -0.3362 C.ar    1  LIG1        0.1089
      5 N           0.1859   -1.0237   -0.2114 N.ar    1  LIG1       -0.3549
      6 H           0.0575   -1.9003    0.2700 H       1  LIG1        0.1655
      7 H           2.3412   -0.9016   -0.1785 H       1  LIG1        0.0827
      8 N           2.0682    2.0316   -0.6769 N.pl3   1  LIG1       -0.3540
      9 H           3.0072    1.7056   -0.8757 H       1  LIG1        0.1425
     10 H           1.7709    2.6484   -1.4271 H       1  LIG1        0.1425
     11 O          -0.9089    2.3194   -0.8074 O.3     1  LIG1       -0.4911
     12 C          -0.7784    3.2839    0.2546 C.3     1  LIG1        0.0790
     13 H          -1.2216    4.2119   -0.1156 H       1  LIG1        0.0660
     14 H          -1.3201    2.9473    1.1458 H       1  LIG1        0.0660
     15 H           0.2743    3.4509    0.5025 H       1  LIG1        0.0660
     16 C          -2.2253   -0.5641   -0.2995 C.ar    1  LIG1        0.0916
     17 C          -3.4289    0.1102   -0.1514 C.ar    1  LIG1        0.0947
     18 C          -4.4608   -0.8758   -0.1394 C.ar    1  LIG1        0.1679
     19 C          -3.8981   -2.1349   -0.2858 C.ar    1  LIG1        0.1094
     20 N          -2.5188   -1.9428   -0.3349 N.ar    1  LIG1       -0.3473
     21 H          -1.9675   -2.5478   -0.9296 H       1  LIG1        0.1662
     22 N          -3.6482    1.4751    0.0474 N.pl3   1  LIG1       -0.3534
     23 H          -2.9610    2.0382   -0.4442 H       1  LIG1        0.1425
     24 H          -4.5928    1.7328   -0.2157 H       1  LIG1        0.1425
     25 O          -5.7999   -0.5718    0.0157 O.3     1  LIG1       -0.4911
     26 C          -6.2342   -0.5693    1.3853 C.3     1  LIG1        0.0790
     27 H          -7.2898   -0.2889    1.3777 H       1  LIG1        0.0660
     28 H          -6.1225   -1.5641    1.8298 H       1  LIG1        0.0660
     29 H          -5.6611    0.1586    1.9705 H       1  LIG1        0.0660
     30 C          -4.4670   -3.4533   -0.3822 C.ar    1  LIG1        0.0917
     31 C          -5.7488   -3.8898   -0.7467 C.ar    1  LIG1        0.0947
     32 C          -5.7109   -5.3110   -0.7363 C.ar    1  LIG1        0.1679
     33 C          -4.4293   -5.7211   -0.3859 C.ar    1  LIG1        0.1094
     34 N          -3.6850   -4.5842   -0.1879 N.ar    1  LIG1       -0.3473
     35 H          -2.7695   -4.6381    0.2445 H       1  LIG1        0.1662
     36 N          -6.8874   -3.1230   -1.0459 N.pl3   1  LIG1       -0.3534
     37 H          -6.7070   -2.1246   -0.9977 H       1  LIG1        0.1425
     38 H          -7.3004   -3.3776   -1.9369 H       1  LIG1        0.1425
     39 O          -6.7349   -6.1745   -1.0753 O.3     1  LIG1       -0.4911
     40 C          -7.8552   -6.1124   -0.1788 C.3     1  LIG1        0.0790
     41 H          -8.6102   -6.7938   -0.5782 H       1  LIG1        0.0660
     42 H          -7.5658   -6.4343    0.8294 H       1  LIG1        0.0660
     43 H          -8.2584   -5.0963   -0.1299 H       1  LIG1        0.0660
     44 C          -3.8754   -7.0356   -0.2093 C.ar    1  LIG1        0.0912
     45 C          -2.6219   -7.4246    0.2548 C.ar    1  LIG1        0.0940
     46 C          -2.6002   -8.8497    0.2401 C.ar    1  LIG1        0.1585
     47 C          -3.8224   -9.2984   -0.2287 C.ar    1  LIG1        0.0463
     48 N          -4.5852   -8.1750   -0.4923 N.ar    1  LIG1       -0.3549
     49 H          -5.5166   -8.1475   -0.8784 H       1  LIG1        0.1655
     50 H          -4.2052  -10.2919   -0.3941 H       1  LIG1        0.0845
     51 N          -1.5900   -6.5184    0.6683 N.pl3   1  LIG1       -0.3535
     52 H          -1.3338   -6.7031    1.6374 H       1  LIG1        0.1425
     53 H          -0.7432   -6.6894    0.1277 H       1  LIG1        0.1425
     54 O          -1.5025   -9.5533    0.6465 O.3     1  LIG1       -0.4918
     55 C          -1.6303  -10.9628    0.5761 C.3     1  LIG1        0.0789
     56 H          -0.6874  -11.3836    0.9295 H       1  LIG1        0.0660
     57 H          -2.4506  -11.3207    1.2135 H       1  LIG1        0.0660
     58 H          -1.8138  -11.2955   -0.4549 H       1  LIG1        0.0660
@<TRIPOS>BOND
     1    38    36    1
     2    10     8    1
     3    39    32    1
     4    39    40    1
     5    36    37    1
     6    36    31    1
     7    21    20    1
     8    49    48    1
     9     9     8    1
    10    11     3    1
    11    11    12    1
    12    31    32   ar
    13    31    30   ar
    14    32    33   ar
    15     8     2    1
    16    41    40    1
    17     3     2   ar
    18     3     4   ar
    19     2     1   ar
    20    48    47   ar
    21    48    44   ar
    22    58    55    1
    23    23    22    1
    24    50    47    1
    25    33    44    1
    26    33    34   ar
    27    30    19    1
    28    30    34   ar
    29     4    16    1
    30     4     5   ar
    31    20    16   ar
    32    20    19   ar
    33    16    17   ar
    34    19    18   ar
    35     1     5   ar
    36     1     7    1
    37    47    46   ar
    38    24    22    1
    39     5     6    1
    40    44    45   ar
    41    34    35    1
    42    40    43    1
    43    40    42    1
    44    17    18   ar
    45    17    22    1
    46    18    25    1
    47    13    12    1
    48    25    26    1
    49    53    51    1
    50    46    45   ar
    51    46    54    1
    52    12    15    1
    53    12    14    1
    54    45    51    1
    55    55    54    1
    56    55    56    1
    57    55    57    1
    58    51    52    1
    59    27    26    1
    60    26    28    1
    61    26    29    1
