@<TRIPOS>MOLECULE
mol_data/opt/b3lyp/geoms/mol2/13hl13hl13hl.out
 44 46 0 0 0
SMALL
GASTEIGER

@<TRIPOS>ATOM
      1 C           1.2214   -0.4395    0.7996 C.ar    1  LIG1        0.0267
      2 C           1.1365    0.8119    0.2375 C.ar    1  LIG1        0.0851
      3 C          -0.2114    0.9734   -0.2219 C.ar    1  LIG1        0.1673
      4 C          -0.9180   -0.1919    0.0444 C.ar    1  LIG1        0.1089
      5 N          -0.0133   -1.0678    0.6388 N.ar    1  LIG1       -0.3549
      6 H          -0.3359   -1.7619    1.2970 H       1  LIG1        0.1655
      7 H           2.0530   -0.9507    1.2602 H       1  LIG1        0.0827
      8 N           2.1263    1.8068    0.1158 N.pl3   1  LIG1       -0.3540
      9 H           3.0598    1.4419    0.2664 H       1  LIG1        0.1425
     10 H           2.0895    2.2492   -0.7976 H       1  LIG1        0.1425
     11 O          -0.6743    2.0851   -0.9012 O.3     1  LIG1       -0.4911
     12 C          -0.7522    3.2614   -0.0720 C.3     1  LIG1        0.0790
     13 H          -1.0153    4.0884   -0.7361 H       1  LIG1        0.0660
     14 H          -1.5292    3.1402    0.6913 H       1  LIG1        0.0660
     15 H           0.2092    3.4645    0.4090 H       1  LIG1        0.0660
     16 C          -2.2710   -0.6107   -0.2301 C.ar    1  LIG1        0.0916
     17 C          -3.4404    0.0956   -0.5000 C.ar    1  LIG1        0.0947
     18 C          -4.4952   -0.8532   -0.5898 C.ar    1  LIG1        0.1679
     19 C          -3.9771   -2.1363   -0.4075 C.ar    1  LIG1        0.1094
     20 N          -2.6279   -1.9586   -0.1698 N.ar    1  LIG1       -0.3473
     21 H          -1.9600   -2.7075   -0.1054 H       1  LIG1        0.1662
     22 N          -3.6051    1.4841   -0.6196 N.pl3   1  LIG1       -0.3534
     23 H          -2.7597    1.9139   -0.9844 H       1  LIG1        0.1425
     24 H          -4.3888    1.6952   -1.2292 H       1  LIG1        0.1425
     25 O          -5.8114   -0.5159   -0.8502 O.3     1  LIG1       -0.4911
     26 C          -6.4571    0.1295    0.2646 C.3     1  LIG1        0.0790
     27 H          -7.4353    0.4600   -0.0939 H       1  LIG1        0.0660
     28 H          -6.5879   -0.5764    1.0924 H       1  LIG1        0.0660
     29 H          -5.8783    0.9938    0.6052 H       1  LIG1        0.0660
     30 C          -4.5604   -3.4541   -0.4950 C.ar    1  LIG1        0.0912
     31 C          -5.8748   -3.8967   -0.4112 C.ar    1  LIG1        0.0940
     32 C          -5.8427   -5.3247   -0.5087 C.ar    1  LIG1        0.1585
     33 C          -4.5372   -5.7261   -0.6571 C.ar    1  LIG1        0.0463
     34 N          -3.7456   -4.5945   -0.6041 N.ar    1  LIG1       -0.3549
     35 H          -2.8718   -4.5584   -1.1088 H       1  LIG1        0.1655
     36 H          -4.1198   -6.7106   -0.8009 H       1  LIG1        0.0845
     37 N          -7.0409   -3.1538   -0.1966 N.pl3   1  LIG1       -0.3535
     38 H          -6.9809   -2.2392   -0.6338 H       1  LIG1        0.1425
     39 H          -7.8513   -3.6611   -0.5357 H       1  LIG1        0.1425
     40 O          -6.9591   -6.1251   -0.4678 O.3     1  LIG1       -0.4918
     41 C          -7.4162   -6.4057    0.8587 C.3     1  LIG1        0.0789
     42 H          -8.3192   -7.0123    0.7571 H       1  LIG1        0.0660
     43 H          -6.6617   -6.9671    1.4242 H       1  LIG1        0.0660
     44 H          -7.6534   -5.4838    1.4037 H       1  LIG1        0.0660
@<TRIPOS>BOND
     1    24    22    1
     2    35    34    1
     3    23    22    1
     4    11     3    1
     5    11    12    1
     6    25    18    1
     7    25    26    1
     8    36    33    1
     9    10     8    1
    10    13    12    1
    11    33    34   ar
    12    33    32   ar
    13    38    37    1
    14    22    17    1
    15    34    30   ar
    16    18    17   ar
    17    18    19   ar
    18    39    37    1
    19    32    40    1
    20    32    31   ar
    21    17    16   ar
    22    30    31   ar
    23    30    19    1
    24    40    41    1
    25    31    37    1
    26    19    20   ar
    27    16    20   ar
    28    16     4    1
    29     3     4   ar
    30     3     2   ar
    31    20    21    1
    32    27    26    1
    33    12    15    1
    34    12    14    1
    35     4     5   ar
    36     8     2    1
    37     8     9    1
    38     2     1   ar
    39    26    29    1
    40    26    28    1
    41     5     1   ar
    42     5     6    1
    43    42    41    1
    44     1     7    1
    45    41    44    1
    46    41    43    1
