@<TRIPOS>MOLECULE
mol_data/opt/b3lyp/geoms/mol2/13hl13hl-13hl.out
 44 46 0 0 0
SMALL
GASTEIGER

@<TRIPOS>ATOM
      1 C           1.3838   -0.7475   -0.3159 C.ar    1  LIG1        0.0267
      2 C           1.1670    0.5955   -0.5756 C.ar    1  LIG1        0.0851
      3 C          -0.2399    0.8014   -0.5006 C.ar    1  LIG1        0.1673
      4 C          -0.8474   -0.4160   -0.2080 C.ar    1  LIG1        0.1089
      5 N           0.1592   -1.3453   -0.1047 N.ar    1  LIG1       -0.3549
      6 H          -0.0389   -2.2987    0.1725 H       1  LIG1        0.1655
      7 H           2.3033   -1.3114   -0.2711 H       1  LIG1        0.0827
      8 N           2.1096    1.6207   -0.8141 N.pl3   1  LIG1       -0.3540
      9 H           3.0153    1.2501   -1.0797 H       1  LIG1        0.1425
     10 H           1.7866    2.2407   -1.5509 H       1  LIG1        0.1425
     11 O          -0.9059    1.9902   -0.7237 O.3     1  LIG1       -0.4911
     12 C          -0.7293    2.9475    0.3296 C.3     1  LIG1        0.0790
     13 H          -1.2847    3.8407    0.0336 H       1  LIG1        0.0660
     14 H          -1.1292    2.5657    1.2769 H       1  LIG1        0.0660
     15 H           0.3294    3.1957    0.4632 H       1  LIG1        0.0660
     16 C          -2.2321   -0.7670   -0.0278 C.ar    1  LIG1        0.0916
     17 C          -2.8067   -2.0031    0.2777 C.ar    1  LIG1        0.0947
     18 C          -4.2090   -1.7881    0.3775 C.ar    1  LIG1        0.1679
     19 C          -4.4653   -0.4430    0.1331 C.ar    1  LIG1        0.1094
     20 N          -3.2479    0.1524   -0.1139 N.ar    1  LIG1       -0.3473
     21 H          -3.1546    1.1334   -0.3568 H       1  LIG1        0.1662
     22 N          -2.0601   -3.2118    0.4707 N.pl3   1  LIG1       -0.3534
     23 H          -2.3943   -3.7047    1.2959 H       1  LIG1        0.1425
     24 H          -2.1778   -3.8496   -0.3153 H       1  LIG1        0.1425
     25 O          -5.1767   -2.7205    0.7118 O.3     1  LIG1       -0.4911
     26 C          -5.4779   -3.6398   -0.3412 C.3     1  LIG1        0.0790
     27 H          -6.2630   -4.3021    0.0321 H       1  LIG1        0.0660
     28 H          -5.8323   -3.1152   -1.2369 H       1  LIG1        0.0660
     29 H          -4.6021   -4.2435   -0.6092 H       1  LIG1        0.0660
     30 C          -5.6986    0.2991    0.1445 C.ar    1  LIG1        0.0912
     31 C          -5.9447    1.6359   -0.1511 C.ar    1  LIG1        0.0940
     32 C          -7.3414    1.8514    0.0428 C.ar    1  LIG1        0.1585
     33 C          -7.9137    0.6604    0.4505 C.ar    1  LIG1        0.0463
     34 N          -6.8965   -0.2779    0.4896 N.ar    1  LIG1       -0.3549
     35 H          -6.9605   -1.2228    0.8351 H       1  LIG1        0.1655
     36 H          -8.9294    0.4013    0.7001 H       1  LIG1        0.0845
     37 N          -4.9444    2.5728   -0.5625 N.pl3   1  LIG1       -0.3535
     38 H          -5.0895    2.8504   -1.5321 H       1  LIG1        0.1425
     39 H          -5.0240    3.4276   -0.0154 H       1  LIG1        0.1425
     40 O          -7.9132    3.0736   -0.1688 O.3     1  LIG1       -0.4918
     41 C          -9.3031    3.1413    0.0959 C.3     1  LIG1        0.0789
     42 H          -9.6143    4.1676   -0.1067 H       1  LIG1        0.0660
     43 H          -9.8664    2.4558   -0.5526 H       1  LIG1        0.0660
     44 H          -9.5218    2.8940    1.1441 H       1  LIG1        0.0660
@<TRIPOS>BOND
     1    10     8    1
     2    38    37    1
     3    28    26    1
     4     9     8    1
     5     8     2    1
     6    11     3    1
     7    11    12    1
     8    29    26    1
     9     2     3   ar
    10     2     1   ar
    11    37    31    1
    12    37    39    1
    13    43    41    1
    14     3     4   ar
    15    21    20    1
    16    26    27    1
    17    26    25    1
    18     1     7    1
    19     1     5   ar
    20    24    22    1
    21     4     5   ar
    22     4    16    1
    23    40    32    1
    24    40    41    1
    25    31    32   ar
    26    31    30   ar
    27    20    16   ar
    28    20    19   ar
    29    42    41    1
    30     5     6    1
    31    16    17   ar
    32    13    12    1
    33    32    33   ar
    34    41    44    1
    35    19    30    1
    36    19    18   ar
    37    30    34   ar
    38    17    18   ar
    39    17    22    1
    40    12    15    1
    41    12    14    1
    42    18    25    1
    43    33    34   ar
    44    33    36    1
    45    22    23    1
    46    34    35    1
