@<TRIPOS>MOLECULE
mol_data/opt/b3lyp/geoms/mol2/13hl13hl.out
 30 31 0 0 0
SMALL
GASTEIGER

@<TRIPOS>ATOM
      1 C           1.2646   -0.4300    0.4715 C.ar    1  LIG1        0.0267
      2 C           1.1062    0.8371   -0.0402 C.ar    1  LIG1        0.0851
      3 C          -0.2791    0.9823   -0.3734 C.ar    1  LIG1        0.1673
      4 C          -0.9359   -0.2058   -0.0803 C.ar    1  LIG1        0.1089
      5 N           0.0330   -1.0742    0.4042 N.ar    1  LIG1       -0.3549
      6 H          -0.2141   -1.8348    1.0187 H       1  LIG1        0.1655
      7 H           2.1433   -0.9368    0.8404 H       1  LIG1        0.0827
      8 N           2.0626    1.8581   -0.2118 N.pl3   1  LIG1       -0.3540
      9 H           3.0123    1.5085   -0.1562 H       1  LIG1        0.1425
     10 H           1.9379    2.3280   -1.1036 H       1  LIG1        0.1425
     11 O          -0.8227    2.1035   -0.9726 O.3     1  LIG1       -0.4911
     12 C          -0.8601    3.2482   -0.0984 C.3     1  LIG1        0.0790
     13 H          -1.1887    4.0919   -0.7105 H       1  LIG1        0.0660
     14 H          -1.5746    3.0839    0.7161 H       1  LIG1        0.0660
     15 H           0.1312    3.4563    0.3155 H       1  LIG1        0.0660
     16 C          -2.3033   -0.6457   -0.2375 C.ar    1  LIG1        0.0912
     17 C          -3.4959    0.0458   -0.4057 C.ar    1  LIG1        0.0940
     18 C          -4.5410   -0.9308   -0.4479 C.ar    1  LIG1        0.1585
     19 C          -3.9813   -2.1803   -0.3160 C.ar    1  LIG1        0.0463
     20 N          -2.6232   -2.0078   -0.1461 N.ar    1  LIG1       -0.3549
     21 H          -1.9564   -2.7162   -0.4143 H       1  LIG1        0.1655
     22 H          -4.4384   -3.1573   -0.3364 H       1  LIG1        0.0845
     23 N          -3.7062    1.4296   -0.4586 N.pl3   1  LIG1       -0.3535
     24 H          -2.9280    1.9000   -0.9111 H       1  LIG1        0.1425
     25 H          -4.5746    1.6366   -0.9407 H       1  LIG1        0.1425
     26 O          -5.8732   -0.6307   -0.6082 O.3     1  LIG1       -0.4918
     27 C          -6.5212   -0.2382    0.6053 C.3     1  LIG1        0.0789
     28 H          -7.5540    0.0054    0.3449 H       1  LIG1        0.0660
     29 H          -6.5132   -1.0554    1.3378 H       1  LIG1        0.0660
     30 H          -6.0386    0.6405    1.0507 H       1  LIG1        0.0660
@<TRIPOS>BOND
     1    10     8    1
     2    11     3    1
     3    11    12    1
     4    25    23    1
     5    24    23    1
     6    13    12    1
     7    26    18    1
     8    26    27    1
     9    23    17    1
    10    18    17   ar
    11    18    19   ar
    12    21    20    1
    13    17    16   ar
    14     3     4   ar
    15     3     2   ar
    16    22    19    1
    17    19    20   ar
    18    16    20   ar
    19    16     4    1
    20     8     9    1
    21     8     2    1
    22    12    15    1
    23    12    14    1
    24     4     5   ar
    25     2     1   ar
    26    28    27    1
    27     5     1   ar
    28     5     6    1
    29     1     7    1
    30    27    30    1
    31    27    29    1
