@<TRIPOS>MOLECULE
mol_data/opt/b3lyp/geoms/mol2/13hl6ii4ee12he-.out
 56 59 0 0 0
SMALL
GASTEIGER

@<TRIPOS>ATOM
      1 C           1.0374    0.4852   -1.7437 C.ar    1  LIG1        0.0267
      2 C           0.9032    1.3758   -0.6960 C.ar    1  LIG1        0.0850
      3 C          -0.3506    1.0954   -0.0843 C.ar    1  LIG1        0.1658
      4 C          -0.9609    0.0339   -0.7550 C.ar    1  LIG1        0.0923
      5 N          -0.0754   -0.3315   -1.7504 N.ar    1  LIG1       -0.3560
      6 H          -0.3021   -0.9662   -2.4964 H       1  LIG1        0.1655
      7 H           1.8336    0.3548   -2.4607 H       1  LIG1        0.0827
      8 N           1.8124    2.3355   -0.2158 N.pl3   1  LIG1       -0.3540
      9 H           2.4596    2.6553   -0.9268 H       1  LIG1        0.1425
     10 H           1.3203    3.1331    0.1735 H       1  LIG1        0.1425
     11 O          -0.8514    1.7941    0.9911 O.3     1  LIG1       -0.4911
     12 C          -0.3208    1.3633    2.2519 C.3     1  LIG1        0.0790
     13 H          -0.7561    2.0151    3.0129 H       1  LIG1        0.0660
     14 H          -0.5992    0.3232    2.4590 H       1  LIG1        0.0660
     15 H           0.7713    1.4540    2.2699 H       1  LIG1        0.0660
     16 C          -2.5869   -1.9301   -0.8654 C.ar    1  LIG1        0.0481
     17 C          -2.2698   -0.5860   -0.5442 C.ar    1  LIG1        0.0232
     18 C          -3.2931    0.1763    0.0449 C.ar    1  LIG1       -0.0459
     19 C          -4.5679   -0.3399    0.2636 C.ar    1  LIG1       -0.0238
     20 C          -4.7893   -1.6686   -0.1522 C.ar    1  LIG1        0.0754
     21 N          -3.8122   -2.4297   -0.6667 N.ar    1  LIG1       -0.2509
     22 H          -3.0702    1.1929    0.3505 H       1  LIG1        0.0628
     23 C          -1.5893   -2.9195   -1.4255 C.3     1  LIG1       -0.0217
     24 H          -0.6009   -2.8139   -0.9699 H       1  LIG1        0.0293
     25 H          -1.4716   -2.8133   -2.5136 H       1  LIG1        0.0293
     26 H          -1.9667   -3.9279   -1.2491 H       1  LIG1        0.0293
     27 C          -5.6228    0.4990    0.9430 C.3     1  LIG1       -0.0377
     28 H          -6.1867   -0.0845    1.6769 H       1  LIG1        0.0278
     29 H          -6.3448    0.8948    0.2219 H       1  LIG1        0.0278
     30 H          -5.1637    1.3458    1.4605 H       1  LIG1        0.0278
     31 C          -7.2867   -1.9637   -0.6395 C.ar    1  LIG1        0.0346
     32 C          -8.4763   -2.6762   -0.4183 C.ar    1  LIG1       -0.0338
     33 C          -6.1009   -2.3658    0.0208 C.ar    1  LIG1        0.0172
     34 C          -8.5387   -3.8011    0.4163 C.ar    1  LIG1        0.0357
     35 H          -9.3819   -2.3227   -0.8986 H       1  LIG1        0.0637
     36 C          -6.1569   -3.4968    0.8350 C.ar    1  LIG1       -0.0353
     37 C          -7.3367   -4.2281    1.0501 C.ar    1  LIG1        0.0361
     38 H          -5.2452   -3.8372    1.3127 H       1  LIG1        0.0637
     39 C          -7.3123   -0.8712   -1.5616 C.1     1  LIG1       -0.0690
     40 C          -7.3741    0.0346   -2.3626 C.1     1  LIG1       -0.1139
     41 H          -7.4131    0.8324   -3.0676 H       1  LIG1        0.1232
     42 C          -7.2559   -5.3942    1.8706 C.1     1  LIG1       -0.0689
     43 C          -7.1057   -6.3792    2.5576 C.1     1  LIG1       -0.1139
     44 H          -7.0008   -7.2481    3.1646 H       1  LIG1        0.1232
     45 C          -9.8159   -4.4811    0.5666 C.ar    1  LIG1        0.1578
     46 C         -10.8936   -4.6237   -0.2829 C.ar    1  LIG1        0.0866
     47 C         -11.8883   -5.3844    0.4396 C.ar    1  LIG1        0.0836
     48 C         -11.3370   -5.6395    1.6702 C.ar    1  LIG1        0.1098
     49 O         -10.1048   -5.1140    1.7638 O.2     1  LIG1       -0.4597
     50 H         -11.7080   -6.1690    2.5336 H       1  LIG1        0.1043
     51 N         -11.0696   -4.1322   -1.5708 N.pl3   1  LIG1       -0.3541
     52 H         -10.2170   -4.0576   -2.1120 H       1  LIG1        0.1425
     53 H         -11.7954   -4.6213   -2.0811 H       1  LIG1        0.1425
     54 C         -13.1511   -5.7822   -0.0641 C.1     1  LIG1       -0.0646
     55 C         -14.2148   -6.1058   -0.5442 C.1     1  LIG1       -0.1138
     56 H         -15.1602   -6.3934   -0.9420 H       1  LIG1        0.1232
@<TRIPOS>BOND
     1    41    40    1
     2    25    23    1
     3     6     5    1
     4     7     1    1
     5    40    39    3
     6    52    51    1
     7    53    51    1
     8     5     1   ar
     9     5     4   ar
    10     1     2   ar
    11    51    46    1
    12    39    31    1
    13    23    26    1
    14    23    24    1
    15    23    16    1
    16    56    55    1
    17     9     8    1
    18    35    32    1
    19    16    21   ar
    20    16    17   ar
    21     4    17    1
    22     4     3   ar
    23     2     8    1
    24     2     3   ar
    25    21    20   ar
    26    31    32   ar
    27    31    33   ar
    28    17    18   ar
    29    55    54    3
    30    32    34   ar
    31    46    47   ar
    32    46    45   ar
    33     8    10    1
    34    20    33    1
    35    20    19   ar
    36     3    11    1
    37    54    47    1
    38    33    36   ar
    39    18    19   ar
    40    18    22    1
    41    29    27    1
    42    19    27    1
    43    34    45    1
    44    34    37   ar
    45    47    48   ar
    46    45    49   ar
    47    36    37   ar
    48    36    38    1
    49    27    30    1
    50    27    28    1
    51    11    12    1
    52    37    42    1
    53    48    49   ar
    54    48    50    1
    55    42    43    3
    56    12    15    1
    57    12    14    1
    58    12    13    1
    59    43    44    1
