@<TRIPOS>MOLECULE
mol_data/opt/b3lyp/geoms/mol2/13hl13hl13hl-13hl-.out
 58 61 0 0 0
SMALL
GASTEIGER

@<TRIPOS>ATOM
      1 C           1.2966   -0.2212    0.7329 C.ar    1  LIG1        0.0267
      2 C           1.0752    0.9996    0.1362 C.ar    1  LIG1        0.0851
      3 C          -0.3121    1.0495   -0.2091 C.ar    1  LIG1        0.1673
      4 C          -0.9099   -0.1488    0.1671 C.ar    1  LIG1        0.1089
      5 N           0.1001   -0.9268    0.7129 N.ar    1  LIG1       -0.3549
      6 H          -0.0975   -1.6875    1.3439 H       1  LIG1        0.1655
      7 H           2.1978   -0.6552    1.1384 H       1  LIG1        0.0827
      8 N           1.9806    2.0541   -0.1031 N.pl3   1  LIG1       -0.3540
      9 H           2.9461    1.7522   -0.0377 H       1  LIG1        0.1425
     10 H           1.8271    2.4613   -1.0208 H       1  LIG1        0.1425
     11 O          -0.9031    2.0945   -0.8945 O.3     1  LIG1       -0.4911
     12 C          -1.0193    3.2918   -0.1018 C.3     1  LIG1        0.0790
     13 H          -1.3776    4.0741   -0.7762 H       1  LIG1        0.0660
     14 H          -1.7421    3.1424    0.7077 H       1  LIG1        0.0660
     15 H          -0.0490    3.5809    0.3135 H       1  LIG1        0.0660
     16 C          -2.2508   -0.6659    0.0333 C.ar    1  LIG1        0.0916
     17 C          -3.4806   -0.0267   -0.1579 C.ar    1  LIG1        0.0947
     18 C          -4.4728   -1.0419   -0.1631 C.ar    1  LIG1        0.1679
     19 C          -3.8557   -2.2737    0.0341 C.ar    1  LIG1        0.1094
     20 N          -2.5116   -2.0251    0.1546 N.ar    1  LIG1       -0.3473
     21 H          -1.8469   -2.7896    0.1741 H       1  LIG1        0.1662
     22 N          -3.7129    1.3530   -0.2406 N.pl3   1  LIG1       -0.3534
     23 H          -3.0470    1.8174   -0.8484 H       1  LIG1        0.1425
     24 H          -4.6698    1.5632   -0.4944 H       1  LIG1        0.1425
     25 O          -5.8359   -0.8465   -0.3174 O.3     1  LIG1       -0.4911
     26 C          -6.2404   -0.7541   -1.6889 C.3     1  LIG1        0.0790
     27 H          -7.3168   -0.5644   -1.6887 H       1  LIG1        0.0660
     28 H          -5.7275    0.0686   -2.2019 H       1  LIG1        0.0660
     29 H          -6.0312   -1.6864   -2.2278 H       1  LIG1        0.0660
     30 C          -4.3936   -3.6031    0.1272 C.ar    1  LIG1        0.0917
     31 C          -3.7408   -4.8325    0.1747 C.ar    1  LIG1        0.0947
     32 C          -4.7405   -5.8348    0.3159 C.ar    1  LIG1        0.1679
     33 C          -5.9903   -5.2165    0.3347 C.ar    1  LIG1        0.1094
     34 N          -5.7414   -3.8547    0.2075 N.ar    1  LIG1       -0.3473
     35 H          -6.4398   -3.1260    0.2132 H       1  LIG1        0.1662
     36 N          -2.3166   -4.9946    0.1369 N.pl3   1  LIG1       -0.3534
     37 H          -2.0482   -5.7284    0.7899 H       1  LIG1        0.1425
     38 H          -2.0177   -5.3198   -0.7821 H       1  LIG1        0.1425
     39 O          -4.4644   -7.1613    0.5283 O.3     1  LIG1       -0.4911
     40 C          -4.5089   -7.9902   -0.6371 C.3     1  LIG1        0.0790
     41 H          -4.2060   -8.9893   -0.3146 H       1  LIG1        0.0660
     42 H          -5.5191   -8.0323   -1.0588 H       1  LIG1        0.0660
     43 H          -3.8063   -7.6352   -1.4046 H       1  LIG1        0.0660
     44 C          -7.3359   -5.7424    0.5103 C.ar    1  LIG1        0.0912
     45 C          -8.1056   -6.5636   -0.2988 C.ar    1  LIG1        0.0940
     46 C          -9.3535   -6.7573    0.3628 C.ar    1  LIG1        0.1585
     47 C          -9.3350   -6.0516    1.5493 C.ar    1  LIG1        0.0463
     48 N          -8.1199   -5.4024    1.6127 N.ar    1  LIG1       -0.3549
     49 H          -7.7201   -5.0393    2.4634 H       1  LIG1        0.1655
     50 H         -10.0789   -5.9396    2.3213 H       1  LIG1        0.0845
     51 N          -7.7667   -7.1277   -1.5448 N.pl3   1  LIG1       -0.3535
     52 H          -8.5997   -7.4170   -2.0464 H       1  LIG1        0.1425
     53 H          -7.2289   -6.4858   -2.1178 H       1  LIG1        0.1425
     54 O         -10.3473   -7.4959   -0.2194 O.3     1  LIG1       -0.4918
     55 C         -11.5441   -7.5952    0.5312 C.3     1  LIG1        0.0789
     56 H         -12.2345   -8.2057   -0.0533 H       1  LIG1        0.0660
     57 H         -11.3658   -8.0771    1.5024 H       1  LIG1        0.0660
     58 H         -11.9901   -6.6056    0.7045 H       1  LIG1        0.0660
@<TRIPOS>BOND
     1    29    26    1
     2    28    26    1
     3    53    51    1
     4    52    51    1
     5    26    27    1
     6    26    25    1
     7    51    45    1
     8    43    40    1
     9    42    40    1
    10    10     8    1
    11    11     3    1
    12    11    12    1
    13    23    22    1
    14    38    36    1
    15    13    12    1
    16    40    41    1
    17    40    39    1
    18    24    22    1
    19    25    18    1
    20    45    46   ar
    21    45    44   ar
    22    22    17    1
    23    54    46    1
    24    54    55    1
    25     3     2   ar
    26     3     4   ar
    27    18    17   ar
    28    18    19   ar
    29    17    16   ar
    30     8     9    1
    31     8     2    1
    32    12    15    1
    33    12    14    1
    34    56    55    1
    35    16    20   ar
    36    16     4    1
    37    19    30    1
    38    19    20   ar
    39    30    31   ar
    40    30    34   ar
    41     2     1   ar
    42    36    31    1
    43    36    37    1
    44    20    21    1
    45     4     5   ar
    46    31    32   ar
    47    34    35    1
    48    34    33   ar
    49    32    33   ar
    50    32    39    1
    51    33    44    1
    52    46    47   ar
    53    44    48   ar
    54    55    58    1
    55    55    57    1
    56     5     1   ar
    57     5     6    1
    58     1     7    1
    59    47    48   ar
    60    47    50    1
    61    48    49    1
