@<TRIPOS>MOLECULE
mol_data/opt/b3lyp/geoms/mol2/13hl13hl13hl13hl.out
 58 61 0 0 0
SMALL
GASTEIGER

@<TRIPOS>ATOM
      1 C           1.4135   -0.4871    0.0432 C.ar    1  LIG1        0.0267
      2 C           1.2119    0.8555   -0.1825 C.ar    1  LIG1        0.0851
      3 C          -0.2007    1.0523   -0.2974 C.ar    1  LIG1        0.1673
      4 C          -0.8369   -0.1773   -0.1614 C.ar    1  LIG1        0.1089
      5 N           0.1721   -1.1154    0.0093 N.ar    1  LIG1       -0.3549
      6 H          -0.0097   -1.9896    0.4777 H       1  LIG1        0.1655
      7 H           2.3237   -1.0495    0.1849 H       1  LIG1        0.0827
      8 N           2.1557    1.8986   -0.2690 N.pl3   1  LIG1       -0.3540
      9 H           3.0977    1.5540   -0.4144 H       1  LIG1        0.1425
     10 H           1.9215    2.5401   -1.0207 H       1  LIG1        0.1425
     11 O          -0.7965    2.2675   -0.5844 O.3     1  LIG1       -0.4911
     12 C          -0.7137    3.2070    0.5049 C.3     1  LIG1        0.0790
     13 H          -1.1041    4.1545    0.1249 H       1  LIG1        0.0660
     14 H          -1.3256    2.8688    1.3488 H       1  LIG1        0.0660
     15 H           0.3231    3.3380    0.8288 H       1  LIG1        0.0660
     16 C          -2.2162   -0.5889   -0.2208 C.ar    1  LIG1        0.0916
     17 C          -3.4083    0.1165   -0.1414 C.ar    1  LIG1        0.0947
     18 C          -4.4658   -0.8389   -0.2141 C.ar    1  LIG1        0.1679
     19 C          -3.9296   -2.1115   -0.3458 C.ar    1  LIG1        0.1094
     20 N          -2.5435   -1.9606   -0.2965 N.ar    1  LIG1       -0.3473
     21 H          -1.9799   -2.5653   -0.8805 H       1  LIG1        0.1662
     22 N          -3.6038    1.4835    0.0627 N.pl3   1  LIG1       -0.3534
     23 H          -2.8698    2.0350   -0.3711 H       1  LIG1        0.1425
     24 H          -4.5216    1.7715   -0.2574 H       1  LIG1        0.1425
     25 O          -5.8034   -0.4985   -0.1505 O.3     1  LIG1       -0.4911
     26 C          -6.3343   -0.4938    1.1848 C.3     1  LIG1        0.0790
     27 H          -7.3761   -0.1756    1.1056 H       1  LIG1        0.0660
     28 H          -6.2905   -1.4965    1.6235 H       1  LIG1        0.0660
     29 H          -5.7793    0.2071    1.8182 H       1  LIG1        0.0660
     30 C          -4.5279   -3.4072   -0.5056 C.ar    1  LIG1        0.0917
     31 C          -5.7990   -3.8040   -0.9044 C.ar    1  LIG1        0.0947
     32 C          -5.8070   -5.2352   -0.9176 C.ar    1  LIG1        0.1679
     33 C          -4.5531   -5.7005   -0.5517 C.ar    1  LIG1        0.1094
     34 N          -3.7553   -4.5726   -0.3416 N.ar    1  LIG1       -0.3473
     35 H          -3.0681   -4.6022    0.4008 H       1  LIG1        0.1662
     36 N          -6.9038   -3.0171   -1.2400 N.pl3   1  LIG1       -0.3534
     37 H          -6.7024   -2.0223   -1.2417 H       1  LIG1        0.1425
     38 H          -7.3578   -3.3194   -2.0945 H       1  LIG1        0.1425
     39 O          -6.8758   -6.0021   -1.3361 O.3     1  LIG1       -0.4911
     40 C          -8.0093   -5.9313   -0.4483 C.3     1  LIG1        0.0790
     41 H          -8.8213   -6.4675   -0.9453 H       1  LIG1        0.0660
     42 H          -7.7766   -6.4182    0.5056 H       1  LIG1        0.0660
     43 H          -8.3028   -4.8922   -0.2747 H       1  LIG1        0.0660
     44 C          -3.9919   -7.0194   -0.4103 C.ar    1  LIG1        0.0912
     45 C          -4.5693   -8.2799   -0.2908 C.ar    1  LIG1        0.0940
     46 C          -3.4986   -9.2135   -0.1276 C.ar    1  LIG1        0.1585
     47 C          -2.3065   -8.5260   -0.1563 C.ar    1  LIG1        0.0463
     48 N          -2.6056   -7.1868   -0.2852 N.ar    1  LIG1       -0.3549
     49 H          -1.9650   -6.5260   -0.6982 H       1  LIG1        0.1655
     50 H          -1.2910   -8.8859   -0.1015 H       1  LIG1        0.0845
     51 N          -5.9252   -8.6212   -0.2542 N.pl3   1  LIG1       -0.3535
     52 H          -6.4777   -8.0007   -0.8382 H       1  LIG1        0.1425
     53 H          -6.0571   -9.5884   -0.5303 H       1  LIG1        0.1425
     54 O          -3.6708  -10.5696    0.0169 O.3     1  LIG1       -0.4918
     55 C          -3.9828  -10.9685    1.3549 C.3     1  LIG1        0.0789
     56 H          -4.1285  -12.0511    1.3335 H       1  LIG1        0.0660
     57 H          -3.1606  -10.7248    2.0398 H       1  LIG1        0.0660
     58 H          -4.8983  -10.4827    1.7143 H       1  LIG1        0.0660
@<TRIPOS>BOND
     1    38    36    1
     2    39    32    1
     3    39    40    1
     4    37    36    1
     5    36    31    1
     6    10     8    1
     7    41    40    1
     8    32    31   ar
     9    32    33   ar
    10    31    30   ar
    11    21    20    1
    12    52    51    1
    13    49    48    1
    14    11     3    1
    15    11    12    1
    16    33    44    1
    17    33    34   ar
    18    53    51    1
    19    30    19    1
    20    30    34   ar
    21    40    43    1
    22    40    42    1
    23     9     8    1
    24    44    45   ar
    25    44    48   ar
    26    23    22    1
    27    19    20   ar
    28    19    18   ar
    29    34    35    1
    30     3     2   ar
    31     3     4   ar
    32    20    16   ar
    33    45    51    1
    34    45    46   ar
    35    48    47   ar
    36     8     2    1
    37    24    22    1
    38    16     4    1
    39    16    17   ar
    40    18    25    1
    41    18    17   ar
    42     2     1   ar
    43     4     5   ar
    44    47    46   ar
    45    47    50    1
    46    25    26    1
    47    17    22    1
    48    46    54    1
    49     5     1   ar
    50     5     6    1
    51    54    55    1
    52     1     7    1
    53    13    12    1
    54    12    15    1
    55    12    14    1
    56    27    26    1
    57    26    28    1
    58    26    29    1
    59    56    55    1
    60    55    58    1
    61    55    57    1
