@<TRIPOS>MOLECULE
mol_data/opt/b3lyp/geoms/mol2/13hl13hl-13hl-13hl-.out
 58 61 0 0 0
SMALL
GASTEIGER

@<TRIPOS>ATOM
      1 C           1.3065   -0.1769   -0.5862 C.ar    1  LIG1        0.0267
      2 C           0.8499    0.8522   -1.3931 C.ar    1  LIG1        0.0851
      3 C          -0.5725    0.8183   -1.3245 C.ar    1  LIG1        0.1673
      4 C          -0.9467   -0.2190   -0.4775 C.ar    1  LIG1        0.1089
      5 N           0.2109   -0.8208   -0.0505 N.ar    1  LIG1       -0.3549
      6 H           0.1902   -1.5728    0.6274 H       1  LIG1        0.1655
      7 H           2.3135   -0.5028   -0.3735 H       1  LIG1        0.0827
      8 N           1.5903    1.7406   -2.2060 N.pl3   1  LIG1       -0.3540
      9 H           1.2466    2.6915   -2.1082 H       1  LIG1        0.1425
     10 H           2.5773    1.7323   -1.9732 H       1  LIG1        0.1425
     11 O          -1.4538    1.6832   -1.9493 O.3     1  LIG1       -0.4911
     12 C          -1.5018    1.5114   -3.3735 C.3     1  LIG1        0.0790
     13 H          -2.1906    2.2683   -3.7569 H       1  LIG1        0.0660
     14 H          -0.5116    1.6529   -3.8190 H       1  LIG1        0.0660
     15 H          -1.8713    0.5118   -3.6344 H       1  LIG1        0.0660
     16 C          -2.2444   -0.6431   -0.0205 C.ar    1  LIG1        0.0916
     17 C          -2.6079   -1.7244    0.7768 C.ar    1  LIG1        0.0947
     18 C          -4.0165   -1.6527    0.9633 C.ar    1  LIG1        0.1679
     19 C          -4.5011   -0.5446    0.2707 C.ar    1  LIG1        0.1094
     20 N          -3.3924    0.0447   -0.3249 N.ar    1  LIG1       -0.3473
     21 H          -3.3957    0.8725   -0.9028 H       1  LIG1        0.1662
     22 N          -1.6864   -2.6728    1.3279 N.pl3   1  LIG1       -0.3534
     23 H          -2.0075   -2.9464    2.2544 H       1  LIG1        0.1425
     24 H          -1.6773   -3.5280    0.7726 H       1  LIG1        0.1425
     25 O          -4.7194   -2.4873    1.7943 O.3     1  LIG1       -0.4911
     26 C          -5.3804   -3.5757    1.1394 C.3     1  LIG1        0.0790
     27 H          -5.8656   -4.1582    1.9265 H       1  LIG1        0.0660
     28 H          -6.1327   -3.2161    0.4285 H       1  LIG1        0.0660
     29 H          -4.6596   -4.2177    0.6133 H       1  LIG1        0.0660
     30 C          -5.8386    0.0223    0.1590 C.ar    1  LIG1        0.0917
     31 C          -6.9770   -0.4347   -0.4966 C.ar    1  LIG1        0.0947
     32 C          -8.0056    0.5229   -0.2825 C.ar    1  LIG1        0.1679
     33 C          -7.4964    1.5628    0.4944 C.ar    1  LIG1        0.1094
     34 N          -6.1735    1.2425    0.7297 N.ar    1  LIG1       -0.3473
     35 H          -5.5611    1.7746    1.3272 H       1  LIG1        0.1662
     36 N          -7.1421   -1.6467   -1.1958 N.pl3   1  LIG1       -0.3534
     37 H          -8.0294   -1.6498   -1.6876 H       1  LIG1        0.1425
     38 H          -6.3833   -1.8329   -1.8426 H       1  LIG1        0.1425
     39 O          -9.2883    0.3527   -0.7443 O.3     1  LIG1       -0.4911
     40 C          -9.6573    1.1945   -1.8425 C.3     1  LIG1        0.0790
     41 H         -10.6832    0.9238   -2.1042 H       1  LIG1        0.0660
     42 H          -9.6140    2.2557   -1.5766 H       1  LIG1        0.0660
     43 H          -9.0069    1.0174   -2.7108 H       1  LIG1        0.0660
     44 C          -8.1214    2.7498    1.0682 C.ar    1  LIG1        0.0912
     45 C          -8.5110    3.9488    0.4916 C.ar    1  LIG1        0.0940
     46 C          -9.0618    4.7565    1.5289 C.ar    1  LIG1        0.1585
     47 C          -8.9959    4.0511    2.7145 C.ar    1  LIG1        0.0463
     48 N          -8.3889    2.8468    2.4333 N.ar    1  LIG1       -0.3549
     49 H          -8.4266    2.0383    3.0332 H       1  LIG1        0.1655
     50 H          -9.3032    4.3122    3.7142 H       1  LIG1        0.0845
     51 N          -8.4332    4.3334   -0.8606 N.pl3   1  LIG1       -0.3535
     52 H          -8.4544    5.3432   -0.9533 H       1  LIG1        0.1425
     53 H          -7.6074    3.9622   -1.3175 H       1  LIG1        0.1425
     54 O          -9.4995    6.0272    1.2713 O.3     1  LIG1       -0.4918
     55 C         -10.0037    6.7299    2.3926 C.3     1  LIG1        0.0789
     56 H         -10.3124    7.7142    2.0367 H       1  LIG1        0.0660
     57 H         -10.8696    6.2135    2.8295 H       1  LIG1        0.0660
     58 H          -9.2345    6.8480    3.1689 H       1  LIG1        0.0660
@<TRIPOS>BOND
     1    14    12    1
     2    13    12    1
     3    15    12    1
     4    12    11    1
     5    43    40    1
     6     8     9    1
     7     8    10    1
     8     8     2    1
     9    41    40    1
    10    11     3    1
    11    38    36    1
    12    40    42    1
    13    40    39    1
    14    37    36    1
    15     2     3   ar
    16     2     1   ar
    17     3     4   ar
    18    53    51    1
    19    36    31    1
    20    52    51    1
    21    21    20    1
    22    51    45    1
    23    39    32    1
    24     1     7    1
    25     1     5   ar
    26    31    32   ar
    27    31    30   ar
    28     4     5   ar
    29     4    16    1
    30    20    16   ar
    31    20    19   ar
    32    32    33   ar
    33     5     6    1
    34    16    17   ar
    35    30    19    1
    36    30    34   ar
    37    19    18   ar
    38    28    26    1
    39    45    44   ar
    40    45    46   ar
    41    33    34   ar
    42    33    44    1
    43    29    26    1
    44    34    35    1
    45    24    22    1
    46    17    18   ar
    47    17    22    1
    48    18    25    1
    49    44    48   ar
    50    26    25    1
    51    26    27    1
    52    54    46    1
    53    54    55    1
    54    22    23    1
    55    46    47   ar
    56    56    55    1
    57    55    57    1
    58    55    58    1
    59    48    47   ar
    60    48    49    1
    61    47    50    1
