@<TRIPOS>MOLECULE
mol_data/opt/b3lyp/geoms/mol2/13hl13hl13hl-13hl.out
 58 61 0 0 0
SMALL
GASTEIGER

@<TRIPOS>ATOM
      1 C           1.5118   -0.5169    0.2617 C.ar    1  LIG1        0.0267
      2 C           1.3580    0.7122   -0.3389 C.ar    1  LIG1        0.0851
      3 C          -0.0392    0.8829   -0.5877 C.ar    1  LIG1        0.1673
      4 C          -0.7164   -0.2532   -0.1525 C.ar    1  LIG1        0.1089
      5 N           0.2576   -1.1106    0.3355 N.ar    1  LIG1       -0.3549
      6 H           0.0380   -1.8535    0.9795 H       1  LIG1        0.1655
      7 H           2.3967   -1.0274    0.6097 H       1  LIG1        0.0827
      8 N           2.3321    1.6828   -0.6521 N.pl3   1  LIG1       -0.3540
      9 H           3.2693    1.2967   -0.6591 H       1  LIG1        0.1425
     10 H           2.1451    2.1028   -1.5578 H       1  LIG1        0.1425
     11 O          -0.5794    1.9802   -1.2354 O.3     1  LIG1       -0.4911
     12 C          -0.5537    3.1765   -0.4337 C.3     1  LIG1        0.0790
     13 H          -0.8821    3.9911   -1.0844 H       1  LIG1        0.0660
     14 H          -1.2415    3.0842    0.4143 H       1  LIG1        0.0660
     15 H           0.4585    3.3795   -0.0706 H       1  LIG1        0.0660
     16 C          -2.1026   -0.6541   -0.1790 C.ar    1  LIG1        0.0916
     17 C          -3.2819    0.0618   -0.3917 C.ar    1  LIG1        0.0947
     18 C          -4.3570   -0.8521   -0.2221 C.ar    1  LIG1        0.1679
     19 C          -3.8395   -2.1067    0.0768 C.ar    1  LIG1        0.1094
     20 N          -2.4679   -1.9651    0.1368 N.ar    1  LIG1       -0.3473
     21 H          -1.8759   -2.7801    0.0258 H       1  LIG1        0.1662
     22 N          -3.4393    1.4304   -0.6506 N.pl3   1  LIG1       -0.3534
     23 H          -2.6412    1.8012   -1.1586 H       1  LIG1        0.1425
     24 H          -4.2967    1.5982   -1.1664 H       1  LIG1        0.1425
     25 O          -5.6959   -0.5480   -0.3622 O.3     1  LIG1       -0.4911
     26 C          -6.2481    0.1331    0.7727 C.3     1  LIG1        0.0790
     27 H          -7.2946    0.3380    0.5348 H       1  LIG1        0.0660
     28 H          -6.1935   -0.4936    1.6711 H       1  LIG1        0.0660
     29 H          -5.7209    1.0751    0.9624 H       1  LIG1        0.0660
     30 C          -4.4778   -3.3837    0.2218 C.ar    1  LIG1        0.0917
     31 C          -3.9157   -4.6319    0.5047 C.ar    1  LIG1        0.0947
     32 C          -4.9742   -5.5747    0.4772 C.ar    1  LIG1        0.1679
     33 C          -6.1594   -4.8981    0.1908 C.ar    1  LIG1        0.1094
     34 N          -5.8316   -3.5699    0.0525 N.ar    1  LIG1       -0.3473
     35 H          -6.5109   -2.8578   -0.1946 H       1  LIG1        0.1662
     36 N          -2.5301   -4.8592    0.7692 N.pl3   1  LIG1       -0.3534
     37 H          -2.3168   -4.6387    1.7419 H       1  LIG1        0.1425
     38 H          -2.3177   -5.8464    0.6527 H       1  LIG1        0.1425
     39 O          -4.8571   -6.9358    0.7026 O.3     1  LIG1       -0.4911
     40 C          -4.6212   -7.6926   -0.4922 C.3     1  LIG1        0.0790
     41 H          -4.4941   -8.7339   -0.1851 H       1  LIG1        0.0660
     42 H          -5.4679   -7.6139   -1.1847 H       1  LIG1        0.0660
     43 H          -3.7149   -7.3524   -1.0079 H       1  LIG1        0.0660
     44 C          -7.5147   -5.3721    0.1026 C.ar    1  LIG1        0.0912
     45 C          -8.6808   -4.6970   -0.2413 C.ar    1  LIG1        0.0940
     46 C          -9.7507   -5.6334   -0.1237 C.ar    1  LIG1        0.1585
     47 C          -9.2268   -6.8452    0.2869 C.ar    1  LIG1        0.0463
     48 N          -7.8566   -6.6724    0.3940 N.ar    1  LIG1       -0.3549
     49 H          -7.2043   -7.3214    0.8062 H       1  LIG1        0.1655
     50 H          -9.6921   -7.7960    0.4883 H       1  LIG1        0.0845
     51 N          -8.7370   -3.3212   -0.6271 N.pl3   1  LIG1       -0.3535
     52 H          -8.9022   -3.2327   -1.6289 H       1  LIG1        0.1425
     53 H          -9.5271   -2.8675   -0.1738 H       1  LIG1        0.1425
     54 O         -11.0410   -5.2825   -0.3990 O.3     1  LIG1       -0.4918
     55 C         -12.0003   -6.3048   -0.1935 C.3     1  LIG1        0.0789
     56 H         -12.9744   -5.8785   -0.4392 H       1  LIG1        0.0660
     57 H         -11.8070   -7.1690   -0.8442 H       1  LIG1        0.0660
     58 H         -12.0032   -6.6440    0.8517 H       1  LIG1        0.0660
@<TRIPOS>BOND
     1    52    51    1
     2    10     8    1
     3    11     3    1
     4    11    12    1
     5    42    40    1
     6    24    22    1
     7    23    22    1
     8    13    12    1
     9    43    40    1
    10    57    55    1
    11     9     8    1
    12     8     2    1
    13    22    17    1
    14    51    45    1
    15    51    53    1
    16     3     2   ar
    17     3     4   ar
    18    40    41    1
    19    40    39    1
    20    56    55    1
    21    12    15    1
    22    12    14    1
    23    54    55    1
    24    54    46    1
    25    17    18   ar
    26    17    16   ar
    27    25    18    1
    28    25    26    1
    29     2     1   ar
    30    45    46   ar
    31    45    44   ar
    32    18    19   ar
    33    35    34    1
    34    55    58    1
    35    16     4    1
    36    16    20   ar
    37     4     5   ar
    38    46    47   ar
    39    21    20    1
    40    34    33   ar
    41    34    30   ar
    42    19    20   ar
    43    19    30    1
    44    44    33    1
    45    44    48   ar
    46    33    32   ar
    47    30    31   ar
    48     1     5   ar
    49     1     7    1
    50    47    48   ar
    51    47    50    1
    52     5     6    1
    53    48    49    1
    54    32    31   ar
    55    32    39    1
    56    31    36    1
    57    27    26    1
    58    38    36    1
    59    36    37    1
    60    26    29    1
    61    26    28    1
