@<TRIPOS>MOLECULE
mol_data/opt/b3lyp/geoms/mol2/13hl12ia-13hl-13ae.out
 50 53 0 0 0
SMALL
GASTEIGER

@<TRIPOS>ATOM
      1 C           1.1964   -0.1534   -0.6913 C.ar    1  LIG1        0.0268
      2 C           0.9698    1.0888   -0.1241 C.ar    1  LIG1        0.0851
      3 C          -0.4191    1.1379    0.2156 C.ar    1  LIG1        0.1688
      4 C          -1.0033   -0.0729   -0.1624 C.ar    1  LIG1        0.1264
      5 N           0.0166   -0.8467   -0.6892 N.ar    1  LIG1       -0.3537
      6 H          -0.1334   -1.7764   -1.0428 H       1  LIG1        0.1656
      7 H           2.1099   -0.5869   -1.0711 H       1  LIG1        0.0827
      8 N           1.9318    2.1024    0.1631 N.pl3   1  LIG1       -0.3540
      9 H           2.8589    1.6976    0.2484 H       1  LIG1        0.1425
     10 H           1.9762    2.7991   -0.5773 H       1  LIG1        0.1425
     11 O          -1.0937    2.1196    0.8899 O.3     1  LIG1       -0.4910
     12 C          -0.8220    3.4673    0.5051 C.3     1  LIG1        0.0790
     13 H          -1.5517    4.0868    1.0312 H       1  LIG1        0.0660
     14 H           0.1886    3.7644    0.7965 H       1  LIG1        0.0660
     15 H          -0.9503    3.6034   -0.5774 H       1  LIG1        0.0660
     16 C          -2.3325   -0.6304   -0.0676 C.ar    1  LIG1        0.1584
     17 C          -3.6192   -0.1606    0.0776 C.ar    1  LIG1       -0.0025
     18 C          -4.4687   -1.3125    0.0422 C.ar    1  LIG1       -0.0108
     19 C          -3.6724   -2.4153   -0.1405 C.ar    1  LIG1        0.1540
     20 O          -2.3598   -2.0130   -0.2077 O.2     1  LIG1       -0.4514
     21 C          -4.0937    1.2562    0.2049 C.3     1  LIG1       -0.0360
     22 H          -4.9786    1.3078    0.8476 H       1  LIG1        0.0279
     23 H          -4.3796    1.6689   -0.7714 H       1  LIG1        0.0279
     24 H          -3.3180    1.8942    0.6278 H       1  LIG1        0.0279
     25 H          -5.5393   -1.3201    0.1919 H       1  LIG1        0.0659
     26 C          -3.9351   -3.8176   -0.2561 C.ar    1  LIG1        0.1072
     27 C          -5.1230   -4.4842   -0.5361 C.ar    1  LIG1        0.0962
     28 C          -4.8417   -5.8787   -0.4820 C.ar    1  LIG1        0.1679
     29 C          -3.4952   -6.0520   -0.1881 C.ar    1  LIG1        0.1075
     30 N          -2.9388   -4.7841   -0.0992 N.ar    1  LIG1       -0.3462
     31 H          -2.1227   -4.5905    0.4622 H       1  LIG1        0.1662
     32 N          -6.3747   -3.9329   -0.8328 N.pl3   1  LIG1       -0.3534
     33 H          -6.3030   -3.0236   -1.2776 H       1  LIG1        0.1425
     34 H          -6.9190   -4.5604   -1.4164 H       1  LIG1        0.1425
     35 O          -5.7454   -6.8644   -0.7902 O.3     1  LIG1       -0.4911
     36 C          -6.6525   -7.1687    0.2771 C.3     1  LIG1        0.0790
     37 H          -7.3258   -7.9415   -0.0997 H       1  LIG1        0.0660
     38 H          -6.1158   -7.5477    1.1552 H       1  LIG1        0.0660
     39 H          -7.2337   -6.2866    0.5713 H       1  LIG1        0.0660
     40 C          -2.6992   -7.2506   -0.0732 C.ar    1  LIG1        0.0678
     41 C          -3.0408   -8.5574    0.2259 C.ar    1  LIG1       -0.0194
     42 C          -1.8429   -9.3414    0.2055 C.ar    1  LIG1        0.0426
     43 C          -0.8000   -8.4811   -0.1100 C.ar    1  LIG1        0.0177
     44 N          -1.3241   -7.2250   -0.2613 N.ar    1  LIG1       -0.3583
     45 H          -0.8238   -6.4367   -0.6398 H       1  LIG1        0.1654
     46 H           0.2537   -8.6784   -0.2305 H       1  LIG1        0.0819
     47 H          -4.0320   -8.9197    0.4485 H       1  LIG1        0.0651
     48 C          -1.7276  -10.7320    0.4688 C.1     1  LIG1       -0.0682
     49 C          -1.6396  -11.9182    0.6943 C.1     1  LIG1       -0.1139
     50 H          -1.5607  -12.9617    0.8915 H       1  LIG1        0.1232
@<TRIPOS>BOND
     1    34    32    1
     2    33    32    1
     3     7     1    1
     4     6     5    1
     5    32    27    1
     6    35    28    1
     7    35    36    1
     8    23    21    1
     9     1     5   ar
    10     1     2   ar
    11     5     4   ar
    12    45    44    1
    13    15    12    1
    14    10     8    1
    15    27    28   ar
    16    27    26   ar
    17    28    29   ar
    18    44    43   ar
    19    44    40   ar
    20    26    19    1
    21    26    30   ar
    22    46    43    1
    23    20    19   ar
    24    20    16   ar
    25    29    30   ar
    26    29    40    1
    27     4    16    1
    28     4     3   ar
    29    19    18   ar
    30     2     8    1
    31     2     3   ar
    32    43    42   ar
    33    37    36    1
    34    30    31    1
    35    40    41   ar
    36    16    17   ar
    37    18    17   ar
    38    18    25    1
    39    17    21    1
    40     8     9    1
    41    21    24    1
    42    21    22    1
    43    42    41   ar
    44    42    48    1
    45     3    11    1
    46    41    47    1
    47    36    39    1
    48    36    38    1
    49    48    49    3
    50    12    14    1
    51    12    11    1
    52    12    13    1
    53    49    50    1
