@<TRIPOS>MOLECULE
mol_data/opt/b3lyp/geoms/mol2/13hl13hl-.out
 30 31 0 0 0
SMALL
GASTEIGER

@<TRIPOS>ATOM
      1 C           1.3283   -0.3506   -0.2238 C.ar    1  LIG1        0.0267
      2 C           0.9989    0.9871   -0.3716 C.ar    1  LIG1        0.0851
      3 C          -0.4238    1.0565   -0.3546 C.ar    1  LIG1        0.1673
      4 C          -0.9234   -0.2325   -0.2072 C.ar    1  LIG1        0.1089
      5 N           0.1583   -1.0719   -0.1231 N.ar    1  LIG1       -0.3549
      6 H           0.0323   -2.0708   -0.0090 H       1  LIG1        0.1655
      7 H           2.2945   -0.8296   -0.1750 H       1  LIG1        0.0827
      8 N           1.8548    2.1098   -0.4564 N.pl3   1  LIG1       -0.3540
      9 H           2.8174    1.8376   -0.6231 H       1  LIG1        0.1425
     10 H           1.5646    2.7304   -1.2067 H       1  LIG1        0.1425
     11 O          -1.2025    2.1907   -0.5034 O.3     1  LIG1       -0.4911
     12 C          -1.1114    3.0909    0.6109 C.3     1  LIG1        0.0790
     13 H          -1.7240    3.9608    0.3606 H       1  LIG1        0.0660
     14 H          -1.4948    2.6219    1.5256 H       1  LIG1        0.0660
     15 H          -0.0754    3.4037    0.7778 H       1  LIG1        0.0660
     16 C          -2.2774   -0.7226   -0.1697 C.ar    1  LIG1        0.0912
     17 C          -2.7566   -2.0158    0.0085 C.ar    1  LIG1        0.0940
     18 C          -4.1795   -1.9410   -0.0525 C.ar    1  LIG1        0.1585
     19 C          -4.5367   -0.6221   -0.2669 C.ar    1  LIG1        0.0463
     20 N          -3.3600    0.1045   -0.3263 N.ar    1  LIG1       -0.3549
     21 H          -3.2623    1.0878   -0.5287 H       1  LIG1        0.1655
     22 H          -5.4983   -0.1482   -0.3750 H       1  LIG1        0.0845
     23 N          -1.9269   -3.1679    0.2080 N.pl3   1  LIG1       -0.3535
     24 H          -2.1108   -3.5808    1.1215 H       1  LIG1        0.1425
     25 H          -2.1666   -3.8890   -0.4704 H       1  LIG1        0.1425
     26 O          -4.9620   -3.0515    0.0908 O.3     1  LIG1       -0.4918
     27 C          -6.3562   -2.8226   -0.0128 C.3     1  LIG1        0.0789
     28 H          -6.8460   -3.7895    0.1149 H       1  LIG1        0.0660
     29 H          -6.7060   -2.1319    0.7671 H       1  LIG1        0.0660
     30 H          -6.6203   -2.4072   -0.9953 H       1  LIG1        0.0660
@<TRIPOS>BOND
     1    10     8    1
     2    30    27    1
     3     9     8    1
     4    21    20    1
     5    11     3    1
     6    11    12    1
     7    25    23    1
     8     8     2    1
     9    22    19    1
    10     2     3   ar
    11     2     1   ar
    12     3     4   ar
    13    20    19   ar
    14    20    16   ar
    15    19    18   ar
    16     1     7    1
    17     1     5   ar
    18     4    16    1
    19     4     5   ar
    20    16    17   ar
    21     5     6    1
    22    18    17   ar
    23    18    26    1
    24    27    26    1
    25    27    28    1
    26    27    29    1
    27    17    23    1
    28    23    24    1
    29    13    12    1
    30    12    15    1
    31    12    14    1
