@<TRIPOS>MOLECULE
mol_data/opt/b3lyp/geoms/mol2/13ia13ia13ia-13ia-.out
 46 49 0 0 0
SMALL
GASTEIGER

@<TRIPOS>ATOM
      1 C           1.2405   -0.0378   -0.0686 C.ar    1  LIG1        0.0051
      2 C           0.7570    1.1989   -0.4408 C.ar    1  LIG1       -0.0325
      3 C          -0.6672    1.1152   -0.3836 C.ar    1  LIG1       -0.0321
      4 C          -1.0151   -0.1639    0.0230 C.ar    1  LIG1        0.0634
      5 N           0.1683   -0.8649    0.1897 N.ar    1  LIG1       -0.3593
      6 H           0.2293   -1.7569    0.6542 H       1  LIG1        0.1654
      7 H           2.2563   -0.3946    0.0206 H       1  LIG1        0.0809
      8 C           1.5730    2.3898   -0.8513 C.3     1  LIG1       -0.0383
      9 H           1.3660    3.2592   -0.2162 H       1  LIG1        0.0278
     10 H           1.3622    2.6907   -1.8846 H       1  LIG1        0.0278
     11 H           2.6443    2.1784   -0.7824 H       1  LIG1        0.0278
     12 H          -1.3664    1.8922   -0.6591 H       1  LIG1        0.0642
     13 C          -2.3018   -0.7922    0.2452 C.ar    1  LIG1        0.0663
     14 C          -3.4949   -0.2956    0.7596 C.ar    1  LIG1       -0.0231
     15 C          -4.4204   -1.3761    0.7750 C.ar    1  LIG1       -0.0314
     16 C          -3.7919   -2.5096    0.2761 C.ar    1  LIG1        0.0639
     17 N          -2.4921   -2.1425   -0.0191 N.ar    1  LIG1       -0.3517
     18 H          -1.8832   -2.6832   -0.6126 H       1  LIG1        0.1660
     19 C          -3.7442    1.0978    1.2558 C.3     1  LIG1       -0.0376
     20 H          -4.3793    1.0917    2.1481 H       1  LIG1        0.0278
     21 H          -4.2513    1.7176    0.5051 H       1  LIG1        0.0278
     22 H          -2.8054    1.5984    1.5102 H       1  LIG1        0.0278
     23 H          -5.4256   -1.3370    1.1749 H       1  LIG1        0.0642
     24 C          -4.2916   -3.8477    0.0523 C.ar    1  LIG1        0.0663
     25 C          -3.6575   -5.0892   -0.0199 C.ar    1  LIG1       -0.0231
     26 C          -4.6718   -6.0635   -0.2229 C.ar    1  LIG1       -0.0314
     27 C          -5.9020   -5.4226   -0.2673 C.ar    1  LIG1        0.0639
     28 N          -5.6464   -4.0736   -0.1127 N.ar    1  LIG1       -0.3517
     29 H          -6.3528   -3.3642    0.0015 H       1  LIG1        0.1660
     30 C          -2.1854   -5.3637    0.0982 C.3     1  LIG1       -0.0376
     31 H          -1.7032   -4.6828    0.8080 H       1  LIG1        0.0278
     32 H          -1.6584   -5.2699   -0.8622 H       1  LIG1        0.0278
     33 H          -2.0107   -6.3842    0.4521 H       1  LIG1        0.0278
     34 H          -4.5168   -7.1247   -0.3576 H       1  LIG1        0.0642
     35 C          -7.2480   -5.9251   -0.4616 C.ar    1  LIG1        0.0658
     36 C          -7.8706   -7.0871   -0.0174 C.ar    1  LIG1       -0.0238
     37 C          -9.2150   -7.0447   -0.4934 C.ar    1  LIG1       -0.0409
     38 C          -9.3832   -5.8782   -1.2042 C.ar    1  LIG1        0.0025
     39 N          -8.1937   -5.1911   -1.1656 N.ar    1  LIG1       -0.3593
     40 H          -7.9702   -4.3964   -1.7433 H       1  LIG1        0.1654
     41 H         -10.2431   -5.4798   -1.7216 H       1  LIG1        0.0807
     42 C          -7.2588   -8.1614    0.8327 C.3     1  LIG1       -0.0377
     43 H          -6.3875   -7.7853    1.3770 H       1  LIG1        0.0278
     44 H          -6.9252   -9.0203    0.2359 H       1  LIG1        0.0278
     45 H          -7.9784   -8.5418    1.5655 H       1  LIG1        0.0278
     46 H          -9.9783   -7.7887   -0.3099 H       1  LIG1        0.0635
@<TRIPOS>BOND
     1    10     8    1
     2    40    39    1
     3    41    38    1
     4    38    39   ar
     5    38    37   ar
     6    39    35   ar
     7    32    30    1
     8     8    11    1
     9     8     2    1
    10     8     9    1
    11    12     3    1
    12    18    17    1
    13    37    46    1
    14    37    36   ar
    15    35    27    1
    16    35    36   ar
    17     2     3   ar
    18     2     1   ar
    19     3     4   ar
    20    34    26    1
    21    27    26   ar
    22    27    28   ar
    23    26    25   ar
    24    28    29    1
    25    28    24   ar
    26     1     7    1
    27     1     5   ar
    28    25    24   ar
    29    25    30    1
    30    17    13   ar
    31    17    16   ar
    32    36    42    1
    33     4     5   ar
    34     4    13    1
    35    24    16    1
    36    30    33    1
    37    30    31    1
    38     5     6    1
    39    44    42    1
    40    13    14   ar
    41    16    15   ar
    42    21    19    1
    43    14    15   ar
    44    14    19    1
    45    15    23    1
    46    42    43    1
    47    42    45    1
    48    19    22    1
    49    19    20    1
