@<TRIPOS>MOLECULE
mol_data/opt/b3lyp/geoms/mol2/13ia13ia13ia.out
 35 37 0 0 0
SMALL
GASTEIGER

@<TRIPOS>ATOM
      1 C           0.9887   -0.0909    1.0414 C.ar    1  LIG1        0.0051
      2 C           0.8714    0.9512    0.1465 C.ar    1  LIG1       -0.0325
      3 C          -0.4356    0.8565   -0.4218 C.ar    1  LIG1       -0.0321
      4 C          -1.0804   -0.2338    0.1392 C.ar    1  LIG1        0.0634
      5 N          -0.1822   -0.8191    1.0188 N.ar    1  LIG1       -0.3593
      6 H          -0.4437   -1.5000    1.7142 H       1  LIG1        0.1654
      7 H           1.8123   -0.3760    1.6797 H       1  LIG1        0.0809
      8 C           1.9250    1.9679   -0.1834 C.3     1  LIG1       -0.0383
      9 H           1.5720    2.9892    0.0016 H       1  LIG1        0.0278
     10 H           2.2226    1.9184   -1.2377 H       1  LIG1        0.0278
     11 H           2.8251    1.8155    0.4198 H       1  LIG1        0.0278
     12 H          -0.8453    1.4887   -1.1971 H       1  LIG1        0.0642
     13 C          -2.4057   -0.7870   -0.0705 C.ar    1  LIG1        0.0663
     14 C          -3.6435   -0.1755   -0.2487 C.ar    1  LIG1       -0.0231
     15 C          -4.6073   -1.2148   -0.3721 C.ar    1  LIG1       -0.0314
     16 C          -3.9615   -2.4375   -0.2639 C.ar    1  LIG1        0.0639
     17 N          -2.6198   -2.1570   -0.0821 N.ar    1  LIG1       -0.3517
     18 H          -1.8990   -2.8507    0.0377 H       1  LIG1        0.1660
     19 C          -3.9117    1.3000   -0.2921 C.3     1  LIG1       -0.0376
     20 H          -4.8406    1.5467    0.2332 H       1  LIG1        0.0278
     21 H          -4.0167    1.6702   -1.3200 H       1  LIG1        0.0278
     22 H          -3.0973    1.8617    0.1745 H       1  LIG1        0.0278
     23 H          -5.6659   -1.0864   -0.5497 H       1  LIG1        0.0642
     24 C          -4.4525   -3.8019   -0.3308 C.ar    1  LIG1        0.0658
     25 C          -5.5994   -4.3940    0.1861 C.ar    1  LIG1       -0.0238
     26 C          -5.5505   -5.7751   -0.1717 C.ar    1  LIG1       -0.0409
     27 C          -4.3946   -5.9936   -0.8854 C.ar    1  LIG1        0.0025
     28 N          -3.7189   -4.7989   -0.9617 N.ar    1  LIG1       -0.3593
     29 H          -2.9439   -4.6168   -1.5795 H       1  LIG1        0.1654
     30 H          -3.9961   -6.8914   -1.3339 H       1  LIG1        0.0807
     31 C          -6.6648   -3.7194    0.9991 C.3     1  LIG1       -0.0377
     32 H          -6.9841   -4.3502    1.8360 H       1  LIG1        0.0278
     33 H          -7.5604   -3.5009    0.4034 H       1  LIG1        0.0278
     34 H          -6.3058   -2.7703    1.4076 H       1  LIG1        0.0278
     35 H          -6.2832   -6.5265    0.0902 H       1  LIG1        0.0635
@<TRIPOS>BOND
     1    29    28    1
     2    30    27    1
     3    21    19    1
     4    10     8    1
     5    12     3    1
     6    28    27   ar
     7    28    24   ar
     8    27    26   ar
     9    23    15    1
    10     3     4   ar
    11     3     2   ar
    12    15    16   ar
    13    15    14   ar
    14    24    16    1
    15    24    25   ar
    16    19    14    1
    17    19    22    1
    18    19    20    1
    19    16    17   ar
    20    14    13   ar
    21     8     9    1
    22     8     2    1
    23     8    11    1
    24    26    35    1
    25    26    25   ar
    26    17    13   ar
    27    17    18    1
    28    13     4    1
    29     4     5   ar
    30     2     1   ar
    31    25    31    1
    32    33    31    1
    33    31    34    1
    34    31    32    1
    35     5     1   ar
    36     5     6    1
    37     1     7    1
