@<TRIPOS>MOLECULE
mol_data/opt/b3lyp/geoms/mol2/13ia13ia13ia-13ia.out
 46 49 0 0 0
SMALL
GASTEIGER

@<TRIPOS>ATOM
      1 C           1.2722   -0.1221    0.1012 C.ar    1  LIG1        0.0051
      2 C           0.8689    1.0490   -0.5049 C.ar    1  LIG1       -0.0325
      3 C          -0.5552    0.9950   -0.5924 C.ar    1  LIG1       -0.0321
      4 C          -0.9833   -0.2012   -0.0370 C.ar    1  LIG1        0.0634
      5 N           0.1537   -0.8847    0.3627 N.ar    1  LIG1       -0.3593
      6 H           0.1374   -1.6947    0.9617 H       1  LIG1        0.1654
      7 H           2.2614   -0.4747    0.3546 H       1  LIG1        0.0809
      8 C           1.7597    2.1509   -0.9996 C.3     1  LIG1       -0.0383
      9 H           1.5100    3.1115   -0.5340 H       1  LIG1        0.0278
     10 H           1.6727    2.2888   -2.0841 H       1  LIG1        0.0278
     11 H           2.8104    1.9403   -0.7784 H       1  LIG1        0.0278
     12 H          -1.1971    1.7300   -1.0573 H       1  LIG1        0.0642
     13 C          -2.3046   -0.7693    0.1373 C.ar    1  LIG1        0.0663
     14 C          -3.5314   -0.1809    0.4265 C.ar    1  LIG1       -0.0231
     15 C          -4.4849   -1.2331    0.5163 C.ar    1  LIG1       -0.0314
     16 C          -3.8394   -2.4404    0.2842 C.ar    1  LIG1        0.0639
     17 N          -2.5046   -2.1431    0.0797 N.ar    1  LIG1       -0.3517
     18 H          -1.8539   -2.7808   -0.3512 H       1  LIG1        0.1660
     19 C          -3.7918    1.2784    0.6564 C.3     1  LIG1       -0.0376
     20 H          -4.5288    1.4267    1.4527 H       1  LIG1        0.0278
     21 H          -4.1851    1.7729   -0.2413 H       1  LIG1        0.0278
     22 H          -2.8742    1.8022    0.9399 H       1  LIG1        0.0278
     23 H          -5.5262   -1.1204    0.7889 H       1  LIG1        0.0642
     24 C          -4.3524   -3.7901    0.2261 C.ar    1  LIG1        0.0663
     25 C          -3.7547   -5.0340    0.4357 C.ar    1  LIG1       -0.0231
     26 C          -4.7686   -6.0141    0.2627 C.ar    1  LIG1       -0.0314
     27 C          -5.9607   -5.3706   -0.0480 C.ar    1  LIG1        0.0639
     28 N          -5.6867   -4.0199   -0.0550 N.ar    1  LIG1       -0.3517
     29 H          -6.3196   -3.3103   -0.3870 H       1  LIG1        0.1660
     30 C          -2.3285   -5.3004    0.8247 C.3     1  LIG1       -0.0376
     31 H          -1.9266   -4.4987    1.4530 H       1  LIG1        0.0278
     32 H          -1.6651   -5.4037   -0.0461 H       1  LIG1        0.0278
     33 H          -2.2483   -6.2333    1.3910 H       1  LIG1        0.0278
     34 H          -4.6495   -7.0793    0.4123 H       1  LIG1        0.0642
     35 C          -7.2752   -5.9019   -0.3404 C.ar    1  LIG1        0.0658
     36 C          -8.5573   -5.3748   -0.1845 C.ar    1  LIG1       -0.0238
     37 C          -9.4714   -6.3752   -0.6253 C.ar    1  LIG1       -0.0409
     38 C          -8.7442   -7.4726   -1.0316 C.ar    1  LIG1        0.0025
     39 N          -7.4168   -7.1792   -0.8506 N.ar    1  LIG1       -0.3593
     40 H          -6.6424   -7.7603   -1.1274 H       1  LIG1        0.1654
     41 H          -9.0591   -8.4264   -1.4272 H       1  LIG1        0.0807
     42 C          -8.9217   -4.0276    0.3723 C.3     1  LIG1       -0.0377
     43 H          -9.9148   -4.0542    0.8312 H       1  LIG1        0.0278
     44 H          -8.9542   -3.2455   -0.3997 H       1  LIG1        0.0278
     45 H          -8.2138   -3.7023    1.1420 H       1  LIG1        0.0278
     46 H         -10.5499   -6.2939   -0.6265 H       1  LIG1        0.0635
@<TRIPOS>BOND
     1    10     8    1
     2    41    38    1
     3    40    39    1
     4    12     3    1
     5    38    39   ar
     6    38    37   ar
     7     8    11    1
     8     8     9    1
     9     8     2    1
    10    39    35   ar
    11    46    37    1
    12    37    36   ar
    13     3     2   ar
    14     3     4   ar
    15     2     1   ar
    16    44    42    1
    17    29    28    1
    18    18    17    1
    19    35    36   ar
    20    35    27    1
    21    21    19    1
    22    36    42    1
    23    28    27   ar
    24    28    24   ar
    25    27    26   ar
    26    32    30    1
    27     4    13    1
    28     4     5   ar
    29    17    13   ar
    30    17    16   ar
    31     1     7    1
    32     1     5   ar
    33    13    14   ar
    34    24    16    1
    35    24    25   ar
    36    26    34    1
    37    26    25   ar
    38    16    15   ar
    39     5     6    1
    40    42    43    1
    41    42    45    1
    42    14    15   ar
    43    14    19    1
    44    25    30    1
    45    15    23    1
    46    19    22    1
    47    19    20    1
    48    30    33    1
    49    30    31    1
