@<TRIPOS>MOLECULE
mol_data/opt/b3lyp/geoms/mol2/13ia13ia-13ia.out
 35 37 0 0 0
SMALL
GASTEIGER

@<TRIPOS>ATOM
      1 C           1.2096   -0.3048   -0.5333 C.ar    1  LIG1        0.0051
      2 C           0.8465    0.9729   -0.1590 C.ar    1  LIG1       -0.0325
      3 C          -0.5524    0.9340    0.1158 C.ar    1  LIG1       -0.0321
      4 C          -1.0057   -0.3615   -0.0979 C.ar    1  LIG1        0.0634
      5 N           0.0905   -1.1054   -0.4868 N.ar    1  LIG1       -0.3593
      6 H           0.0449   -2.0613   -0.7982 H       1  LIG1        0.1654
      7 H           2.1719   -0.7044   -0.8179 H       1  LIG1        0.0809
      8 C           1.7558    2.1614   -0.0444 C.3     1  LIG1       -0.0383
      9 H           1.7860    2.5531    0.9795 H       1  LIG1        0.0278
     10 H           1.4308    2.9842   -0.6923 H       1  LIG1        0.0278
     11 H           2.7808    1.9043   -0.3282 H       1  LIG1        0.0278
     12 H          -1.1543    1.7562    0.4801 H       1  LIG1        0.0642
     13 C          -2.3344   -0.9278    0.0111 C.ar    1  LIG1        0.0663
     14 C          -2.7894   -2.2139    0.3009 C.ar    1  LIG1       -0.0231
     15 C          -4.2099   -2.1609    0.2943 C.ar    1  LIG1       -0.0314
     16 C          -4.6047   -0.8604    0.0051 C.ar    1  LIG1        0.0639
     17 N          -3.4489   -0.1267   -0.1539 N.ar    1  LIG1       -0.3517
     18 H          -3.4129    0.8162   -0.5059 H       1  LIG1        0.1660
     19 C          -1.9541   -3.4217    0.6178 C.3     1  LIG1       -0.0376
     20 H          -1.0112   -3.1449    1.1008 H       1  LIG1        0.0278
     21 H          -1.7090   -4.0122   -0.2766 H       1  LIG1        0.0278
     22 H          -2.4852   -4.0937    1.2992 H       1  LIG1        0.0278
     23 H          -4.8736   -2.9798    0.5396 H       1  LIG1        0.0642
     24 C          -5.9238   -0.2815   -0.1419 C.ar    1  LIG1        0.0658
     25 C          -6.4098    1.0111    0.0543 C.ar    1  LIG1       -0.0238
     26 C          -7.8070    0.9737   -0.2241 C.ar    1  LIG1       -0.0409
     27 C          -8.1405   -0.3158   -0.5760 C.ar    1  LIG1        0.0025
     28 N          -6.9958   -1.0691   -0.5188 N.ar    1  LIG1       -0.3593
     29 H          -6.9119   -2.0348   -0.7914 H       1  LIG1        0.1654
     30 H          -9.0868   -0.7533   -0.8565 H       1  LIG1        0.0807
     31 C          -5.6298    2.2138    0.5046 C.3     1  LIG1       -0.0377
     32 H          -6.2777    2.9200    1.0328 H       1  LIG1        0.0278
     33 H          -5.1826    2.7663   -0.3342 H       1  LIG1        0.0278
     34 H          -4.8194    1.9388    1.1878 H       1  LIG1        0.0278
     35 H          -8.4907    1.8091   -0.1564 H       1  LIG1        0.0635
@<TRIPOS>BOND
     1    30    27    1
     2     7     1    1
     3     6     5    1
     4    29    28    1
     5    10     8    1
     6    27    28   ar
     7    27    26   ar
     8     1     5   ar
     9     1     2   ar
    10    28    24   ar
    11    18    17    1
    12     5     4   ar
    13    33    31    1
    14    11     8    1
    15    21    19    1
    16    26    35    1
    17    26    25   ar
    18     2     8    1
    19     2     3   ar
    20    17    16   ar
    21    17    13   ar
    22    24    16    1
    23    24    25   ar
    24     4    13    1
    25     4     3   ar
    26     8     9    1
    27    16    15   ar
    28    13    14   ar
    29    25    31    1
    30     3    12    1
    31    15    14   ar
    32    15    23    1
    33    14    19    1
    34    31    32    1
    35    31    34    1
    36    19    20    1
    37    19    22    1
