@<TRIPOS>MOLECULE
mol_data/opt/b3lyp/geoms/mol2/13ia13ia13ia13ia.out
 46 49 0 0 0
SMALL
GASTEIGER

@<TRIPOS>ATOM
      1 C           0.7413    0.1194    1.6045 C.ar    1  LIG1        0.0051
      2 C           0.8496    0.9828    0.5352 C.ar    1  LIG1       -0.0325
      3 C          -0.3207    0.7945   -0.2616 C.ar    1  LIG1       -0.0321
      4 C          -1.1104   -0.1721    0.3394 C.ar    1  LIG1        0.0634
      5 N          -0.4315   -0.5940    1.4725 N.ar    1  LIG1       -0.3593
      6 H          -0.8549   -1.1345    2.2102 H       1  LIG1        0.1654
      7 H           1.4081   -0.0502    2.4375 H       1  LIG1        0.0809
      8 C           1.9903    1.9164    0.2529 C.3     1  LIG1       -0.0383
      9 H           1.6502    2.9554    0.1721 H       1  LIG1        0.0278
     10 H           2.4943    1.6703   -0.6894 H       1  LIG1        0.0278
     11 H           2.7414    1.8758    1.0476 H       1  LIG1        0.0278
     12 H          -0.5409    1.2786   -1.2028 H       1  LIG1        0.0642
     13 C          -2.3900   -0.7444   -0.0370 C.ar    1  LIG1        0.0663
     14 C          -3.5382   -0.1643   -0.5687 C.ar    1  LIG1       -0.0231
     15 C          -4.5030   -1.2003   -0.7054 C.ar    1  LIG1       -0.0314
     16 C          -3.9478   -2.3903   -0.2577 C.ar    1  LIG1        0.0639
     17 N          -2.6574   -2.0933    0.1431 N.ar    1  LIG1       -0.3517
     18 H          -2.0106   -2.7537    0.5439 H       1  LIG1        0.1660
     19 C          -3.7261    1.2818   -0.9216 C.3     1  LIG1       -0.0376
     20 H          -4.7307    1.6248   -0.6523 H       1  LIG1        0.0278
     21 H          -3.6028    1.4635   -1.9971 H       1  LIG1        0.0278
     22 H          -2.9998    1.9118   -0.3999 H       1  LIG1        0.0278
     23 H          -5.4971   -1.0967   -1.1173 H       1  LIG1        0.0642
     24 C          -4.4803   -3.7379   -0.1911 C.ar    1  LIG1        0.0663
     25 C          -5.7399   -4.2129    0.1644 C.ar    1  LIG1       -0.0231
     26 C          -5.6900   -5.6319    0.0782 C.ar    1  LIG1       -0.0314
     27 C          -4.4161   -6.0105   -0.3190 C.ar    1  LIG1        0.0639
     28 N          -3.6922   -4.8431   -0.4782 N.ar    1  LIG1       -0.3517
     29 H          -2.7278   -4.8037   -0.7667 H       1  LIG1        0.1660
     30 C          -6.9231   -3.3851    0.5714 C.3     1  LIG1       -0.0376
     31 H          -7.4741   -3.8612    1.3895 H       1  LIG1        0.0278
     32 H          -7.6325   -3.2459   -0.2545 H       1  LIG1        0.0278
     33 H          -6.6123   -2.3905    0.9042 H       1  LIG1        0.0278
     34 H          -6.5102   -6.3118    0.2619 H       1  LIG1        0.0642
     35 C          -3.8287   -7.3125   -0.5770 C.ar    1  LIG1        0.0658
     36 C          -3.9553   -8.5276    0.0869 C.ar    1  LIG1       -0.0238
     37 C          -3.1259   -9.4642   -0.6004 C.ar    1  LIG1       -0.0409
     38 C          -2.5199   -8.8127   -1.6499 C.ar    1  LIG1        0.0025
     39 N          -2.9306   -7.5011   -1.6202 N.ar    1  LIG1       -0.3593
     40 H          -2.8019   -6.8441   -2.3734 H       1  LIG1        0.1654
     41 H          -1.8317   -9.1665   -2.4030 H       1  LIG1        0.0807
     42 C          -4.7751   -8.7948    1.3148 C.3     1  LIG1       -0.0377
     43 H          -4.2338   -9.4338    2.0210 H       1  LIG1        0.0278
     44 H          -5.7167   -9.3064    1.0774 H       1  LIG1        0.0278
     45 H          -5.0311   -7.8632    1.8277 H       1  LIG1        0.0278
     46 H          -2.9804  -10.5019   -0.3317 H       1  LIG1        0.0635
@<TRIPOS>BOND
     1    41    38    1
     2    40    39    1
     3    21    19    1
     4    38    39   ar
     5    38    37   ar
     6    39    35   ar
     7    12     3    1
     8    23    15    1
     9    19    20    1
    10    19    14    1
    11    19    22    1
    12    29    28    1
    13    15    14   ar
    14    15    16   ar
    15    10     8    1
    16    37    46    1
    17    37    36   ar
    18    35    27    1
    19    35    36   ar
    20    14    13   ar
    21    28    27   ar
    22    28    24   ar
    23    27    26   ar
    24     3     4   ar
    25     3     2   ar
    26    16    24    1
    27    16    17   ar
    28    32    30    1
    29    24    25   ar
    30    13    17   ar
    31    13     4    1
    32    26    25   ar
    33    26    34    1
    34    36    42    1
    35    17    18    1
    36    25    30    1
    37     9     8    1
    38     8     2    1
    39     8    11    1
    40     4     5   ar
    41     2     1   ar
    42    30    33    1
    43    30    31    1
    44    44    42    1
    45    42    45    1
    46    42    43    1
    47     5     1   ar
    48     5     6    1
    49     1     7    1
