@<TRIPOS>MOLECULE
mol_data/opt/b3lyp/geoms/mol2/13ia13ia.out
 24 25 0 0 0
SMALL
GASTEIGER

@<TRIPOS>ATOM
      1 C           1.1076   -0.2650    0.5351 C.ar    1  LIG1        0.0051
      2 C           0.8088    0.9435   -0.0574 C.ar    1  LIG1       -0.0325
      3 C          -0.5780    0.9005   -0.3968 C.ar    1  LIG1       -0.0321
      4 C          -1.0883   -0.3252   -0.0017 C.ar    1  LIG1        0.0634
      5 N          -0.0345   -1.0374    0.5481 N.ar    1  LIG1       -0.3593
      6 H          -0.1513   -1.8814    1.0859 H       1  LIG1        0.1654
      7 H           2.0396   -0.6373    0.9350 H       1  LIG1        0.0809
      8 C           1.7653    2.0702   -0.3188 C.3     1  LIG1       -0.0383
      9 H           1.4247    3.0040    0.1437 H       1  LIG1        0.0278
     10 H           1.8792    2.2677   -1.3916 H       1  LIG1        0.0278
     11 H           2.7590    1.8471    0.0814 H       1  LIG1        0.0278
     12 H          -1.1350    1.6662   -0.9187 H       1  LIG1        0.0642
     13 C          -2.4188   -0.8991   -0.0996 C.ar    1  LIG1        0.0658
     14 C          -3.6801   -0.3415    0.0779 C.ar    1  LIG1       -0.0238
     15 C          -4.6284   -1.3890   -0.1243 C.ar    1  LIG1       -0.0409
     16 C          -3.9382   -2.5439   -0.4137 C.ar    1  LIG1        0.0025
     17 N          -2.5968   -2.2473   -0.3784 N.ar    1  LIG1       -0.3593
     18 H          -1.8624   -2.8502   -0.7134 H       1  LIG1        0.1654
     19 H          -4.2853   -3.5429   -0.6319 H       1  LIG1        0.0807
     20 C          -3.9847    1.0804    0.4481 C.3     1  LIG1       -0.0377
     21 H          -4.7880    1.1328    1.1912 H       1  LIG1        0.0278
     22 H          -4.3109    1.6707   -0.4180 H       1  LIG1        0.0278
     23 H          -3.1031    1.5751    0.8659 H       1  LIG1        0.0278
     24 H          -5.7034   -1.2984   -0.0444 H       1  LIG1        0.0635
@<TRIPOS>BOND
     1    10     8    1
     2    12     3    1
     3    18    17    1
     4    19    16    1
     5    22    20    1
     6    16    17   ar
     7    16    15   ar
     8     3     2   ar
     9     3     4   ar
    10    17    13   ar
    11     8     2    1
    12     8    11    1
    13     8     9    1
    14    15    24    1
    15    15    14   ar
    16    13     4    1
    17    13    14   ar
    18     2     1   ar
    19     4     5   ar
    20    14    20    1
    21    20    23    1
    22    20    21    1
    23     1     5   ar
    24     1     7    1
    25     5     6    1
