@<TRIPOS>MOLECULE
mol_data/opt/b3lyp/geoms/mol2/13ia13ia-13ia-13ia.out
 46 49 0 0 0
SMALL
GASTEIGER

@<TRIPOS>ATOM
      1 C           1.2512   -0.1675   -0.4902 C.ar    1  LIG1        0.0051
      2 C           0.9023    0.8684    0.3524 C.ar    1  LIG1       -0.0325
      3 C          -0.4938    0.7312    0.6074 C.ar    1  LIG1       -0.0321
      4 C          -0.9606   -0.3794   -0.0851 C.ar    1  LIG1        0.0634
      5 N           0.1265   -0.9191   -0.7434 N.ar    1  LIG1       -0.3593
      6 H           0.0725   -1.6849   -1.3941 H       1  LIG1        0.1654
      7 H           2.2077   -0.4304   -0.9178 H       1  LIG1        0.0809
      8 C           1.8225    1.9170    0.9057 C.3     1  LIG1       -0.0383
      9 H           1.8612    1.8870    2.0012 H       1  LIG1        0.0278
     10 H           1.5022    2.9272    0.6242 H       1  LIG1        0.0278
     11 H           2.8436    1.7809    0.5370 H       1  LIG1        0.0278
     12 H          -1.0822    1.3542    1.2687 H       1  LIG1        0.0642
     13 C          -2.2907   -0.9441   -0.1831 C.ar    1  LIG1        0.0663
     14 C          -2.7472   -2.2371   -0.4413 C.ar    1  LIG1       -0.0231
     15 C          -4.1659   -2.2000   -0.3711 C.ar    1  LIG1       -0.0314
     16 C          -4.5623   -0.9041   -0.0671 C.ar    1  LIG1        0.0639
     17 N          -3.4059   -0.1537    0.0272 N.ar    1  LIG1       -0.3517
     18 H          -3.3654    0.8041    0.3377 H       1  LIG1        0.1660
     19 C          -1.9136   -3.4525   -0.7325 C.3     1  LIG1       -0.0376
     20 H          -0.9731   -3.4433   -0.1707 H       1  LIG1        0.0278
     21 H          -1.6636   -3.5497   -1.7988 H       1  LIG1        0.0278
     22 H          -2.4506   -4.3641   -0.4540 H       1  LIG1        0.0278
     23 H          -4.8333   -3.0296   -0.5572 H       1  LIG1        0.0642
     24 C          -5.8701   -0.3116    0.1114 C.ar    1  LIG1        0.0663
     25 C          -7.0508   -0.8272    0.6378 C.ar    1  LIG1       -0.0231
     26 C          -8.0139    0.2192    0.5974 C.ar    1  LIG1       -0.0314
     27 C          -7.4209    1.3502    0.0535 C.ar    1  LIG1        0.0639
     28 N          -6.1066    1.0182   -0.2153 N.ar    1  LIG1       -0.3517
     29 H          -5.5176    1.5551   -0.8322 H       1  LIG1        0.1660
     30 C          -7.2547   -2.2045    1.1955 C.3     1  LIG1       -0.0376
     31 H          -6.3078   -2.6378    1.5311 H       1  LIG1        0.0278
     32 H          -7.6822   -2.8915    0.4534 H       1  LIG1        0.0278
     33 H          -7.9413   -2.1864    2.0484 H       1  LIG1        0.0278
     34 H          -9.0206    0.1659    0.9912 H       1  LIG1        0.0642
     35 C          -7.9651    2.6596   -0.2376 C.ar    1  LIG1        0.0658
     36 C          -7.3818    3.9247   -0.3132 C.ar    1  LIG1       -0.0238
     37 C          -8.4275    4.8445   -0.6155 C.ar    1  LIG1       -0.0409
     38 C          -9.6058    4.1374   -0.7144 C.ar    1  LIG1        0.0025
     39 N          -9.3172    2.8176   -0.4796 N.ar    1  LIG1       -0.3593
     40 H          -9.9652    2.0503   -0.5540 H       1  LIG1        0.1654
     41 H         -10.6129    4.4622   -0.9281 H       1  LIG1        0.0807
     42 C          -5.9375    4.2718   -0.0872 C.3     1  LIG1       -0.0377
     43 H          -5.8395    5.2883    0.3062 H       1  LIG1        0.0278
     44 H          -5.3437    4.2349   -1.0118 H       1  LIG1        0.0278
     45 H          -5.4684    3.5940    0.6337 H       1  LIG1        0.0278
     46 H          -8.3188    5.9143   -0.7319 H       1  LIG1        0.0635
@<TRIPOS>BOND
     1    21    19    1
     2     6     5    1
     3    44    42    1
     4    41    38    1
     5     7     1    1
     6    29    28    1
     7     5     1   ar
     8     5     4   ar
     9    19    22    1
    10    19    14    1
    11    19    20    1
    12    46    37    1
    13    38    37   ar
    14    38    39   ar
    15    37    36   ar
    16    23    15    1
    17    40    39    1
    18     1     2   ar
    19    39    35   ar
    20    14    15   ar
    21    14    13   ar
    22    15    16   ar
    23    36    35   ar
    24    36    42    1
    25    35    27    1
    26    28    27   ar
    27    28    24   ar
    28    13     4    1
    29    13    17   ar
    30    42    43    1
    31    42    45    1
    32     4     3   ar
    33    16    17   ar
    34    16    24    1
    35    17    18    1
    36    27    26   ar
    37    24    25   ar
    38     2     3   ar
    39     2     8    1
    40    32    30    1
    41    11     8    1
    42    26    25   ar
    43    26    34    1
    44     3    12    1
    45    10     8    1
    46    25    30    1
    47     8     9    1
    48    30    31    1
    49    30    33    1
