@<TRIPOS>MOLECULE
mol_data/opt/b3lyp/geoms/mol2/13ia13ia-13ia13ia-.out
 46 49 0 0 0
SMALL
GASTEIGER

@<TRIPOS>ATOM
      1 C           1.2282   -0.2452   -0.7900 C.ar    1  LIG1        0.0051
      2 C           0.8940    1.0222   -0.3579 C.ar    1  LIG1       -0.0325
      3 C          -0.4777    0.9713    0.0289 C.ar    1  LIG1       -0.0321
      4 C          -0.9440   -0.3211   -0.1771 C.ar    1  LIG1        0.0634
      5 N           0.1186   -1.0513   -0.6710 N.ar    1  LIG1       -0.3593
      6 H           0.0506   -2.0004   -0.9987 H       1  LIG1        0.1654
      7 H           2.1651   -0.6342   -1.1610 H       1  LIG1        0.0809
      8 C           1.8075    2.2112   -0.2895 C.3     1  LIG1       -0.0383
      9 H           1.9131    2.5840    0.7363 H       1  LIG1        0.0278
     10 H           1.4343    3.0449   -0.8963 H       1  LIG1        0.0278
     11 H           2.8089    1.9620   -0.6531 H       1  LIG1        0.0278
     12 H          -1.0499    1.7823    0.4599 H       1  LIG1        0.0642
     13 C          -2.2575   -0.8949    0.0281 C.ar    1  LIG1        0.0663
     14 C          -2.6854   -2.1918    0.3126 C.ar    1  LIG1       -0.0231
     15 C          -4.1005   -2.1441    0.4310 C.ar    1  LIG1       -0.0314
     16 C          -4.5200   -0.8351    0.2229 C.ar    1  LIG1        0.0639
     17 N          -3.3822   -0.0916   -0.0105 N.ar    1  LIG1       -0.3517
     18 H          -3.3770    0.8609   -0.3372 H       1  LIG1        0.1660
     19 C          -1.8254   -3.4070    0.5137 C.3     1  LIG1       -0.0376
     20 H          -0.8510   -3.1463    0.9398 H       1  LIG1        0.0278
     21 H          -1.6435   -3.9552   -0.4218 H       1  LIG1        0.0278
     22 H          -2.3040   -4.1122    1.2001 H       1  LIG1        0.0278
     23 H          -4.7400   -2.9732    0.7040 H       1  LIG1        0.0642
     24 C          -5.8458   -0.2594    0.2126 C.ar    1  LIG1        0.0663
     25 C          -6.3131    1.0305    0.4686 C.ar    1  LIG1       -0.0231
     26 C          -7.7266    0.9923    0.3313 C.ar    1  LIG1       -0.0314
     27 C          -8.1066   -0.3021   -0.0034 C.ar    1  LIG1        0.0639
     28 N          -6.9488   -1.0479   -0.0601 N.ar    1  LIG1       -0.3517
     29 H          -6.8913   -1.9871   -0.4188 H       1  LIG1        0.1660
     30 C          -5.4972    2.2270    0.8678 C.3     1  LIG1       -0.0376
     31 H          -6.0936    2.9206    1.4683 H       1  LIG1        0.0278
     32 H          -5.1316    2.7963    0.0013 H       1  LIG1        0.0278
     33 H          -4.6261    1.9405    1.4661 H       1  LIG1        0.0278
     34 H          -8.4014    1.8168    0.5211 H       1  LIG1        0.0642
     35 C          -9.4119   -0.8652   -0.2766 C.ar    1  LIG1        0.0658
     36 C          -9.9246   -2.1559   -0.1450 C.ar    1  LIG1       -0.0238
     37 C         -11.2908   -2.1005   -0.5464 C.ar    1  LIG1       -0.0409
     38 C         -11.5806   -0.8024   -0.9059 C.ar    1  LIG1        0.0025
     39 N         -10.4393   -0.0614   -0.7347 N.ar    1  LIG1       -0.3593
     40 H         -10.3232    0.9073   -0.9842 H       1  LIG1        0.1654
     41 H         -12.4942   -0.3513   -1.2627 H       1  LIG1        0.0807
     42 C          -9.1987   -3.3728    0.3549 C.3     1  LIG1       -0.0377
     43 H          -8.4533   -3.1165    1.1151 H       1  LIG1        0.0278
     44 H          -8.6795   -3.9156   -0.4481 H       1  LIG1        0.0278
     45 H          -9.8983   -4.0817    0.8083 H       1  LIG1        0.0278
     46 H         -11.9850   -2.9298   -0.5530 H       1  LIG1        0.0635
@<TRIPOS>BOND
     1    41    38    1
     2     7     1    1
     3     6     5    1
     4    40    39    1
     5    38    39   ar
     6    38    37   ar
     7    10     8    1
     8     1     5   ar
     9     1     2   ar
    10    39    35   ar
    11     5     4   ar
    12    11     8    1
    13    46    37    1
    14    37    36   ar
    15    44    42    1
    16    21    19    1
    17    29    28    1
    18     2     8    1
    19     2     3   ar
    20    18    17    1
    21     8     9    1
    22    35    36   ar
    23    35    27    1
    24     4    13    1
    25     4     3   ar
    26    36    42    1
    27    28    27   ar
    28    28    24   ar
    29    17    13   ar
    30    17    16   ar
    31    27    26   ar
    32    32    30    1
    33    13    14   ar
    34     3    12    1
    35    24    16    1
    36    24    25   ar
    37    16    15   ar
    38    14    15   ar
    39    14    19    1
    40    26    25   ar
    41    26    34    1
    42    42    45    1
    43    42    43    1
    44    15    23    1
    45    25    30    1
    46    19    20    1
    47    19    22    1
    48    30    33    1
    49    30    31    1
