@<TRIPOS>MOLECULE
mol_data/opt/b3lyp/geoms/mol2/13ia13ia13ia13ia-.out
 46 49 0 0 0
SMALL
GASTEIGER

@<TRIPOS>ATOM
      1 C           0.9040    0.1979    1.1664 C.ar    1  LIG1        0.0051
      2 C           0.8375    1.0813    0.1102 C.ar    1  LIG1       -0.0325
      3 C          -0.4292    0.8743   -0.5164 C.ar    1  LIG1       -0.0321
      4 C          -1.1014   -0.1234    0.1711 C.ar    1  LIG1        0.0634
      5 N          -0.2576   -0.5450    1.1876 N.ar    1  LIG1       -0.3593
      6 H          -0.5579   -1.1099    1.9663 H       1  LIG1        0.1654
      7 H           1.6867    0.0326    1.8925 H       1  LIG1        0.0809
      8 C           1.9029    2.0500   -0.3128 C.3     1  LIG1       -0.0383
      9 H           1.5292    3.0806   -0.3246 H       1  LIG1        0.0278
     10 H           2.2736    1.8325   -1.3217 H       1  LIG1        0.0278
     11 H           2.7602    2.0176    0.3664 H       1  LIG1        0.0278
     12 H          -0.7919    1.3673   -1.4075 H       1  LIG1        0.0642
     13 C          -2.4068   -0.7236   -0.0300 C.ar    1  LIG1        0.0663
     14 C          -3.6306   -0.1679   -0.3936 C.ar    1  LIG1       -0.0231
     15 C          -4.5823   -1.2244   -0.4017 C.ar    1  LIG1       -0.0314
     16 C          -3.9431   -2.4033   -0.0418 C.ar    1  LIG1        0.0639
     17 N          -2.6175   -2.0783    0.1787 N.ar    1  LIG1       -0.3517
     18 H          -1.9053   -2.7317    0.4628 H       1  LIG1        0.1660
     19 C          -3.8978    1.2748   -0.7069 C.3     1  LIG1       -0.0376
     20 H          -4.8700    1.5890   -0.3127 H       1  LIG1        0.0278
     21 H          -3.9125    1.4667   -1.7876 H       1  LIG1        0.0278
     22 H          -3.1292    1.9208   -0.2725 H       1  LIG1        0.0278
     23 H          -5.6257   -1.1404   -0.6712 H       1  LIG1        0.0642
     24 C          -4.4255   -3.7619    0.0924 C.ar    1  LIG1        0.0663
     25 C          -5.6401   -4.2672    0.5447 C.ar    1  LIG1       -0.0231
     26 C          -5.5443   -5.6864    0.4914 C.ar    1  LIG1       -0.0314
     27 C          -4.2884   -6.0304    0.0122 C.ar    1  LIG1        0.0639
     28 N          -3.6072   -4.8467   -0.2022 N.ar    1  LIG1       -0.3517
     29 H          -2.7882   -4.7837   -0.7865 H       1  LIG1        0.1660
     30 C          -6.8079   -3.4716    1.0479 C.3     1  LIG1       -0.0376
     31 H          -7.2910   -3.9711    1.8943 H       1  LIG1        0.0278
     32 H          -7.5756   -3.3340    0.2754 H       1  LIG1        0.0278
     33 H          -6.4941   -2.4759    1.3747 H       1  LIG1        0.0278
     34 H          -6.2979   -6.3834    0.8346 H       1  LIG1        0.0642
     35 C          -3.7007   -7.3240   -0.2662 C.ar    1  LIG1        0.0658
     36 C          -2.3807   -7.7755   -0.2713 C.ar    1  LIG1       -0.0238
     37 C          -2.4193   -9.1617   -0.6000 C.ar    1  LIG1       -0.0409
     38 C          -3.7362   -9.5225   -0.7837 C.ar    1  LIG1        0.0025
     39 N          -4.5043   -8.4059   -0.5746 N.ar    1  LIG1       -0.3593
     40 H          -5.5002   -8.3420   -0.7094 H       1  LIG1        0.1654
     41 H          -4.1831  -10.4709   -1.0410 H       1  LIG1        0.0807
     42 C          -1.1480   -6.9753    0.0409 C.3     1  LIG1       -0.0377
     43 H          -1.3581   -6.1773    0.7609 H       1  LIG1        0.0278
     44 H          -0.7091   -6.5085   -0.8524 H       1  LIG1        0.0278
     45 H          -0.3706   -7.6124    0.4739 H       1  LIG1        0.0278
     46 H          -1.5651   -9.8206   -0.6775 H       1  LIG1        0.0635
@<TRIPOS>BOND
     1    21    19    1
     2    12     3    1
     3    10     8    1
     4    41    38    1
     5    44    42    1
     6    29    28    1
     7    38    37   ar
     8    38    39   ar
     9    40    39    1
    10    19    14    1
    11    19    20    1
    12    19    22    1
    13    46    37    1
    14    23    15    1
    15    37    36   ar
    16    39    35   ar
    17     3     2   ar
    18     3     4   ar
    19    15    14   ar
    20    15    16   ar
    21    14    13   ar
    22     9     8    1
    23     8     2    1
    24     8    11    1
    25    36    35   ar
    26    36    42    1
    27    35    27    1
    28    28    27   ar
    29    28    24   ar
    30    16    24    1
    31    16    17   ar
    32    13     4    1
    33    13    17   ar
    34    27    26   ar
    35    42    45    1
    36    42    43    1
    37    24    25   ar
    38     2     1   ar
    39     4     5   ar
    40    17    18    1
    41    32    30    1
    42    26    25   ar
    43    26    34    1
    44    25    30    1
    45    30    33    1
    46    30    31    1
    47     1     5   ar
    48     1     7    1
    49     5     6    1
