@<TRIPOS>MOLECULE
mol_data/opt/b3lyp/geoms/mol2/13ia13ia-13ia-13ia-.out
 46 49 0 0 0
SMALL
GASTEIGER

@<TRIPOS>ATOM
      1 C           1.2505   -0.0252   -0.1174 C.ar    1  LIG1        0.0051
      2 C           0.8007    0.9272    0.7744 C.ar    1  LIG1       -0.0325
      3 C          -0.6078    0.7392    0.8925 C.ar    1  LIG1       -0.0321
      4 C          -0.9810   -0.3177    0.0715 C.ar    1  LIG1        0.0634
      5 N           0.1738   -0.7759   -0.5309 N.ar    1  LIG1       -0.3593
      6 H           0.1981   -1.4854   -1.2442 H       1  LIG1        0.1654
      7 H           2.2476   -0.2305   -0.4787 H       1  LIG1        0.0809
      8 C           1.6392    1.9433    1.4936 C.3     1  LIG1       -0.0383
      9 H           1.5838    1.8190    2.5817 H       1  LIG1        0.0278
     10 H           1.3153    2.9670    1.2714 H       1  LIG1        0.0278
     11 H           2.6919    1.8615    1.2068 H       1  LIG1        0.0278
     12 H          -1.2686    1.2899    1.5496 H       1  LIG1        0.0642
     13 C          -2.2811   -0.9009   -0.1898 C.ar    1  LIG1        0.0663
     14 C          -2.6769   -2.1808   -0.5782 C.ar    1  LIG1       -0.0231
     15 C          -4.0972   -2.1779   -0.6348 C.ar    1  LIG1       -0.0314
     16 C          -4.5549   -0.9170   -0.2794 C.ar    1  LIG1        0.0639
     17 N          -3.4318   -0.1502   -0.0288 N.ar    1  LIG1       -0.3517
     18 H          -3.4418    0.7760    0.3684 H       1  LIG1        0.1660
     19 C          -1.7876   -3.3542   -0.8766 C.3     1  LIG1       -0.0376
     20 H          -0.8964   -3.3596   -0.2398 H       1  LIG1        0.0278
     21 H          -1.4496   -3.3749   -1.9226 H       1  LIG1        0.0278
     22 H          -2.3189   -4.2947   -0.7022 H       1  LIG1        0.0278
     23 H          -4.7232   -3.0051   -0.9386 H       1  LIG1        0.0642
     24 C          -5.8934   -0.3706   -0.1798 C.ar    1  LIG1        0.0663
     25 C          -7.0866   -0.9364    0.2630 C.ar    1  LIG1       -0.0231
     26 C          -8.0847    0.0724    0.1728 C.ar    1  LIG1       -0.0314
     27 C          -7.5028    1.2344   -0.3126 C.ar    1  LIG1        0.0639
     28 N          -6.1672    0.9450   -0.5238 N.ar    1  LIG1       -0.3517
     29 H          -5.4867    1.6046   -0.8654 H       1  LIG1        0.1660
     30 C          -7.2806   -2.3410    0.7529 C.3     1  LIG1       -0.0376
     31 H          -6.3404   -2.7645    1.1187 H       1  LIG1        0.0278
     32 H          -7.6527   -3.0070   -0.0365 H       1  LIG1        0.0278
     33 H          -8.0092   -2.3742    1.5696 H       1  LIG1        0.0278
     34 H          -9.1322   -0.0435    0.4134 H       1  LIG1        0.0642
     35 C          -8.0547    2.5437   -0.6079 C.ar    1  LIG1        0.0658
     36 C          -8.9909    3.3212    0.0648 C.ar    1  LIG1       -0.0238
     37 C          -9.1318    4.5335   -0.6753 C.ar    1  LIG1       -0.0409
     38 C          -8.2924    4.4730   -1.7638 C.ar    1  LIG1        0.0025
     39 N          -7.6231    3.2734   -1.7087 N.ar    1  LIG1       -0.3593
     40 H          -7.0916    2.8785   -2.4683 H       1  LIG1        0.1654
     41 H          -8.1108    5.1789   -2.5605 H       1  LIG1        0.0807
     42 C          -9.6893    2.9713    1.3458 C.3     1  LIG1       -0.0377
     43 H          -9.1631    2.1718    1.8753 H       1  LIG1        0.0278
     44 H         -10.7175    2.6279    1.1735 H       1  LIG1        0.0278
     45 H          -9.7497    3.8380    2.0130 H       1  LIG1        0.0278
     46 H          -9.7707    5.3667   -0.4153 H       1  LIG1        0.0635
@<TRIPOS>BOND
     1    41    38    1
     2    40    39    1
     3    21    19    1
     4    38    39   ar
     5    38    37   ar
     6    39    35   ar
     7     6     5    1
     8    23    15    1
     9    19    22    1
    10    19    14    1
    11    19    20    1
    12    29    28    1
    13    37    46    1
    14    37    36   ar
    15    15    14   ar
    16    15    16   ar
    17    35    27    1
    18    35    36   ar
    19    14    13   ar
    20     5     1   ar
    21     5     4   ar
    22    28    27   ar
    23    28    24   ar
    24     7     1    1
    25    27    26   ar
    26    16    24    1
    27    16    17   ar
    28    13    17   ar
    29    13     4    1
    30    24    25   ar
    31     1     2   ar
    32    32    30    1
    33    17    18    1
    34    36    42    1
    35     4     3   ar
    36    26    25   ar
    37    26    34    1
    38    25    30    1
    39    30    31    1
    40    30    33    1
    41     2     3   ar
    42     2     8    1
    43     3    12    1
    44    44    42    1
    45    11     8    1
    46    10     8    1
    47    42    43    1
    48    42    45    1
    49     8     9    1
