@<TRIPOS>MOLECULE
mol_data/opt/b3lyp/geoms/mol2/13ia13ia-.out
 24 25 0 0 0
SMALL
GASTEIGER

@<TRIPOS>ATOM
      1 C           1.1490   -0.2303   -0.4142 C.ar    1  LIG1        0.0051
      2 C           0.7602    1.0223    0.0151 C.ar    1  LIG1       -0.0325
      3 C          -0.6524    0.9659    0.2060 C.ar    1  LIG1       -0.0321
      4 C          -1.0875   -0.3136   -0.1123 C.ar    1  LIG1        0.0634
      5 N           0.0318   -1.0317   -0.4818 N.ar    1  LIG1       -0.3593
      6 H           0.0066   -1.9682   -0.8499 H       1  LIG1        0.1654
      7 H           2.1280   -0.6120   -0.6650 H       1  LIG1        0.0809
      8 C           1.6571    2.2013    0.2554 C.3     1  LIG1       -0.0383
      9 H           1.6242    2.5311    1.3007 H       1  LIG1        0.0278
     10 H           1.3702    3.0619   -0.3608 H       1  LIG1        0.0278
     11 H           2.6982    1.9608    0.0197 H       1  LIG1        0.0278
     12 H          -1.2773    1.7637    0.5853 H       1  LIG1        0.0642
     13 C          -2.4193   -0.8893   -0.1163 C.ar    1  LIG1        0.0658
     14 C          -2.8857   -2.1828    0.1122 C.ar    1  LIG1       -0.0238
     15 C          -4.3059   -2.1370   -0.0045 C.ar    1  LIG1       -0.0409
     16 C          -4.6708   -0.8404   -0.2927 C.ar    1  LIG1        0.0025
     17 N          -3.5231   -0.0921   -0.3542 N.ar    1  LIG1       -0.3593
     18 H          -3.4644    0.8790   -0.6144 H       1  LIG1        0.1654
     19 H          -5.6408   -0.3949   -0.4545 H       1  LIG1        0.0807
     20 C          -2.0649   -3.3943    0.4533 C.3     1  LIG1       -0.0377
     21 H          -1.1434   -3.1222    0.9784 H       1  LIG1        0.0278
     22 H          -1.7816   -3.9772   -0.4347 H       1  LIG1        0.0278
     23 H          -2.6245   -4.0722    1.1056 H       1  LIG1        0.0278
     24 H          -4.9820   -2.9712    0.1263 H       1  LIG1        0.0635
@<TRIPOS>BOND
     1     6     5    1
     2     7     1    1
     3    18    17    1
     4     5     1   ar
     5     5     4   ar
     6    19    16    1
     7    22    20    1
     8     1     2   ar
     9    10     8    1
    10    17    16   ar
    11    17    13   ar
    12    16    15   ar
    13    13     4    1
    14    13    14   ar
    15     4     3   ar
    16    15    14   ar
    17    15    24    1
    18     2     3   ar
    19     2     8    1
    20    11     8    1
    21    14    20    1
    22     3    12    1
    23     8     9    1
    24    20    21    1
    25    20    23    1
