@<TRIPOS>MOLECULE
mol_data/opt/b3lyp/geoms/mol2/13ia13ia-4ia13ia.out
 48 51 0 0 0
SMALL
GASTEIGER

@<TRIPOS>ATOM
      1 C           1.3342   -0.6385   -0.7331 C.ar    1  LIG1        0.0051
      2 C           1.0671    0.7094   -0.6018 C.ar    1  LIG1       -0.0325
      3 C          -0.3076    0.8174   -0.2393 C.ar    1  LIG1       -0.0321
      4 C          -0.8426   -0.4623   -0.1604 C.ar    1  LIG1        0.0634
      5 N           0.1817   -1.3386   -0.4585 N.ar    1  LIG1       -0.3593
      6 H           0.0650   -2.3329   -0.5620 H       1  LIG1        0.1654
      7 H           2.2511   -1.1488   -0.9896 H       1  LIG1        0.0809
      8 C           2.0434    1.8347   -0.7841 C.3     1  LIG1       -0.0383
      9 H           2.1646    2.4202    0.1351 H       1  LIG1        0.0278
     10 H           1.7182    2.5307   -1.5666 H       1  LIG1        0.0278
     11 H           3.0314    1.4594   -1.0674 H       1  LIG1        0.0278
     12 H          -0.8376    1.7329   -0.0115 H       1  LIG1        0.0642
     13 C          -2.1870   -0.9077    0.1421 C.ar    1  LIG1        0.0663
     14 C          -2.6848   -2.0844    0.7042 C.ar    1  LIG1       -0.0232
     15 C          -4.0949   -1.9426    0.7675 C.ar    1  LIG1       -0.0329
     16 C          -4.4479   -0.6972    0.2606 C.ar    1  LIG1        0.0475
     17 N          -3.2655   -0.0814   -0.0997 N.ar    1  LIG1       -0.3528
     18 H          -3.1975    0.7710   -0.6309 H       1  LIG1        0.1660
     19 C          -1.8895   -3.2598    1.1973 C.3     1  LIG1       -0.0376
     20 H          -0.9130   -2.9528    1.5862 H       1  LIG1        0.0278
     21 H          -1.7140   -4.0095    0.4124 H       1  LIG1        0.0278
     22 H          -2.4174   -3.7738    2.0064 H       1  LIG1        0.0278
     23 H          -4.7845   -2.6590    1.1932 H       1  LIG1        0.0641
     24 C          -6.0692    1.2731    0.2219 C.ar    1  LIG1       -0.0407
     25 C          -7.3839    1.7120    0.0425 C.ar    1  LIG1       -0.0491
     26 C          -5.7784   -0.1081    0.0821 C.ar    1  LIG1        0.0013
     27 C          -8.4493    0.8440   -0.2487 C.ar    1  LIG1       -0.0012
     28 H          -7.5841    2.7755    0.1220 H       1  LIG1        0.0627
     29 C          -6.8451   -0.9787   -0.2174 C.ar    1  LIG1       -0.0518
     30 C          -8.1466   -0.5256   -0.3669 C.ar    1  LIG1       -0.0520
     31 H          -6.6320   -2.0364   -0.3368 H       1  LIG1        0.0624
     32 C          -5.0146    2.3000    0.5743 C.3     1  LIG1       -0.0391
     33 H          -5.4809    3.2047    0.9729 H       1  LIG1        0.0278
     34 H          -4.4274    2.6128   -0.3005 H       1  LIG1        0.0278
     35 H          -4.3117    1.9215    1.3215 H       1  LIG1        0.0278
     36 H          -8.9402   -1.2433   -0.5561 H       1  LIG1        0.0624
     37 C          -9.8138    1.3381   -0.4351 C.ar    1  LIG1        0.0494
     38 C         -10.5203    2.3914    0.1469 C.ar    1  LIG1       -0.0252
     39 C         -11.8341    2.3664   -0.4039 C.ar    1  LIG1       -0.0409
     40 C         -11.9051    1.3205   -1.2977 C.ar    1  LIG1        0.0024
     41 N         -10.6867    0.6944   -1.2975 N.ar    1  LIG1       -0.3604
     42 H         -10.4118   -0.0423   -1.9267 H       1  LIG1        0.1653
     43 H         -12.7134    0.9759   -1.9252 H       1  LIG1        0.0807
     44 C         -10.0383    3.3511    1.1977 C.3     1  LIG1       -0.0377
     45 H         -10.8741    3.6952    1.8150 H       1  LIG1        0.0278
     46 H          -9.5716    4.2461    0.7650 H       1  LIG1        0.0278
     47 H          -9.3013    2.8903    1.8625 H       1  LIG1        0.0278
     48 H         -12.6411    3.0411   -0.1519 H       1  LIG1        0.0635
@<TRIPOS>BOND
     1    42    41    1
     2    43    40    1
     3    10     8    1
     4    40    41   ar
     5    40    39   ar
     6    41    37   ar
     7    11     8    1
     8     7     1    1
     9     8     2    1
    10     8     9    1
    11     1     2   ar
    12     1     5   ar
    13    18    17    1
    14     2     3   ar
    15     6     5    1
    16    36    30    1
    17     5     4   ar
    18    37    27    1
    19    37    38   ar
    20    39    48    1
    21    39    38   ar
    22    30    27   ar
    23    30    29   ar
    24    31    29    1
    25    34    32    1
    26    27    25   ar
    27     3     4   ar
    28     3    12    1
    29    29    26   ar
    30     4    13    1
    31    17    13   ar
    32    17    16   ar
    33    25    28    1
    34    25    24   ar
    35    26    24   ar
    36    26    16    1
    37    13    14   ar
    38    38    44    1
    39    24    32    1
    40    16    15   ar
    41    21    19    1
    42    32    33    1
    43    32    35    1
    44    14    15   ar
    45    14    19    1
    46    46    44    1
    47    15    23    1
    48    19    20    1
    49    19    22    1
    50    44    45    1
    51    44    47    1
