@<TRIPOS>MOLECULE
mol_data/opt/b3lyp/geoms/mol2/13ia12hd6hi4ie-.out
 52 55 0 0 0
SMALL
GASTEIGER

@<TRIPOS>ATOM
      1 C           1.1682   -0.1552   -0.1061 C.ar    1  LIG1        0.0052
      2 C           0.7968    1.1033    0.3316 C.ar    1  LIG1       -0.0325
      3 C          -0.6169    1.0776    0.4937 C.ar    1  LIG1       -0.0305
      4 C          -1.0670   -0.1905    0.1504 C.ar    1  LIG1        0.0824
      5 N           0.0397   -0.9301   -0.2092 N.ar    1  LIG1       -0.3580
      6 H          -0.0024   -1.8814   -0.5363 H       1  LIG1        0.1654
      7 H           2.1436   -0.5517   -0.3468 H       1  LIG1        0.0809
      8 C           1.7135    2.2635    0.5895 C.3     1  LIG1       -0.0383
      9 H           1.6609    2.5980    1.6322 H       1  LIG1        0.0278
     10 H           1.4606    3.1263   -0.0377 H       1  LIG1        0.0278
     11 H           2.7544    1.9987    0.3810 H       1  LIG1        0.0278
     12 H          -1.2399    1.8933    0.8344 H       1  LIG1        0.0642
     13 C          -2.3897   -0.7572    0.1197 C.ar    1  LIG1        0.1530
     14 C          -3.6492   -0.2516    0.2673 C.ar    1  LIG1        0.0017
     15 C          -4.5699   -1.3477    0.1264 C.ar    1  LIG1        0.0726
     16 C          -3.7990   -2.4727   -0.1247 C.ar    1  LIG1        0.1708
     17 O          -2.4694   -2.1132   -0.1207 O.2     1  LIG1       -0.4505
     18 H          -3.9158    0.7771    0.4558 H       1  LIG1        0.0668
     19 C          -5.9740   -1.2536    0.2871 C.1     1  LIG1       -0.0658
     20 C          -7.1618   -1.1005    0.4660 C.1     1  LIG1       -0.1138
     21 H          -8.2106   -0.9761    0.6022 H       1  LIG1        0.1232
     22 C          -4.0541   -3.8695   -0.3256 C.ar    1  LIG1        0.1297
     23 C          -5.1784   -4.5659   -0.7730 C.ar    1  LIG1        0.1904
     24 C          -4.8554   -5.9493   -0.7473 C.ar    1  LIG1        0.1851
     25 C          -3.5518   -6.0905   -0.2839 C.ar    1  LIG1        0.0932
     26 N          -3.0644   -4.8088   -0.0960 N.ar    1  LIG1       -0.3458
     27 H          -2.2174   -4.6033    0.4092 H       1  LIG1        0.1662
     28 O          -6.2975   -3.9862   -1.2829 O.3     1  LIG1       -0.4894
     29 C          -7.5344   -4.4218   -0.7109 C.3     1  LIG1        0.0791
     30 H          -8.3203   -3.9005   -1.2602 H       1  LIG1        0.0660
     31 H          -7.6650   -5.5026   -0.8208 H       1  LIG1        0.0660
     32 H          -7.5897   -4.1447    0.3485 H       1  LIG1        0.0660
     33 O          -5.7033   -6.9285   -1.1973 O.3     1  LIG1       -0.5019
     34 H          -5.1724   -7.6995   -1.4396 H       1  LIG1        0.2924
     35 C          -3.1351   -8.4256    0.5865 C.ar    1  LIG1       -0.0410
     36 C          -2.2588   -9.5104    0.6617 C.ar    1  LIG1       -0.0548
     37 C          -2.7024   -7.2787   -0.1329 C.ar    1  LIG1        0.0084
     38 C          -0.9848   -9.4980    0.0890 C.ar    1  LIG1       -0.0197
     39 H          -2.5705  -10.3951    1.2111 H       1  LIG1        0.0622
     40 C          -1.4202   -7.2590   -0.7001 C.ar    1  LIG1       -0.0105
     41 C          -0.5563   -8.3524   -0.5880 C.ar    1  LIG1        0.1207
     42 H          -1.0878   -6.3958   -1.2674 H       1  LIG1        0.0661
     43 H          -0.3464  -10.3676    0.1872 H       1  LIG1        0.0654
     44 C          -4.4527   -8.4651    1.3272 C.3     1  LIG1       -0.0391
     45 H          -4.5245   -9.3724    1.9328 H       1  LIG1        0.0278
     46 H          -5.3223   -8.4354    0.6632 H       1  LIG1        0.0278
     47 H          -4.5512   -7.6024    1.9952 H       1  LIG1        0.0278
     48 O           0.6652   -8.2067   -1.1835 O.3     1  LIG1       -0.4951
     49 C           1.5707   -9.2977   -1.1259 C.3     1  LIG1        0.0788
     50 H           2.4657   -8.9749   -1.6598 H       1  LIG1        0.0660
     51 H           1.8393   -9.5484   -0.0916 H       1  LIG1        0.0660
     52 H           1.1619  -10.1908   -1.6156 H       1  LIG1        0.0660
@<TRIPOS>BOND
     1    50    49    1
     2    52    49    1
     3    34    33    1
     4    28    23    1
     5    28    29    1
     6    42    40    1
     7    30    29    1
     8    33    24    1
     9    48    49    1
    10    48    41    1
    11    49    51    1
    12    31    29    1
    13    23    24   ar
    14    23    22   ar
    15    24    25   ar
    16    29    32    1
    17    40    41   ar
    18    40    37   ar
    19    41    38   ar
    20     6     5    1
    21     7     1    1
    22    22    16    1
    23    22    26   ar
    24    25    37    1
    25    25    26   ar
    26     5     1   ar
    27     5     4   ar
    28    37    35   ar
    29    16    17   ar
    30    16    15   ar
    31    17    13   ar
    32     1     2   ar
    33    26    27    1
    34    10     8    1
    35    38    43    1
    36    38    36   ar
    37    13     4    1
    38    13    14   ar
    39    15    14   ar
    40    15    19    1
    41     4     3   ar
    42    14    18    1
    43    19    20    3
    44     2     3   ar
    45     2     8    1
    46    11     8    1
    47    20    21    1
    48     3    12    1
    49    35    36   ar
    50    35    44    1
    51     8     9    1
    52    36    39    1
    53    46    44    1
    54    44    45    1
    55    44    47    1
