@<TRIPOS>MOLECULE
mol_data/opt/b3lyp/geoms/mol2/13id13id13id-13id-.out
 50 53 0 0 0
SMALL
GASTEIGER

@<TRIPOS>ATOM
      1 C           1.1189    0.0249    1.0521 C.ar    1  LIG1        0.0064
      2 C           0.8975    1.1052    0.2327 C.ar    1  LIG1       -0.0151
      3 C          -0.4666    0.9971   -0.2109 C.ar    1  LIG1        0.0813
      4 C          -1.0295   -0.1459    0.3649 C.ar    1  LIG1        0.0810
      5 N          -0.0353   -0.7292    1.1147 N.ar    1  LIG1       -0.3582
      6 H          -0.1909   -1.4872    1.7612 H       1  LIG1        0.1654
      7 H           2.0068   -0.2686    1.5918 H       1  LIG1        0.0810
      8 C           1.8723    2.1757   -0.1514 C.3     1  LIG1       -0.0371
      9 H           1.5140    3.1667    0.1472 H       1  LIG1        0.0278
     10 H           2.0280    2.2046   -1.2352 H       1  LIG1        0.0278
     11 H           2.8424    2.0101    0.3242 H       1  LIG1        0.0278
     12 N          -1.6217    2.5703   -1.9034 N.1     1  LIG1       -0.1908
     13 C          -1.1075    1.8568   -1.1392 C.1     1  LIG1        0.1016
     14 C          -2.3523   -0.7275    0.2487 C.ar    1  LIG1        0.0688
     15 C          -3.6129   -0.1541    0.2994 C.ar    1  LIG1       -0.0057
     16 C          -4.5456   -1.2308    0.1520 C.ar    1  LIG1        0.0819
     17 C          -3.8351   -2.4378    0.0200 C.ar    1  LIG1        0.0815
     18 N          -2.5116   -2.1036    0.0966 N.ar    1  LIG1       -0.3506
     19 H          -1.7540   -2.7440   -0.0808 H       1  LIG1        0.1660
     20 C          -3.9626    1.2879    0.5001 C.3     1  LIG1       -0.0364
     21 H          -4.9169    1.3854    1.0253 H       1  LIG1        0.0279
     22 H          -4.0478    1.8179   -0.4545 H       1  LIG1        0.0279
     23 H          -3.1936    1.8001    1.0841 H       1  LIG1        0.0279
     24 N          -7.1250   -1.1635    0.1413 N.1     1  LIG1       -0.1908
     25 C          -5.9577   -1.1432    0.1467 C.1     1  LIG1        0.1016
     26 C          -4.3107   -3.7860   -0.1684 C.ar    1  LIG1        0.0688
     27 C          -3.6523   -4.9600   -0.5240 C.ar    1  LIG1       -0.0057
     28 C          -4.6520   -5.9816   -0.5961 C.ar    1  LIG1        0.0819
     29 C          -5.8937   -5.4138   -0.2725 C.ar    1  LIG1        0.0815
     30 N          -5.6560   -4.0909   -0.0259 N.ar    1  LIG1       -0.3506
     31 H          -6.3501   -3.4411    0.3191 H       1  LIG1        0.1660
     32 C          -2.1962   -5.1536   -0.8271 C.3     1  LIG1       -0.0364
     33 H          -1.5718   -5.0738    0.0729 H       1  LIG1        0.0279
     34 H          -1.8319   -4.4273   -1.5640 H       1  LIG1        0.0279
     35 H          -2.0220   -6.1486   -1.2431 H       1  LIG1        0.0279
     36 N          -4.1814   -8.3901   -1.4000 N.1     1  LIG1       -0.1908
     37 C          -4.4154   -7.3103   -1.0299 C.1     1  LIG1        0.1016
     38 C          -7.2341   -5.9556   -0.2129 C.ar    1  LIG1        0.0684
     39 C          -7.7243   -7.1801    0.2242 C.ar    1  LIG1       -0.0064
     40 C          -9.1514   -7.1063    0.0941 C.ar    1  LIG1        0.0725
     41 C          -9.4809   -5.8532   -0.4037 C.ar    1  LIG1        0.0199
     42 N          -8.3234   -5.1653   -0.5742 N.ar    1  LIG1       -0.3581
     43 H          -8.2574   -4.2520   -0.9990 H       1  LIG1        0.1654
     44 H         -10.4435   -5.4274   -0.6408 H       1  LIG1        0.0820
     45 C          -6.9611   -8.3428    0.7804 C.3     1  LIG1       -0.0364
     46 H          -6.0756   -8.0110    1.3296 H       1  LIG1        0.0279
     47 H          -6.6156   -9.0188   -0.0086 H       1  LIG1        0.0279
     48 H          -7.5922   -8.9200    1.4614 H       1  LIG1        0.0279
     49 N         -10.8192   -8.9720    0.7412 N.1     1  LIG1       -0.1908
     50 C         -10.0756   -8.1267    0.4443 C.1     1  LIG1        0.1009
@<TRIPOS>BOND
     1    12    13    3
     2    34    32    1
     3    36    37    3
     4    35    32    1
     5    10     8    1
     6    13     3    1
     7    37    28    1
     8    43    42    1
     9    32    27    1
    10    32    33    1
    11    44    41    1
    12    28    27   ar
    13    28    29   ar
    14    42    41   ar
    15    42    38   ar
    16    27    26   ar
    17    22    20    1
    18    41    40   ar
    19    29    38    1
    20    29    30   ar
    21    38    39   ar
    22     3     2   ar
    23     3     4   ar
    24    26    30   ar
    25    26    17    1
    26     8     9    1
    27     8     2    1
    28     8    11    1
    29    19    18    1
    30    30    31    1
    31    47    45    1
    32    17    18   ar
    33    17    16   ar
    34    40    39   ar
    35    40    50    1
    36    18    14   ar
    37    24    25    3
    38    25    16    1
    39    16    15   ar
    40    39    45    1
    41     2     1   ar
    42    14    15   ar
    43    14     4    1
    44    15    20    1
    45     4     5   ar
    46    50    49    3
    47    20    21    1
    48    20    23    1
    49    45    46    1
    50    45    48    1
    51     1     5   ar
    52     1     7    1
    53     5     6    1
