@<TRIPOS>MOLECULE
mol_data/opt/b3lyp/geoms/mol2/13id13id-13id-13id.out
 50 53 0 0 0
SMALL
GASTEIGER

@<TRIPOS>ATOM
      1 C           1.2560   -0.2586    0.3036 C.ar    1  LIG1        0.0064
      2 C           0.7947    1.0192    0.5028 C.ar    1  LIG1       -0.0151
      3 C          -0.6366    0.9416    0.3986 C.ar    1  LIG1        0.0813
      4 C          -0.9951   -0.3940    0.1383 C.ar    1  LIG1        0.0810
      5 N           0.1789   -1.0947    0.0851 N.ar    1  LIG1       -0.3582
      6 H           0.2404   -2.0897   -0.0583 H       1  LIG1        0.1654
      7 H           2.2654   -0.6409    0.2985 H       1  LIG1        0.0810
      8 C           1.6019    2.2523    0.7693 C.3     1  LIG1       -0.0371
      9 H           1.3261    2.7122    1.7245 H       1  LIG1        0.0278
     10 H           1.4481    3.0081   -0.0087 H       1  LIG1        0.0278
     11 H           2.6692    2.0196    0.8042 H       1  LIG1        0.0278
     12 N          -2.3980    2.8136    0.6184 N.1     1  LIG1       -0.1908
     13 C          -1.5655    2.0002    0.5200 C.1     1  LIG1        0.1016
     14 C          -2.2954   -0.9901   -0.0544 C.ar    1  LIG1        0.0688
     15 C          -2.6848   -2.2471   -0.5078 C.ar    1  LIG1       -0.0057
     16 C          -4.1167   -2.2490   -0.5240 C.ar    1  LIG1        0.0819
     17 C          -4.5686   -1.0003   -0.0709 C.ar    1  LIG1        0.0815
     18 N          -3.4484   -0.2637    0.1981 N.ar    1  LIG1       -0.3506
     19 H          -3.4574    0.6502    0.6309 H       1  LIG1        0.1660
     20 C          -1.8137   -3.3869   -0.9453 C.3     1  LIG1       -0.0364
     21 H          -1.2950   -3.8588   -0.0999 H       1  LIG1        0.0279
     22 H          -1.0600   -3.0669   -1.6745 H       1  LIG1        0.0279
     23 H          -2.4140   -4.1664   -1.4203 H       1  LIG1        0.0279
     24 N          -5.5470   -4.1899   -1.4490 N.1     1  LIG1       -0.1908
     25 C          -4.9182   -3.3060   -1.0232 C.1     1  LIG1        0.1016
     26 C          -5.8858   -0.4262    0.0842 C.ar    1  LIG1        0.0688
     27 C          -7.0924   -0.9593    0.5142 C.ar    1  LIG1       -0.0057
     28 C          -8.0244    0.1270    0.5239 C.ar    1  LIG1        0.0819
     29 C          -7.3673    1.3003    0.1088 C.ar    1  LIG1        0.0815
     30 N          -6.0746    0.9367   -0.1385 N.ar    1  LIG1       -0.3506
     31 H          -5.3870    1.5482   -0.5514 H       1  LIG1        0.1660
     32 C          -7.3868   -2.3623    0.9474 C.3     1  LIG1       -0.0364
     33 H          -6.5153   -2.8192    1.4240 H       1  LIG1        0.0279
     34 H          -7.6611   -3.0008    0.1014 H       1  LIG1        0.0279
     35 H          -8.2149   -2.3770    1.6612 H       1  LIG1        0.0279
     36 N         -10.5083    0.0729    1.2232 N.1     1  LIG1       -0.1908
     37 C          -9.3830    0.0630    0.9134 C.1     1  LIG1        0.1016
     38 C          -7.8502    2.6495   -0.0598 C.ar    1  LIG1        0.0684
     39 C          -7.1947    3.8127   -0.4650 C.ar    1  LIG1       -0.0064
     40 C          -8.1789    4.8519   -0.4461 C.ar    1  LIG1        0.0725
     41 C          -9.3855    4.2975   -0.0353 C.ar    1  LIG1        0.0199
     42 N          -9.1752    2.9794    0.1914 N.ar    1  LIG1       -0.3581
     43 H          -9.8793    2.3251    0.5079 H       1  LIG1        0.1654
     44 H         -10.3519    4.7563    0.1040 H       1  LIG1        0.0820
     45 C          -5.7581    3.9913   -0.8599 C.3     1  LIG1       -0.0364
     46 H          -5.5600    5.0385   -1.0998 H       1  LIG1        0.0279
     47 H          -5.5050    3.4111   -1.7577 H       1  LIG1        0.0279
     48 H          -5.0584    3.7110   -0.0632 H       1  LIG1        0.0279
     49 N          -7.7596    7.3226   -1.0775 N.1     1  LIG1       -0.1908
     50 C          -7.9617    6.2124   -0.7897 C.1     1  LIG1        0.1009
@<TRIPOS>BOND
     1    47    45    1
     2    22    20    1
     3    24    25    3
     4    23    20    1
     5    46    45    1
     6    49    50    3
     7    25    16    1
     8    20    15    1
     9    20    21    1
    10    45    39    1
    11    45    48    1
    12    50    40    1
    13    31    30    1
    14    16    15   ar
    15    16    17   ar
    16    15    14   ar
    17    39    40   ar
    18    39    38   ar
    19    40    41   ar
    20    30    26   ar
    21    30    29   ar
    22    17    26    1
    23    17    18   ar
    24    38    29    1
    25    38    42   ar
    26     6     5    1
    27    14     4    1
    28    14    18   ar
    29    41    44    1
    30    41    42   ar
    31    10     8    1
    32    26    27   ar
    33     5     4   ar
    34     5     1   ar
    35    34    32    1
    36    29    28   ar
    37     4     3   ar
    38    42    43    1
    39    18    19    1
    40     7     1    1
    41     1     2   ar
    42     3     2   ar
    43     3    13    1
    44     2     8    1
    45    27    28   ar
    46    27    32    1
    47    13    12    3
    48    28    37    1
    49     8    11    1
    50     8     9    1
    51    37    36    3
    52    32    33    1
    53    32    35    1
