@<TRIPOS>MOLECULE
mol_data/opt/b3lyp/geoms/mol2/13id13id13id13id-.out
 50 53 0 0 0
SMALL
GASTEIGER

@<TRIPOS>ATOM
      1 C           0.5919    0.4094    1.8727 C.ar    1  LIG1        0.0064
      2 C           0.7755    1.1071    0.7034 C.ar    1  LIG1       -0.0151
      3 C          -0.3654    0.8109   -0.1212 C.ar    1  LIG1        0.0813
      4 C          -1.2078   -0.0536    0.5827 C.ar    1  LIG1        0.0810
      5 N          -0.5910   -0.2966    1.7877 N.ar    1  LIG1       -0.3582
      6 H          -1.0366   -0.7630    2.5628 H       1  LIG1        0.1654
      7 H           1.2105    0.3570    2.7561 H       1  LIG1        0.0810
      8 C           1.9319    1.9850    0.3351 C.3     1  LIG1       -0.0371
      9 H           1.6026    3.0061    0.1150 H       1  LIG1        0.0278
     10 H           2.4463    1.6150   -0.5585 H       1  LIG1        0.0278
     11 H           2.6609    2.0332    1.1481 H       1  LIG1        0.0278
     12 N          -0.7160    1.6294   -2.5464 N.1     1  LIG1       -0.1908
     13 C          -0.5659    1.2568   -1.4529 C.1     1  LIG1        0.1016
     14 C          -2.4713   -0.6688    0.2191 C.ar    1  LIG1        0.0688
     15 C          -3.6216   -0.1339   -0.3414 C.ar    1  LIG1       -0.0057
     16 C          -4.5585   -1.2135   -0.4471 C.ar    1  LIG1        0.0819
     17 C          -3.9666   -2.3765    0.0591 C.ar    1  LIG1        0.0815
     18 N          -2.7024   -2.0200    0.4537 N.ar    1  LIG1       -0.3506
     19 H          -2.0326   -2.6527    0.8635 H       1  LIG1        0.1660
     20 C          -3.8664    1.2843   -0.7556 C.3     1  LIG1       -0.0364
     21 H          -4.9237    1.5406   -0.6472 H       1  LIG1        0.0279
     22 H          -3.5871    1.4506   -1.8015 H       1  LIG1        0.0279
     23 H          -3.2768    1.9780   -0.1504 H       1  LIG1        0.0279
     24 N          -6.9231   -1.0483   -1.4749 N.1     1  LIG1       -0.1908
     25 C          -5.8571   -1.1292   -1.0125 C.1     1  LIG1        0.1016
     26 C          -4.4545   -3.7369    0.1649 C.ar    1  LIG1        0.0688
     27 C          -5.6630   -4.2445    0.6117 C.ar    1  LIG1       -0.0057
     28 C          -5.5530   -5.6703    0.5225 C.ar    1  LIG1        0.0819
     29 C          -4.2808   -6.0019    0.0262 C.ar    1  LIG1        0.0815
     30 N          -3.6293   -4.8128   -0.1621 N.ar    1  LIG1       -0.3506
     31 H          -2.7718   -4.7218   -0.6841 H       1  LIG1        0.1660
     32 C          -6.8471   -3.4893    1.1313 C.3     1  LIG1       -0.0364
     33 H          -7.3897   -4.0824    1.8727 H       1  LIG1        0.0279
     34 H          -7.5453   -3.2351    0.3269 H       1  LIG1        0.0279
     35 H          -6.5404   -2.5497    1.5983 H       1  LIG1        0.0279
     36 N          -7.3112   -7.4405    1.1835 N.1     1  LIG1       -0.1908
     37 C          -6.5388   -6.6143    0.8960 C.1     1  LIG1        0.1016
     38 C          -3.6817   -7.2830   -0.2633 C.ar    1  LIG1        0.0684
     39 C          -2.3987   -7.6177   -0.6951 C.ar    1  LIG1       -0.0064
     40 C          -2.3722   -9.0444   -0.8093 C.ar    1  LIG1        0.0725
     41 C          -3.6238   -9.5280   -0.4485 C.ar    1  LIG1        0.0199
     42 N          -4.3972   -8.4641   -0.1256 N.ar    1  LIG1       -0.3581
     43 H          -5.3582   -8.5187    0.1872 H       1  LIG1        0.1654
     44 H          -3.9939  -10.5404   -0.4045 H       1  LIG1        0.0820
     45 C          -1.2439   -6.7080   -0.9924 C.3     1  LIG1       -0.0364
     46 H          -0.9997   -6.0607   -0.1409 H       1  LIG1        0.0279
     47 H          -1.4320   -6.0697   -1.8666 H       1  LIG1        0.0279
     48 H          -0.3492   -7.2924   -1.2193 H       1  LIG1        0.0279
     49 N          -0.3225  -10.4355   -1.5447 N.1     1  LIG1       -0.1908
     50 C          -1.2566   -9.8241   -1.2132 C.1     1  LIG1        0.1009
@<TRIPOS>BOND
     1    12    13    3
     2    47    45    1
     3    22    20    1
     4    49    50    3
     5    24    25    3
     6    13     3    1
     7    48    45    1
     8    50    40    1
     9    25    16    1
    10    45    39    1
    11    45    46    1
    12    40    39   ar
    13    40    41   ar
    14    20    21    1
    15    20    15    1
    16    20    23    1
    17    39    38   ar
    18    31    30    1
    19    10     8    1
    20    41    44    1
    21    41    42   ar
    22    16    15   ar
    23    16    17   ar
    24    15    14   ar
    25    38    42   ar
    26    38    29    1
    27    30    29   ar
    28    30    26   ar
    29    42    43    1
    30     3     4   ar
    31     3     2   ar
    32    29    28   ar
    33    17    26    1
    34    17    18   ar
    35     9     8    1
    36    26    27   ar
    37    14    18   ar
    38    14     4    1
    39    34    32    1
    40     8     2    1
    41     8    11    1
    42    18    19    1
    43    28    27   ar
    44    28    37    1
    45     4     5   ar
    46    27    32    1
    47     2     1   ar
    48    37    36    3
    49    32    35    1
    50    32    33    1
    51     5     1   ar
    52     5     6    1
    53     1     7    1
