@<TRIPOS>MOLECULE
mol_data/opt/b3lyp/geoms/mol2/13id13id-13id-13id-.out
 50 53 0 0 0
SMALL
GASTEIGER

@<TRIPOS>ATOM
      1 C           1.1235    0.0518   -0.1744 C.ar    1  LIG1        0.0064
      2 C           0.5319    1.2840   -0.3001 C.ar    1  LIG1       -0.0151
      3 C          -0.8855    1.0505   -0.2280 C.ar    1  LIG1        0.0813
      4 C          -1.1014   -0.3332   -0.0612 C.ar    1  LIG1        0.0810
      5 N           0.1381   -0.9068   -0.0310 N.ar    1  LIG1       -0.3582
      6 H           0.3027   -1.8975    0.0485 H       1  LIG1        0.1654
      7 H           2.1677   -0.2214   -0.1744 H       1  LIG1        0.0810
      8 C           1.2088    2.6090   -0.4720 C.3     1  LIG1       -0.0371
      9 H           0.9645    3.2937    0.3477 H       1  LIG1        0.0278
     10 H           0.9020    3.0974   -1.4034 H       1  LIG1        0.0278
     11 H           2.2949    2.4911   -0.4972 H       1  LIG1        0.0278
     12 N          -2.8481    2.7217   -0.3558 N.1     1  LIG1       -0.1908
     13 C          -1.9228    2.0094   -0.2963 C.1     1  LIG1        0.1016
     14 C          -2.3404   -1.0600    0.0683 C.ar    1  LIG1        0.0688
     15 C          -2.6539   -2.3588    0.4611 C.ar    1  LIG1       -0.0057
     16 C          -4.0858   -2.4521    0.4581 C.ar    1  LIG1        0.0819
     17 C          -4.6088   -1.2124    0.0580 C.ar    1  LIG1        0.0815
     18 N          -3.5335   -0.4044   -0.1705 N.ar    1  LIG1       -0.3506
     19 H          -3.6048    0.5180   -0.5754 H       1  LIG1        0.1660
     20 C          -1.7125   -3.4559    0.8593 C.3     1  LIG1       -0.0364
     21 H          -0.9836   -3.1152    1.6043 H       1  LIG1        0.0279
     22 H          -1.1602   -3.8575   -0.0007 H       1  LIG1        0.0279
     23 H          -2.2614   -4.2912    1.3003 H       1  LIG1        0.0279
     24 N          -5.4128   -4.5233    1.2446 N.1     1  LIG1       -0.1908
     25 C          -4.8290   -3.5819    0.8831 C.1     1  LIG1        0.1016
     26 C          -5.9271   -0.6377   -0.0756 C.ar    1  LIG1        0.0688
     27 C          -7.1506   -1.1100   -0.5224 C.ar    1  LIG1       -0.0057
     28 C          -8.0280    0.0276   -0.5709 C.ar    1  LIG1        0.0819
     29 C          -7.3225    1.1620   -0.1464 C.ar    1  LIG1        0.0815
     30 N          -6.0494    0.7371    0.1285 N.ar    1  LIG1       -0.3506
     31 H          -5.3969    1.2782    0.6785 H       1  LIG1        0.1660
     32 C          -7.4975   -2.5010   -0.9558 C.3     1  LIG1       -0.0364
     33 H          -7.7879   -3.1275   -0.1057 H       1  LIG1        0.0279
     34 H          -6.6461   -2.9897   -1.4372 H       1  LIG1        0.0279
     35 H          -8.3326   -2.4870   -1.6607 H       1  LIG1        0.0279
     36 N         -10.4161   -0.0359   -1.5533 N.1     1  LIG1       -0.1908
     37 C          -9.3438    0.0071   -1.1000 C.1     1  LIG1        0.1016
     38 C          -7.6646    2.5609   -0.0157 C.ar    1  LIG1        0.0684
     39 C          -8.8348    3.2076    0.3646 C.ar    1  LIG1       -0.0064
     40 C          -8.5328    4.6101    0.3599 C.ar    1  LIG1        0.0725
     41 C          -7.2037    4.7700   -0.0091 C.ar    1  LIG1        0.0199
     42 N          -6.6868    3.5341   -0.2232 N.ar    1  LIG1       -0.3581
     43 H          -5.7523    3.3576   -0.5668 H       1  LIG1        0.1654
     44 H          -6.6168    5.6670   -0.1313 H       1  LIG1        0.0820
     45 C         -10.1447    2.5998    0.7631 C.3     1  LIG1       -0.0364
     46 H          -9.9991    1.6498    1.2848 H       1  LIG1        0.0279
     47 H         -10.7800    2.3944   -0.1045 H       1  LIG1        0.0279
     48 H         -10.6909    3.2766    1.4254 H       1  LIG1        0.0279
     49 N         -10.1673    6.5096    0.9935 N.1     1  LIG1       -0.1908
     50 C          -9.4259    5.6598    0.7038 C.1     1  LIG1        0.1009
@<TRIPOS>BOND
     1    35    32    1
     2    36    37    3
     3    34    32    1
     4    10     8    1
     5    37    28    1
     6    32    27    1
     7    32    33    1
     8    19    18    1
     9    28    27   ar
    10    28    29   ar
    11    43    42    1
    12    27    26   ar
    13    11     8    1
    14     8     2    1
    15     8     9    1
    16    12    13    3
    17     2     3   ar
    18     2     1   ar
    19    13     3    1
    20     3     4   ar
    21    42    38   ar
    22    42    41   ar
    23     1     7    1
    24     1     5   ar
    25    18    17   ar
    26    18    14   ar
    27    29    38    1
    28    29    30   ar
    29    44    41    1
    30    47    45    1
    31    26    17    1
    32    26    30   ar
    33     4     5   ar
    34     4    14    1
    35     5     6    1
    36    38    39   ar
    37    41    40   ar
    38    22    20    1
    39    17    16   ar
    40    14    15   ar
    41    30    31    1
    42    40    39   ar
    43    40    50    1
    44    39    45    1
    45    16    15   ar
    46    16    25    1
    47    15    20    1
    48    50    49    3
    49    45    46    1
    50    45    48    1
    51    20    23    1
    52    20    21    1
    53    25    24    3
