@<TRIPOS>MOLECULE
mol_data/opt/b3lyp/geoms/mol2/13id13id-4id13id.out
 52 55 0 0 0
SMALL
GASTEIGER

@<TRIPOS>ATOM
      1 C           1.4084   -0.4948   -0.3438 C.ar    1  LIG1        0.0064
      2 C           1.0355    0.7735   -0.7141 C.ar    1  LIG1       -0.0151
      3 C          -0.3957    0.8151   -0.5900 C.ar    1  LIG1        0.0813
      4 C          -0.8442   -0.4411   -0.1437 C.ar    1  LIG1        0.0810
      5 N           0.2788   -1.2116   -0.0045 N.ar    1  LIG1       -0.3582
      6 H           0.2746   -2.1742    0.2907 H       1  LIG1        0.1654
      7 H           2.3879   -0.9456   -0.2935 H       1  LIG1        0.0810
      8 C           1.9225    1.8961   -1.1567 C.3     1  LIG1       -0.0371
      9 H           1.8381    2.7606   -0.4890 H       1  LIG1        0.0278
     10 H           1.6610    2.2402   -2.1633 H       1  LIG1        0.0278
     11 H           2.9697    1.5836   -1.1701 H       1  LIG1        0.0278
     12 N          -1.9941    2.7797   -1.0816 N.1     1  LIG1       -0.1908
     13 C          -1.2402    1.9143   -0.8652 C.1     1  LIG1        0.1016
     14 C          -2.1769   -0.9205    0.1394 C.ar    1  LIG1        0.0688
     15 C          -2.6308   -2.1360    0.6478 C.ar    1  LIG1       -0.0057
     16 C          -4.0548   -2.0388    0.7107 C.ar    1  LIG1        0.0805
     17 C          -4.4412   -0.7718    0.2473 C.ar    1  LIG1        0.0651
     18 N          -3.2869   -0.1237   -0.0831 N.ar    1  LIG1       -0.3517
     19 H          -3.2481    0.7946   -0.5041 H       1  LIG1        0.1660
     20 C          -1.8271   -3.3278    1.0760 C.3     1  LIG1       -0.0364
     21 H          -1.0882   -3.0710    1.8454 H       1  LIG1        0.0279
     22 H          -1.2991   -3.7943    0.2336 H       1  LIG1        0.0279
     23 H          -2.4794   -4.0938    1.5017 H       1  LIG1        0.0279
     24 N          -5.5849   -3.9122    1.6182 N.1     1  LIG1       -0.1908
     25 C          -4.9129   -3.0534    1.2078 C.1     1  LIG1        0.1016
     26 C          -6.0850    1.1639    0.3890 C.ar    1  LIG1       -0.0406
     27 C          -7.3889    1.6170    0.1829 C.ar    1  LIG1       -0.0478
     28 C          -5.7775   -0.1869    0.0809 C.ar    1  LIG1        0.0037
     29 C          -8.4381    0.8125   -0.2930 C.ar    1  LIG1        0.0162
     30 H          -7.5949    2.6590    0.3908 H       1  LIG1        0.0627
     31 C          -6.8005   -1.0076   -0.4080 C.ar    1  LIG1       -0.0343
     32 C          -8.1054   -0.5375   -0.5929 C.ar    1  LIG1        0.0615
     33 H          -6.5858   -2.0397   -0.6589 H       1  LIG1        0.0637
     34 C          -5.0661    2.1319    0.9454 C.3     1  LIG1       -0.0391
     35 H          -5.5677    2.9689    1.4367 H       1  LIG1        0.0278
     36 H          -4.4241    2.5620    0.1663 H       1  LIG1        0.0278
     37 H          -4.4129    1.6513    1.6789 H       1  LIG1        0.0278
     38 N          -9.8471   -2.1923   -1.5771 N.1     1  LIG1       -0.1908
     39 C          -9.0669   -1.4615   -1.1143 C.1     1  LIG1        0.0998
     40 C          -9.7771    1.3829   -0.4475 C.ar    1  LIG1        0.0519
     41 C         -10.3914    2.4403    0.2279 C.ar    1  LIG1       -0.0078
     42 C         -11.7023    2.5735   -0.3320 C.ar    1  LIG1        0.0725
     43 C         -11.8508    1.6053   -1.3166 C.ar    1  LIG1        0.0199
     44 N         -10.6968    0.9025   -1.3739 N.ar    1  LIG1       -0.3592
     45 H         -10.5511    0.0979   -1.9663 H       1  LIG1        0.1654
     46 H         -12.6909    1.3825   -1.9559 H       1  LIG1        0.0820
     47 C          -9.8757    3.2782    1.3604 C.3     1  LIG1       -0.0365
     48 H         -10.7119    3.6921    1.9299 H       1  LIG1        0.0279
     49 H          -9.2789    4.1293    1.0091 H       1  LIG1        0.0279
     50 H          -9.2537    2.6957    2.0458 H       1  LIG1        0.0279
     51 N         -13.4770    4.3028    0.4021 N.1     1  LIG1       -0.1908
     52 C         -12.6856    3.5192    0.0616 C.1     1  LIG1        0.1009
@<TRIPOS>BOND
     1    10     8    1
     2    45    44    1
     3    46    43    1
     4    38    39    3
     5    44    43   ar
     6    44    40   ar
     7    43    42   ar
     8    11     8    1
     9     8     2    1
    10     8     9    1
    11    39    32    1
    12    12    13    3
    13    13     3    1
    14     2     3   ar
    15     2     1   ar
    16    33    31    1
    17    32    31   ar
    18    32    29   ar
    19     3     4   ar
    20    19    18    1
    21    40    29    1
    22    40    41   ar
    23    31    28   ar
    24     1     7    1
    25     1     5   ar
    26    42    52    1
    27    42    41   ar
    28    29    27   ar
    29     4     5   ar
    30     4    14    1
    31    18    14   ar
    32    18    17   ar
    33     5     6    1
    34    52    51    3
    35    28    17    1
    36    28    26   ar
    37    14    15   ar
    38    36    34    1
    39    27    26   ar
    40    27    30    1
    41    41    47    1
    42    22    20    1
    43    17    16   ar
    44    26    34    1
    45    15    16   ar
    46    15    20    1
    47    16    25    1
    48    34    35    1
    49    34    37    1
    50    49    47    1
    51    20    23    1
    52    20    21    1
    53    25    24    3
    54    47    48    1
    55    47    50    1
