@<TRIPOS>MOLECULE
mol_data/opt/b3lyp/geoms/mol2/13id12ef6fe-12hh-.out
 47 50 0 0 0
SMALL
GASTEIGER

@<TRIPOS>ATOM
      1 C           1.0639   -0.1562    1.0374 C.ar    1  LIG1        0.0064
      2 C           0.8713    1.0932    0.4936 C.ar    1  LIG1       -0.0151
      3 C          -0.4769    1.1162   -0.0014 C.ar    1  LIG1        0.0829
      4 C          -1.0611   -0.1302    0.2734 C.ar    1  LIG1        0.1013
      5 N          -0.0938   -0.8811    0.8963 N.ar    1  LIG1       -0.3569
      6 H          -0.2495   -1.8184    1.2331 H       1  LIG1        0.1655
      7 H           1.9359   -0.5822    1.5104 H       1  LIG1        0.0810
      8 C           1.8617    2.2134    0.4075 C.3     1  LIG1       -0.0371
      9 H           1.5187    3.0937    0.9619 H       1  LIG1        0.0278
     10 H           2.0165    2.5297   -0.6296 H       1  LIG1        0.0278
     11 H           2.8291    1.9121    0.8176 H       1  LIG1        0.0278
     12 N          -1.4045    3.1243   -1.3315 N.1     1  LIG1       -0.1908
     13 C          -1.0291    2.2031   -0.7253 C.1     1  LIG1        0.1016
     14 C          -2.3556   -0.7027    0.0204 C.ar    1  LIG1        0.1720
     15 C          -3.6397   -0.2153   -0.1443 C.ar    1  LIG1        0.1139
     16 C          -4.4769   -1.3729   -0.3221 C.ar    1  LIG1        0.1792
     17 C          -3.6918   -2.4932   -0.2170 C.ar    1  LIG1        0.1833
     18 O          -2.3787   -2.0785   -0.0194 O.2     1  LIG1       -0.4481
     19 C          -4.0899    1.1231   -0.0989 C.1     1  LIG1       -0.0621
     20 C          -4.4990    2.2596   -0.0483 C.1     1  LIG1       -0.1137
     21 H          -4.8258    3.2734   -0.0261 H       1  LIG1        0.1232
     22 O          -5.8093   -1.2784   -0.5456 O.3     1  LIG1       -0.5024
     23 H          -6.1283   -2.1109   -0.9222 H       1  LIG1        0.2923
     24 C          -3.0296   -4.8668   -0.8162 C.ar    1  LIG1        0.2241
     25 C          -3.9659   -3.9158   -0.3033 C.ar    1  LIG1        0.0834
     26 C          -5.2108   -4.4316    0.0575 C.ar    1  LIG1       -0.0282
     27 C          -5.5173   -5.7939   -0.0886 C.ar    1  LIG1        0.0546
     28 C          -4.4780   -6.6567   -0.5449 C.ar    1  LIG1        0.1270
     29 N          -3.2794   -6.1557   -0.9092 N.ar    1  LIG1       -0.2080
     30 H          -5.9717   -3.7732    0.4654 H       1  LIG1        0.0639
     31 O          -1.7973   -4.5017   -1.2311 O.3     1  LIG1       -0.4919
     32 H          -1.6730   -3.5517   -1.0826 H       1  LIG1        0.2938
     33 C          -6.8598   -6.2102    0.1374 C.1     1  LIG1       -0.0674
     34 C          -8.0196   -6.5109    0.3264 C.1     1  LIG1       -0.1138
     35 H          -9.0472   -6.7693    0.4405 H       1  LIG1        0.1232
     36 C          -4.6075   -8.0968   -0.6517 C.ar    1  LIG1        0.1766
     37 C          -5.2645   -9.0944    0.0595 C.ar    1  LIG1        0.0935
     38 C          -4.8198  -10.3459   -0.4933 C.ar    1  LIG1        0.0845
     39 C          -3.9382  -10.0323   -1.4856 C.ar    1  LIG1        0.1151
     40 O          -3.7939   -8.6941   -1.6018 O.2     1  LIG1       -0.4576
     41 H          -3.3802  -10.6364   -2.1854 H       1  LIG1        0.1049
     42 N          -6.0939   -9.0544    1.1639 N.pl3   1  LIG1       -0.3536
     43 H          -6.6655   -8.2219    1.2478 H       1  LIG1        0.1425
     44 H          -6.6431   -9.9048    1.2384 H       1  LIG1        0.1425
     45 N          -5.3189  -11.5899   -0.0393 N.pl3   1  LIG1       -0.3541
     46 H          -5.1193  -12.3409   -0.6911 H       1  LIG1        0.1425
     47 H          -4.9256  -11.8436    0.8643 H       1  LIG1        0.1425
@<TRIPOS>BOND
     1    41    39    1
     2    40    39   ar
     3    40    36   ar
     4    39    38   ar
     5    12    13    3
     6    31    32    1
     7    31    24    1
     8    23    22    1
     9    29    24   ar
    10    29    28   ar
    11    24    25   ar
    12    13     3    1
    13    46    45    1
    14    36    28    1
    15    36    37   ar
    16    10     8    1
    17    22    16    1
    18    28    27   ar
    19    38    45    1
    20    38    37   ar
    21    16    17   ar
    22    16    15   ar
    23    25    17    1
    24    25    26   ar
    25    17    18   ar
    26    15    19    1
    27    15    14   ar
    28    19    20    3
    29    27    26   ar
    30    27    33    1
    31    20    21    1
    32    45    47    1
    33    18    14   ar
    34     3     4   ar
    35     3     2   ar
    36    14     4    1
    37    26    30    1
    38    37    42    1
    39    33    34    3
    40     4     5   ar
    41    34    35    1
    42     8     2    1
    43     8    11    1
    44     8     9    1
    45     2     1   ar
    46     5     1   ar
    47     5     6    1
    48     1     7    1
    49    42    44    1
    50    42    43    1
