@<TRIPOS>MOLECULE
mol_data/opt/b3lyp/geoms/mol2/13id13id-13id.out
 38 40 0 0 0
SMALL
GASTEIGER

@<TRIPOS>ATOM
      1 C           1.2687   -0.3040   -0.2289 C.ar    1  LIG1        0.0064
      2 C           0.8863    0.9902    0.0223 C.ar    1  LIG1       -0.0151
      3 C          -0.5456    0.9622    0.1449 C.ar    1  LIG1        0.0813
      4 C          -0.9857   -0.3600   -0.0395 C.ar    1  LIG1        0.0810
      5 N           0.1438   -1.1031   -0.2615 N.ar    1  LIG1       -0.3582
      6 H           0.1440   -2.0885   -0.4674 H       1  LIG1        0.1654
      7 H           2.2515   -0.7219   -0.3861 H       1  LIG1        0.0810
      8 C           1.7651    2.1960    0.1519 C.3     1  LIG1       -0.0371
      9 H           1.6645    2.6611    1.1386 H       1  LIG1        0.0278
     10 H           1.5088    2.9595   -0.5908 H       1  LIG1        0.0278
     11 H           2.8158    1.9298    0.0115 H       1  LIG1        0.0278
     12 N          -2.1237    2.9429    0.6403 N.1     1  LIG1       -0.1908
     13 C          -1.3886    2.0631    0.4201 C.1     1  LIG1        0.1016
     14 C          -2.3131   -0.9283   -0.0183 C.ar    1  LIG1        0.0688
     15 C          -2.7399   -2.2519   -0.0010 C.ar    1  LIG1       -0.0057
     16 C          -4.1679   -2.2138    0.0276 C.ar    1  LIG1        0.0819
     17 C          -4.5852   -0.8692    0.0286 C.ar    1  LIG1        0.0815
     18 N          -3.4441   -0.1219   -0.0024 N.ar    1  LIG1       -0.3506
     19 H          -3.4194    0.8878    0.0405 H       1  LIG1        0.1660
     20 C          -1.9122   -3.5026   -0.0001 C.3     1  LIG1       -0.0364
     21 H          -1.1373   -3.4786    0.7751 H       1  LIG1        0.0279
     22 H          -1.4241   -3.6786   -0.9685 H       1  LIG1        0.0279
     23 H          -2.5384   -4.3762    0.1965 H       1  LIG1        0.0279
     24 N          -5.7765   -4.2306    0.1038 N.1     1  LIG1       -0.1908
     25 C          -5.0299   -3.3341    0.0617 C.1     1  LIG1        0.1016
     26 C          -5.9098   -0.2964    0.0528 C.ar    1  LIG1        0.0684
     27 C          -6.3453    1.0203   -0.0978 C.ar    1  LIG1       -0.0064
     28 C          -7.7723    0.9827    0.0094 C.ar    1  LIG1        0.0725
     29 C          -8.1568   -0.3369    0.2154 C.ar    1  LIG1        0.0199
     30 N          -7.0333   -1.0920    0.2402 N.ar    1  LIG1       -0.3581
     31 H          -7.0136   -2.0962    0.3583 H       1  LIG1        0.1654
     32 H          -9.1389   -0.7654    0.3413 H       1  LIG1        0.0820
     33 C          -5.5290    2.2530   -0.3493 C.3     1  LIG1       -0.0364
     34 H          -6.1836    3.1107   -0.5205 H       1  LIG1        0.0279
     35 H          -4.8945    2.1474   -1.2373 H       1  LIG1        0.0279
     36 H          -4.8779    2.5132    0.4938 H       1  LIG1        0.0279
     37 N          -9.3469    3.0238   -0.1745 N.1     1  LIG1       -0.1908
     38 C          -8.6468    2.0973   -0.0885 C.1     1  LIG1        0.1009
@<TRIPOS>BOND
     1    35    33    1
     2    22    20    1
     3    10     8    1
     4    34    33    1
     5     6     5    1
     6     7     1    1
     7    33    27    1
     8    33    36    1
     9     5     1   ar
    10     5     4   ar
    11     1     2   ar
    12    37    38    3
    13    27    28   ar
    14    27    26   ar
    15    38    28    1
    16     4    14    1
    17     4     3   ar
    18    14    18   ar
    19    14    15   ar
    20    18    17   ar
    21    18    19    1
    22    15    20    1
    23    15    16   ar
    24    20    23    1
    25    20    21    1
    26    28    29   ar
    27    11     8    1
    28     2     3   ar
    29     2     8    1
    30    16    17   ar
    31    16    25    1
    32    17    26    1
    33    26    30   ar
    34    25    24    3
    35     3    13    1
    36     8     9    1
    37    29    30   ar
    38    29    32    1
    39    30    31    1
    40    13    12    3
