@<TRIPOS>MOLECULE
mol_data/opt/b3lyp/geoms/mol2/13id13id-13id13id-.out
 50 53 0 0 0
SMALL
GASTEIGER

@<TRIPOS>ATOM
      1 C           1.3512   -0.2688   -0.0026 C.ar    1  LIG1        0.0064
      2 C           0.9457    0.9973   -0.3447 C.ar    1  LIG1       -0.0151
      3 C          -0.4911    0.9637   -0.3486 C.ar    1  LIG1        0.0813
      4 C          -0.9105   -0.3335   -0.0041 C.ar    1  LIG1        0.0810
      5 N           0.2356   -1.0565    0.1967 N.ar    1  LIG1       -0.3582
      6 H           0.2563   -2.0196    0.4890 H       1  LIG1        0.1654
      7 H           2.3450   -0.6738    0.1142 H       1  LIG1        0.0810
      8 C           1.8074    2.1814   -0.6583 C.3     1  LIG1       -0.0371
      9 H           1.6081    3.0137    0.0255 H       1  LIG1        0.0278
     10 H           1.6279    2.5498   -1.6743 H       1  LIG1        0.0278
     11 H           2.8668    1.9254   -0.5762 H       1  LIG1        0.0278
     12 N          -2.1228    2.8853   -0.8995 N.1     1  LIG1       -0.1908
     13 C          -1.3602    2.0350   -0.6571 C.1     1  LIG1        0.1016
     14 C          -2.2344   -0.8929    0.1355 C.ar    1  LIG1        0.0688
     15 C          -2.6599   -2.2050    0.3187 C.ar    1  LIG1       -0.0057
     16 C          -4.0866   -2.1610    0.3779 C.ar    1  LIG1        0.0819
     17 C          -4.5046   -0.8250    0.2274 C.ar    1  LIG1        0.0815
     18 N          -3.3646   -0.0876    0.0879 N.ar    1  LIG1       -0.3506
     19 H          -3.3442    0.9047   -0.1046 H       1  LIG1        0.1660
     20 C          -1.8316   -3.4500    0.4346 C.3     1  LIG1       -0.0364
     21 H          -1.2561   -3.4797    1.3696 H       1  LIG1        0.0279
     22 H          -1.1316   -3.5547   -0.4031 H       1  LIG1        0.0279
     23 H          -2.4701   -4.3366    0.4323 H       1  LIG1        0.0279
     24 N          -5.6857   -4.1596    0.7076 N.1     1  LIG1       -0.1908
     25 C          -4.9467   -3.2674    0.5656 C.1     1  LIG1        0.1016
     26 C          -5.8254   -0.2480    0.2138 C.ar    1  LIG1        0.0688
     27 C          -6.2462    1.0733    0.3404 C.ar    1  LIG1       -0.0057
     28 C          -7.6715    1.0446    0.2717 C.ar    1  LIG1        0.0819
     29 C          -8.0944   -0.2895    0.1074 C.ar    1  LIG1        0.0815
     30 N          -6.9583   -1.0421    0.0746 N.ar    1  LIG1       -0.3506
     31 H          -6.9428   -2.0499    0.0089 H       1  LIG1        0.1660
     32 C          -5.4140    2.3043    0.5423 C.3     1  LIG1       -0.0364
     33 H          -6.0483    3.1530    0.8090 H       1  LIG1        0.0279
     34 H          -4.8570    2.5940   -0.3569 H       1  LIG1        0.0279
     35 H          -4.6878    2.1717    1.3519 H       1  LIG1        0.0279
     36 N          -9.2915    3.0452    0.4577 N.1     1  LIG1       -0.1908
     37 C          -8.5349    2.1608    0.3699 C.1     1  LIG1        0.1016
     38 C          -9.4197   -0.8476   -0.0144 C.ar    1  LIG1        0.0684
     39 C          -9.8482   -2.1454   -0.2952 C.ar    1  LIG1       -0.0064
     40 C         -11.2789   -2.1019   -0.2944 C.ar    1  LIG1        0.0725
     41 C         -11.6721   -0.7972   -0.0199 C.ar    1  LIG1        0.0199
     42 N         -10.5509   -0.0573    0.1460 N.ar    1  LIG1       -0.3581
     43 H         -10.5354    0.9346    0.3440 H       1  LIG1        0.1654
     44 H         -12.6591   -0.3695    0.0631 H       1  LIG1        0.0820
     45 C          -9.0204   -3.3649   -0.5725 C.3     1  LIG1       -0.0364
     46 H          -8.4218   -3.6790    0.2911 H       1  LIG1        0.0279
     47 H          -8.3350   -3.2095   -1.4146 H       1  LIG1        0.0279
     48 H          -9.6649   -4.2073   -0.8341 H       1  LIG1        0.0279
     49 N         -12.8408   -4.1106   -0.7466 N.1     1  LIG1       -0.1908
     50 C         -12.1473   -3.1982   -0.5402 C.1     1  LIG1        0.1009
@<TRIPOS>BOND
     1    10     8    1
     2    47    45    1
     3    12    13    3
     4    48    45    1
     5    49    50    3
     6     8    11    1
     7     8     2    1
     8     8     9    1
     9    13     3    1
    10    45    39    1
    11    45    46    1
    12    50    40    1
    13    22    20    1
    14    34    32    1
    15     3     2   ar
    16     3     4   ar
    17     2     1   ar
    18    39    40   ar
    19    39    38   ar
    20    40    41   ar
    21    19    18    1
    22    41    44    1
    23    41    42   ar
    24    38    29    1
    25    38    42   ar
    26     4    14    1
    27     4     5   ar
    28     1     7    1
    29     1     5   ar
    30    31    30    1
    31    30    29   ar
    32    30    26   ar
    33    18    14   ar
    34    18    17   ar
    35    29    28   ar
    36    14    15   ar
    37    42    43    1
    38     5     6    1
    39    26    17    1
    40    26    27   ar
    41    17    16   ar
    42    28    27   ar
    43    28    37    1
    44    15    16   ar
    45    15    20    1
    46    27    32    1
    47    37    36    3
    48    16    25    1
    49    23    20    1
    50    20    21    1
    51    32    33    1
    52    32    35    1
    53    25    24    3
