@<TRIPOS>MOLECULE
mol_data/opt/b3lyp/geoms/mol2/13id13id-.out
 26 27 0 0 0
SMALL
GASTEIGER

@<TRIPOS>ATOM
      1 C           1.1982   -0.2889    0.0166 C.ar    1  LIG1        0.0064
      2 C           0.8159    1.0291   -0.0089 C.ar    1  LIG1       -0.0151
      3 C          -0.6215    1.0228   -0.0200 C.ar    1  LIG1        0.0813
      4 C          -1.0644   -0.3109   -0.0007 C.ar    1  LIG1        0.0810
      5 N           0.0676   -1.0810    0.0213 N.ar    1  LIG1       -0.3582
      6 H           0.0690   -2.0874    0.0385 H       1  LIG1        0.1654
      7 H           2.1841   -0.7283    0.0319 H       1  LIG1        0.0810
      8 C           1.6986    2.2390   -0.0226 C.3     1  LIG1       -0.0371
      9 H           1.5131    2.8801    0.8462 H       1  LIG1        0.0278
     10 H           1.5267    2.8502   -0.9154 H       1  LIG1        0.0278
     11 H           2.7533    1.9525   -0.0096 H       1  LIG1        0.0278
     12 N          -2.2218    3.0468   -0.0668 N.1     1  LIG1       -0.1908
     13 C          -1.4714    2.1524   -0.0459 C.1     1  LIG1        0.1016
     14 C          -2.3993   -0.8663   -0.0017 C.ar    1  LIG1        0.0684
     15 C          -2.8447   -2.1866    0.0173 C.ar    1  LIG1       -0.0064
     16 C          -4.2761   -2.1294    0.0050 C.ar    1  LIG1        0.0725
     17 C          -4.6527   -0.7927   -0.0206 C.ar    1  LIG1        0.0199
     18 N          -3.5200   -0.0487   -0.0244 N.ar    1  LIG1       -0.3581
     19 H          -3.4895    0.9628   -0.0408 H       1  LIG1        0.1654
     20 H          -5.6337   -0.3442   -0.0358 H       1  LIG1        0.0820
     21 C          -2.0336   -3.4483    0.0445 C.3     1  LIG1       -0.0364
     22 H          -1.4022   -3.5154    0.9401 H       1  LIG1        0.0279
     23 H          -1.3890   -3.5452   -0.8389 H       1  LIG1        0.0279
     24 H          -2.6904   -4.3214    0.0543 H       1  LIG1        0.0279
     25 N          -5.8442   -4.1831    0.0272 N.1     1  LIG1       -0.1908
     26 C          -5.1518   -3.2465    0.0169 C.1     1  LIG1        0.1009
@<TRIPOS>BOND
     1    10     8    1
     2    23    21    1
     3    12    13    3
     4    13     3    1
     5    19    18    1
     6    20    17    1
     7    18    17   ar
     8    18    14   ar
     9     8    11    1
    10     8     2    1
    11     8     9    1
    12    17    16   ar
    13     3     2   ar
    14     3     4   ar
    15     2     1   ar
    16    14     4    1
    17    14    15   ar
    18     4     5   ar
    19    16    26    1
    20    16    15   ar
    21     1     5   ar
    22     1     7    1
    23    26    25    3
    24    15    21    1
    25     5     6    1
    26    21    24    1
    27    21    22    1
