@<TRIPOS>MOLECULE
mol_data/opt/b3lyp/geoms/mol2/13id13id13id-13id.out
 50 53 0 0 0
SMALL
GASTEIGER

@<TRIPOS>ATOM
      1 C           1.2595   -0.0503    0.4828 C.ar    1  LIG1        0.0064
      2 C           0.9198    1.0609   -0.2500 C.ar    1  LIG1       -0.0151
      3 C          -0.5019    0.9843   -0.4568 C.ar    1  LIG1        0.0813
      4 C          -0.9777   -0.1721    0.1692 C.ar    1  LIG1        0.0810
      5 N           0.1201   -0.7933    0.7168 N.ar    1  LIG1       -0.3582
      6 H           0.0628   -1.5731    1.3533 H       1  LIG1        0.1654
      7 H           2.2215   -0.3733    0.8516 H       1  LIG1        0.0810
      8 C           1.8326    2.1333   -0.7601 C.3     1  LIG1       -0.0371
      9 H           1.5416    3.1184   -0.3797 H       1  LIG1        0.0278
     10 H           1.8083    2.1928   -1.8537 H       1  LIG1        0.0278
     11 H           2.8654    1.9455   -0.4556 H       1  LIG1        0.0278
     12 N          -1.8982    2.6305   -1.8757 N.1     1  LIG1       -0.1908
     13 C          -1.2756    1.8841   -1.2331 C.1     1  LIG1        0.1016
     14 C          -2.3095   -0.7343    0.2672 C.ar    1  LIG1        0.0688
     15 C          -3.5343   -0.1487    0.5417 C.ar    1  LIG1       -0.0057
     16 C          -4.4940   -1.2130    0.5399 C.ar    1  LIG1        0.0819
     17 C          -3.8352   -2.4239    0.2670 C.ar    1  LIG1        0.0815
     18 N          -2.5096   -2.1068    0.1271 N.ar    1  LIG1       -0.3506
     19 H          -1.8219   -2.7319   -0.2628 H       1  LIG1        0.1660
     20 C          -3.8250    1.2907    0.8343 C.3     1  LIG1       -0.0364
     21 H          -4.6851    1.3836    1.5032 H       1  LIG1        0.0279
     22 H          -4.0480    1.8496   -0.0807 H       1  LIG1        0.0279
     23 H          -2.9667    1.7764    1.3059 H       1  LIG1        0.0279
     24 N          -7.0228   -1.0506    1.0306 N.1     1  LIG1       -0.1908
     25 C          -5.8769   -1.0950    0.8144 C.1     1  LIG1        0.1016
     26 C          -4.3399   -3.7682    0.1379 C.ar    1  LIG1        0.0688
     27 C          -3.6753   -4.9886    0.0630 C.ar    1  LIG1       -0.0057
     28 C          -4.6859   -5.9911   -0.0461 C.ar    1  LIG1        0.0819
     29 C          -5.9480   -5.3653   -0.0352 C.ar    1  LIG1        0.0815
     30 N          -5.7035   -4.0279    0.0736 N.ar    1  LIG1       -0.3506
     31 H          -6.4201   -3.3196    0.1548 H       1  LIG1        0.1660
     32 C          -2.1998   -5.2537    0.0962 C.3     1  LIG1       -0.0364
     33 H          -1.7105   -4.7239    0.9214 H       1  LIG1        0.0279
     34 H          -1.7037   -4.9629   -0.8400 H       1  LIG1        0.0279
     35 H          -2.0054   -6.3202    0.2332 H       1  LIG1        0.0279
     36 N          -4.3307   -8.5429   -0.1989 N.1     1  LIG1       -0.1908
     37 C          -4.4675   -7.3853   -0.1361 C.1     1  LIG1        0.1016
     38 C          -7.2748   -5.9262   -0.1168 C.ar    1  LIG1        0.0684
     39 C          -8.5241   -5.3177   -0.2435 C.ar    1  LIG1       -0.0064
     40 C          -9.4823   -6.3800   -0.2813 C.ar    1  LIG1        0.0725
     41 C          -8.7974   -7.5854   -0.1812 C.ar    1  LIG1        0.0199
     42 N          -7.4778   -7.3004   -0.0830 N.ar    1  LIG1       -0.3581
     43 H          -6.7411   -7.9896   -0.0121 H       1  LIG1        0.1654
     44 H          -9.1674   -8.5988   -0.1757 H       1  LIG1        0.0820
     45 C          -8.8474   -3.8571   -0.3496 C.3     1  LIG1       -0.0364
     46 H          -9.9150   -3.7195   -0.5354 H       1  LIG1        0.0279
     47 H          -8.3107   -3.3804   -1.1784 H       1  LIG1        0.0279
     48 H          -8.6094   -3.3002    0.5646 H       1  LIG1        0.0279
     49 N         -12.0399   -6.0896   -0.5141 N.1     1  LIG1       -0.1908
     50 C         -10.8891   -6.2320   -0.4079 C.1     1  LIG1        0.1009
@<TRIPOS>BOND
     1    12    13    3
     2    10     8    1
     3    13     3    1
     4    47    45    1
     5    34    32    1
     6     8    11    1
     7     8     9    1
     8     8     2    1
     9    46    45    1
    10    49    50    3
    11     3     2   ar
    12     3     4   ar
    13    50    40    1
    14    45    39    1
    15    45    48    1
    16    40    39   ar
    17    40    41   ar
    18    19    18    1
    19     2     1   ar
    20    39    38   ar
    21    36    37    3
    22    41    44    1
    23    41    42   ar
    24    37    28    1
    25    38    42   ar
    26    38    29    1
    27    42    43    1
    28    22    20    1
    29    28    29   ar
    30    28    27   ar
    31    29    30   ar
    32    27    32    1
    33    27    26   ar
    34    30    26   ar
    35    30    31    1
    36    32    35    1
    37    32    33    1
    38    18    17   ar
    39    18    14   ar
    40    26    17    1
    41     4    14    1
    42     4     5   ar
    43    17    16   ar
    44    14    15   ar
    45     1     5   ar
    46     1     7    1
    47    16    15   ar
    48    16    25    1
    49    15    20    1
    50     5     6    1
    51    25    24    3
    52    20    23    1
    53    20    21    1
