@<TRIPOS>MOLECULE
mol_data/opt/b3lyp/geoms/mol2/13id13id13id13id.out
 50 53 0 0 0
SMALL
GASTEIGER

@<TRIPOS>ATOM
      1 C           0.5583    0.2258    2.0063 C.ar    1  LIG1        0.0064
      2 C           0.8160    0.9497    0.8672 C.ar    1  LIG1       -0.0151
      3 C          -0.2977    0.7175   -0.0131 C.ar    1  LIG1        0.0813
      4 C          -1.1987   -0.1362    0.6287 C.ar    1  LIG1        0.0810
      5 N          -0.6434   -0.4348    1.8507 N.ar    1  LIG1       -0.3582
      6 H          -1.1367   -0.9090    2.5915 H       1  LIG1        0.1654
      7 H           1.1359    0.1264    2.9131 H       1  LIG1        0.0810
      8 C           2.0164    1.7968    0.5754 C.3     1  LIG1       -0.0371
      9 H           1.7320    2.8357    0.3767 H       1  LIG1        0.0278
     10 H           2.5547    1.4377   -0.3085 H       1  LIG1        0.0278
     11 H           2.7120    1.7926    1.4184 H       1  LIG1        0.0278
     12 N          -0.5204    1.6133   -2.4261 N.1     1  LIG1       -0.1908
     13 C          -0.4274    1.2072   -1.3381 C.1     1  LIG1        0.1016
     14 C          -2.4669   -0.6930    0.1930 C.ar    1  LIG1        0.0688
     15 C          -3.5778   -0.0949   -0.3834 C.ar    1  LIG1       -0.0057
     16 C          -4.5443   -1.1366   -0.5701 C.ar    1  LIG1        0.0819
     17 C          -4.0091   -2.3398   -0.0986 C.ar    1  LIG1        0.0815
     18 N          -2.7495   -2.0445    0.3566 N.ar    1  LIG1       -0.3506
     19 H          -2.1186   -2.7148    0.7687 H       1  LIG1        0.1660
     20 C          -3.7599    1.3479   -0.7411 C.3     1  LIG1       -0.0364
     21 H          -4.8135    1.6317   -0.6740 H       1  LIG1        0.0279
     22 H          -3.4217    1.5537   -1.7623 H       1  LIG1        0.0279
     23 H          -3.1830    1.9941   -0.0740 H       1  LIG1        0.0279
     24 N          -6.8712   -0.8513   -1.6568 N.1     1  LIG1       -0.1908
     25 C          -5.8226   -0.9862   -1.1683 C.1     1  LIG1        0.1016
     26 C          -4.5493   -3.6872   -0.0756 C.ar    1  LIG1        0.0688
     27 C          -5.7667   -4.1758    0.3736 C.ar    1  LIG1       -0.0057
     28 C          -5.7280   -5.5954    0.1778 C.ar    1  LIG1        0.0819
     29 C          -4.4913   -5.9413   -0.3772 C.ar    1  LIG1        0.0815
     30 N          -3.7949   -4.7690   -0.5184 N.ar    1  LIG1       -0.3506
     31 H          -2.8690   -4.7024   -0.9128 H       1  LIG1        0.1660
     32 C          -6.9072   -3.4007    0.9576 C.3     1  LIG1       -0.0364
     33 H          -7.4466   -4.0031    1.6934 H       1  LIG1        0.0279
     34 H          -7.6221   -3.0979    0.1852 H       1  LIG1        0.0279
     35 H          -6.5546   -2.4883    1.4459 H       1  LIG1        0.0279
     36 N          -7.6543   -7.2309    0.7163 N.1     1  LIG1       -0.1908
     37 C          -6.7828   -6.4994    0.4675 C.1     1  LIG1        0.1016
     38 C          -3.9463   -7.2206   -0.7933 C.ar    1  LIG1        0.0684
     39 C          -3.8935   -8.4453   -0.1459 C.ar    1  LIG1       -0.0064
     40 C          -3.1964   -9.3358   -1.0319 C.ar    1  LIG1        0.0725
     41 C          -2.8527   -8.6317   -2.1763 C.ar    1  LIG1        0.0199
     42 N          -3.2911   -7.3540   -2.0163 N.ar    1  LIG1       -0.3581
     43 H          -3.3198   -6.6650   -2.7524 H       1  LIG1        0.1654
     44 H          -2.3393   -8.9575   -3.0676 H       1  LIG1        0.0820
     45 C          -4.4160   -8.7914    1.2144 C.3     1  LIG1       -0.0364
     46 H          -3.8031   -9.5703    1.6763 H       1  LIG1        0.0279
     47 H          -5.4456   -9.1615    1.1650 H       1  LIG1        0.0279
     48 H          -4.4197   -7.9173    1.8712 H       1  LIG1        0.0279
     49 N          -2.6159  -11.8054   -0.5363 N.1     1  LIG1       -0.1908
     50 C          -2.8769  -10.6952   -0.7702 C.1     1  LIG1        0.1009
@<TRIPOS>BOND
     1    44    41    1
     2    43    42    1
     3    12    13    3
     4    41    42   ar
     5    41    40   ar
     6    42    38   ar
     7    22    20    1
     8    24    25    3
     9    13     3    1
    10    25    16    1
    11    40    50    1
    12    40    39   ar
    13    31    30    1
    14    38    29    1
    15    38    39   ar
    16    50    49    3
    17    20    21    1
    18    20    15    1
    19    20    23    1
    20    16    15   ar
    21    16    17   ar
    22    30    29   ar
    23    30    26   ar
    24    15    14   ar
    25    29    28   ar
    26    10     8    1
    27    39    45    1
    28    17    26    1
    29    17    18   ar
    30    26    27   ar
    31     3     4   ar
    32     3     2   ar
    33    28    27   ar
    34    28    37    1
    35    34    32    1
    36    14    18   ar
    37    14     4    1
    38    18    19    1
    39    27    32    1
    40     9     8    1
    41    37    36    3
    42     8     2    1
    43     8    11    1
    44     4     5   ar
    45     2     1   ar
    46    32    35    1
    47    32    33    1
    48    47    45    1
    49    45    46    1
    50    45    48    1
    51     5     1   ar
    52     5     6    1
    53     1     7    1
