@<TRIPOS>MOLECULE
mol_data/opt/b3lyp/geoms/mol2/13id13id.out
 26 27 0 0 0
SMALL
GASTEIGER

@<TRIPOS>ATOM
      1 C           1.1090   -0.2710    0.6251 C.ar    1  LIG1        0.0064
      2 C           0.8445    0.9521    0.0588 C.ar    1  LIG1       -0.0151
      3 C          -0.5444    0.9267   -0.3174 C.ar    1  LIG1        0.0813
      4 C          -1.0774   -0.3139    0.0434 C.ar    1  LIG1        0.0810
      5 N          -0.0439   -1.0298    0.5994 N.ar    1  LIG1       -0.3582
      6 H          -0.1671   -1.9071    1.0808 H       1  LIG1        0.1654
      7 H           2.0258   -0.6625    1.0399 H       1  LIG1        0.0810
      8 C           1.7995    2.0864   -0.1539 C.3     1  LIG1       -0.0371
      9 H           1.4575    2.9958    0.3518 H       1  LIG1        0.0278
     10 H           1.9008    2.3307   -1.2170 H       1  LIG1        0.0278
     11 H           2.7924    1.8392    0.2309 H       1  LIG1        0.0278
     12 N          -1.7853    2.8142   -1.5707 N.1     1  LIG1       -0.1908
     13 C          -1.2351    1.9571   -1.0049 C.1     1  LIG1        0.1016
     14 C          -2.4088   -0.8716   -0.1062 C.ar    1  LIG1        0.0684
     15 C          -3.6613   -0.3405    0.1613 C.ar    1  LIG1       -0.0064
     16 C          -4.6092   -1.3739   -0.1526 C.ar    1  LIG1        0.0725
     17 C          -3.9103   -2.4878   -0.5935 C.ar    1  LIG1        0.0199
     18 N          -2.5860   -2.1815   -0.5464 N.ar    1  LIG1       -0.3581
     19 H          -1.8512   -2.7489   -0.9398 H       1  LIG1        0.1654
     20 H          -4.2690   -3.4491   -0.9272 H       1  LIG1        0.0820
     21 C          -3.9884    1.0175    0.7015 C.3     1  LIG1       -0.0364
     22 H          -4.8978    0.9827    1.3076 H       1  LIG1        0.0279
     23 H          -4.1508    1.7416   -0.1042 H       1  LIG1        0.0279
     24 H          -3.1733    1.4023    1.3203 H       1  LIG1        0.0279
     25 N          -7.1737   -1.2090    0.1270 N.1     1  LIG1       -0.1908
     26 C          -6.0196   -1.2900   -0.0052 C.1     1  LIG1        0.1009
@<TRIPOS>BOND
     1    12    13    3
     2    10     8    1
     3    13     3    1
     4    19    18    1
     5    20    17    1
     6    17    18   ar
     7    17    16   ar
     8    18    14   ar
     9     3     4   ar
    10     3     2   ar
    11     8     2    1
    12     8    11    1
    13     8     9    1
    14    16    26    1
    15    16    15   ar
    16    14     4    1
    17    14    15   ar
    18    23    21    1
    19    26    25    3
    20     4     5   ar
    21     2     1   ar
    22    15    21    1
    23     5     1   ar
    24     5     6    1
    25     1     7    1
    26    21    22    1
    27    21    24    1
