@<TRIPOS>MOLECULE
mol_data/opt/b3lyp/geoms/mol2/13id13id13id.out
 38 40 0 0 0
SMALL
GASTEIGER

@<TRIPOS>ATOM
      1 C           0.9404   -0.0840    1.2624 C.ar    1  LIG1        0.0064
      2 C           0.8841    0.9366    0.3444 C.ar    1  LIG1       -0.0151
      3 C          -0.4181    0.8566   -0.2619 C.ar    1  LIG1        0.0813
      4 C          -1.1117   -0.2090    0.3179 C.ar    1  LIG1        0.0810
      5 N          -0.2533   -0.7761    1.2305 N.ar    1  LIG1       -0.3582
      6 H          -0.5323   -1.4697    1.9072 H       1  LIG1        0.1654
      7 H           1.7356   -0.3739    1.9328 H       1  LIG1        0.0810
      8 C           1.9568    1.9283    0.0132 C.3     1  LIG1       -0.0371
      9 H           1.6182    2.9549    0.1893 H       1  LIG1        0.0278
     10 H           2.2496    1.8644   -1.0404 H       1  LIG1        0.0278
     11 H           2.8486    1.7580    0.6219 H       1  LIG1        0.0278
     12 N          -1.2648    2.3477   -2.1943 N.1     1  LIG1       -0.1908
     13 C          -0.8915    1.6716   -1.3220 C.1     1  LIG1        0.1016
     14 C          -2.4436   -0.7328    0.0760 C.ar    1  LIG1        0.0688
     15 C          -3.6723   -0.0974   -0.0250 C.ar    1  LIG1       -0.0057
     16 C          -4.6441   -1.1302   -0.2350 C.ar    1  LIG1        0.0819
     17 C          -3.9923   -2.3678   -0.2481 C.ar    1  LIG1        0.0815
     18 N          -2.6613   -2.0998   -0.0582 N.ar    1  LIG1       -0.3506
     19 H          -1.9389   -2.8025   -0.0200 H       1  LIG1        0.1660
     20 C          -3.9568    1.3697    0.0711 C.3     1  LIG1       -0.0364
     21 H          -4.9569    1.5425    0.4775 H       1  LIG1        0.0279
     22 H          -3.9061    1.8533   -0.9103 H       1  LIG1        0.0279
     23 H          -3.2286    1.8703    0.7150 H       1  LIG1        0.0279
     24 N          -7.1761   -0.7539   -0.5860 N.1     1  LIG1       -0.1908
     25 C          -6.0353   -0.9307   -0.4316 C.1     1  LIG1        0.1016
     26 C          -4.4905   -3.7167   -0.4459 C.ar    1  LIG1        0.0684
     27 C          -5.5570   -4.3911    0.1282 C.ar    1  LIG1       -0.0064
     28 C          -5.5385   -5.7156   -0.4285 C.ar    1  LIG1        0.0725
     29 C          -4.4737   -5.8022   -1.3128 C.ar    1  LIG1        0.0199
     30 N          -3.8367   -4.6005   -1.3028 N.ar    1  LIG1       -0.3581
     31 H          -3.1260   -4.3257   -1.9637 H       1  LIG1        0.1654
     32 H          -4.1446   -6.6242   -1.9295 H       1  LIG1        0.0820
     33 C          -6.5262   -3.8803    1.1494 C.3     1  LIG1       -0.0364
     34 H          -6.8715   -4.6929    1.7943 H       1  LIG1        0.0279
     35 H          -7.4062   -3.4315    0.6764 H       1  LIG1        0.0279
     36 H          -6.0698   -3.1096    1.7764 H       1  LIG1        0.0279
     37 N          -7.1659   -7.6308    0.1759 N.1     1  LIG1       -0.1908
     38 C          -6.4314   -6.7723   -0.1052 C.1     1  LIG1        0.1009
@<TRIPOS>BOND
     1    12    13    3
     2    31    30    1
     3    32    29    1
     4    13     3    1
     5    29    30   ar
     6    29    28   ar
     7    30    26   ar
     8    10     8    1
     9    22    20    1
    10    24    25    3
    11    26    17    1
    12    26    27   ar
    13    25    16    1
    14    28    38    1
    15    28    27   ar
    16     3     4   ar
    17     3     2   ar
    18    17    16   ar
    19    17    18   ar
    20    16    15   ar
    21    38    37    3
    22    18    19    1
    23    18    14   ar
    24    15    20    1
    25    15    14   ar
    26     8     9    1
    27     8     2    1
    28     8    11    1
    29    20    21    1
    30    20    23    1
    31    14     4    1
    32    27    33    1
    33     4     5   ar
    34     2     1   ar
    35    35    33    1
    36    33    36    1
    37    33    34    1
    38     5     1   ar
    39     5     6    1
    40     1     7    1
