@<TRIPOS>MOLECULE
mol_data/opt/b3lyp/geoms/mol2/13ie13ha6de12dh4ie-4fa12hi13he.out
 97 104 0 0 0
SMALL
GASTEIGER

@<TRIPOS>ATOM
      1 C           0.6881    0.7659   -1.2311 C.ar    1  LIG1        0.0063
      2 C           0.1612    2.0334   -1.1683 C.ar    1  LIG1       -0.0171
      3 C          -1.1581    1.9035   -0.6061 C.ar    1  LIG1        0.0543
      4 C          -1.3772    0.5436   -0.3344 C.ar    1  LIG1        0.0805
      5 N          -0.2415   -0.1240   -0.7406 N.ar    1  LIG1       -0.3582
      6 H          -0.0677   -1.1037   -0.5706 H       1  LIG1        0.1654
      7 H           1.6495    0.4269   -1.5872 H       1  LIG1        0.0810
      8 C           0.8055    3.3099   -1.6131 C.3     1  LIG1       -0.0371
      9 H           0.8964    4.0217   -0.7850 H       1  LIG1        0.0278
     10 H           0.2182    3.8046   -2.3949 H       1  LIG1        0.0278
     11 H           1.8075    3.1262   -2.0106 H       1  LIG1        0.0278
     12 C          -2.0814    2.9640   -0.4459 C.1     1  LIG1       -0.0672
     13 C          -2.8522    3.8928   -0.3173 C.1     1  LIG1       -0.1138
     14 H          -3.5348    4.7078   -0.2494 H       1  LIG1        0.1232
     15 C          -2.4975   -0.1796    0.2140 C.ar    1  LIG1        0.0854
     16 C          -3.4633    0.1393    1.1894 C.ar    1  LIG1        0.0523
     17 C          -4.2464   -1.0191    1.3864 C.ar    1  LIG1       -0.0149
     18 C          -3.7601   -2.0360    0.5569 C.ar    1  LIG1        0.0515
     19 N          -2.6940   -1.5025   -0.1315 N.ar    1  LIG1       -0.3514
     20 H          -2.2504   -1.9382   -0.9252 H       1  LIG1        0.1660
     21 N          -3.5424    1.3139    1.9291 N.pl3   1  LIG1       -0.3563
     22 H          -3.2601    2.1499    1.4288 H       1  LIG1        0.1424
     23 H          -4.4382    1.4435    2.3801 H       1  LIG1        0.1424
     24 H          -5.0385   -1.1196    2.1150 H       1  LIG1        0.0657
     25 C          -3.4922   -4.4603   -0.2060 C.ar    1  LIG1        0.1500
     26 C          -4.2163   -3.4009    0.4164 C.ar    1  LIG1        0.0354
     27 C          -5.4630   -3.7824    0.9479 C.ar    1  LIG1       -0.0323
     28 C          -5.9430   -5.0871    0.8501 C.ar    1  LIG1        0.0544
     29 C          -5.1446   -6.0408    0.1458 C.ar    1  LIG1        0.1241
     30 N          -3.9465   -5.7098   -0.3409 N.ar    1  LIG1       -0.2313
     31 H          -6.0742   -3.0464    1.4562 H       1  LIG1        0.0638
     32 N          -1.1193   -4.0072   -1.1800 N.1     1  LIG1       -0.1893
     33 C          -2.1746   -4.2450   -0.7485 C.1     1  LIG1        0.1198
     34 C          -7.1709   -5.4236    1.4881 C.1     1  LIG1       -0.0674
     35 C          -8.2064   -5.6697    2.0627 C.1     1  LIG1       -0.1138
     36 H          -9.1310   -5.9116    2.5347 H       1  LIG1        0.1232
     37 C          -5.5441   -7.4311   -0.0689 C.ar    1  LIG1        0.1742
     38 C          -6.7329   -8.0651   -0.3977 C.ar    1  LIG1        0.1202
     39 C          -6.4309   -9.4665   -0.5421 C.ar    1  LIG1        0.0893
     40 C          -5.0878   -9.6024   -0.2685 C.ar    1  LIG1        0.1579
     41 O          -4.5596   -8.3522   -0.0095 O.2     1  LIG1       -0.4500
     42 N          -9.0648   -7.1600   -1.0229 N.1     1  LIG1       -0.1907
     43 C          -7.9987   -7.5135   -0.7130 C.1     1  LIG1        0.1049
     44 N          -7.3489  -10.4481   -0.8985 N.pl3   1  LIG1       -0.3540
     45 H          -8.1947  -10.0755   -1.3137 H       1  LIG1        0.1425
     46 H          -6.9556  -11.1874   -1.4679 H       1  LIG1        0.1425
     47 C          -4.4136  -11.9562    0.3482 C.ar    1  LIG1       -0.0391
     48 C          -3.4717  -12.9795    0.2231 C.ar    1  LIG1       -0.0492
     49 C          -4.1510  -10.7262   -0.3038 C.ar    1  LIG1        0.0232
     50 C          -2.2677  -12.8455   -0.4812 C.ar    1  LIG1        0.0013
     51 H          -3.6678  -13.9227    0.7214 H       1  LIG1        0.0627
     52 C          -2.9458  -10.5660   -0.9993 C.ar    1  LIG1       -0.0348
     53 C          -2.0003  -11.5967   -1.1015 C.ar    1  LIG1        0.0332
     54 H          -2.7398   -9.6205   -1.4889 H       1  LIG1        0.0637
     55 C          -5.6213  -12.1567    1.2314 C.3     1  LIG1       -0.0390
     56 H          -5.5676  -13.1219    1.7409 H       1  LIG1        0.0278
     57 H          -6.5656  -12.1117    0.6792 H       1  LIG1        0.0278
     58 H          -5.6770  -11.3717    1.9939 H       1  LIG1        0.0278
     59 C          -0.8222  -11.3516   -1.8763 C.1     1  LIG1       -0.0690
     60 C           0.1491  -11.0916   -2.5500 C.1     1  LIG1       -0.1139
     61 H           1.0095  -10.8776   -3.1403 H       1  LIG1        0.1232
     62 C          -1.6840  -15.2817   -0.8626 C.ar    1  LIG1        0.1252
     63 C          -0.7621  -16.3283   -0.8699 C.ar    1  LIG1       -0.0089
     64 C          -1.2981  -13.9697   -0.5155 C.ar    1  LIG1        0.0248
     65 C           0.5866  -16.1136   -0.5258 C.ar    1  LIG1        0.0226
     66 H          -1.1104  -17.3345   -1.0891 H       1  LIG1        0.0661
     67 C           0.0481  -13.7777   -0.1626 C.ar    1  LIG1       -0.0498
     68 C           0.9749  -14.8103   -0.1589 C.ar    1  LIG1       -0.0502
     69 H           0.3681  -12.7807    0.1199 H       1  LIG1        0.0625
     70 O          -2.9951  -15.5016   -1.1951 O.3     1  LIG1       -0.5061
     71 H          -3.1051  -16.4365   -1.4125 H       1  LIG1        0.2922
     72 H           2.0046  -14.6174    0.1184 H       1  LIG1        0.0625
     73 C           1.5394  -17.2026   -0.5402 C.ar    1  LIG1        0.1566
     74 C           1.5700  -18.4441   -1.1412 C.ar    1  LIG1        0.0746
     75 C           2.7950  -19.0869   -0.7568 C.ar    1  LIG1        0.0181
     76 C           3.4621  -18.1763    0.0334 C.ar    1  LIG1        0.1583
     77 O           2.7169  -17.0329    0.1662 O.2     1  LIG1       -0.4511
     78 N           0.5823  -19.0280   -1.9444 N.pl3   1  LIG1       -0.3548
     79 H           0.1109  -18.3592   -2.5430 H       1  LIG1        0.1424
     80 H           0.9401  -19.7949   -2.5014 H       1  LIG1        0.1424
     81 C           3.1669  -20.4979   -1.1014 C.3     1  LIG1       -0.0343
     82 H           4.1628  -20.7547   -0.7364 H       1  LIG1        0.0279
     83 H           3.1592  -20.6654   -2.1878 H       1  LIG1        0.0279
     84 H           2.4538  -21.2080   -0.6646 H       1  LIG1        0.0279
     85 C           4.7072  -18.1705    0.7623 C.ar    1  LIG1        0.1046
     86 C           5.9364  -18.7930    0.5645 C.ar    1  LIG1        0.0688
     87 C           6.8037  -18.3841    1.6340 C.ar    1  LIG1        0.0633
     88 C           6.0771  -17.5105    2.4380 C.ar    1  LIG1        0.0195
     89 N           4.8368  -17.3845    1.9054 N.ar    1  LIG1       -0.3556
     90 H           4.0896  -16.8109    2.2623 H       1  LIG1        0.1655
     91 H           6.3762  -16.9846    3.3312 H       1  LIG1        0.0820
     92 N           6.2990  -19.6747   -0.4614 N.pl3   1  LIG1       -0.3553
     93 H           5.9776  -19.3744   -1.3753 H       1  LIG1        0.1424
     94 H           7.3022  -19.8264   -0.4776 H       1  LIG1        0.1424
     95 C           8.1524  -18.7888    1.7860 C.1     1  LIG1       -0.0663
     96 C           9.3037  -19.1603    1.8633 C.1     1  LIG1       -0.1138
     97 H          10.3151  -19.4797    1.9593 H       1  LIG1        0.1232
@<TRIPOS>BOND
     1    61    60    1
     2    60    59    3
     3    79    78    1
     4    80    78    1
     5    10     8    1
     6    83    81    1
     7    11     8    1
     8    78    74    1
     9    59    53    1
    10     8     2    1
    11     8     9    1
    12     7     1    1
    13    54    52    1
    14    46    44    1
    15    71    70    1
    16    93    92    1
    17    45    44    1
    18     1     2   ar
    19     1     5   ar
    20    70    62    1
    21    32    33    3
    22     2     3   ar
    23    74    75   ar
    24    74    73   ar
    25    53    52   ar
    26    53    50   ar
    27    81    75    1
    28    81    82    1
    29    81    84    1
    30    66    63    1
    31    42    43    3
    32    52    49   ar
    33    20    19    1
    34    44    39    1
    35    63    62   ar
    36    63    65   ar
    37    62    64   ar
    38    75    76   ar
    39    33    25    1
    40     5     6    1
    41     5     4   ar
    42    43    38    1
    43     3    12    1
    44     3     4   ar
    45    39    38   ar
    46    39    40   ar
    47    73    65    1
    48    73    77   ar
    49    65    68   ar
    50    64    50    1
    51    64    67   ar
    52    50    48   ar
    53    94    92    1
    54    92    86    1
    55    12    13    3
    56    38    37   ar
    57    30    25   ar
    58    30    29   ar
    59     4    15    1
    60    13    14    1
    61    49    40    1
    62    49    47   ar
    63    40    41   ar
    64    25    26   ar
    65    67    68   ar
    66    67    69    1
    67    68    72    1
    68    19    15   ar
    69    19    18   ar
    70    37    41   ar
    71    37    29    1
    72    76    77   ar
    73    76    85    1
    74    29    28   ar
    75    15    16   ar
    76    48    47   ar
    77    48    51    1
    78    47    55    1
    79    26    18    1
    80    26    27   ar
    81    18    17   ar
    82    86    85   ar
    83    86    87   ar
    84    57    55    1
    85    85    89   ar
    86    28    27   ar
    87    28    34    1
    88    27    31    1
    89    16    17   ar
    90    16    21    1
    91    55    56    1
    92    55    58    1
    93    17    24    1
    94    22    21    1
    95    34    35    3
    96    87    95    1
    97    87    88   ar
    98    95    96    3
    99    96    97    1
   100    89    90    1
   101    89    88   ar
   102    21    23    1
   103    35    36    1
   104    88    91    1
