@<TRIPOS>MOLECULE
mol_data/opt/b3lyp/geoms/mol2/13ie13ie-13ie-13ie-.out
 54 57 0 0 0
SMALL
GASTEIGER

@<TRIPOS>ATOM
      1 C           1.2107   -0.0834    0.4518 C.ar    1  LIG1        0.0063
      2 C           0.6894    1.1512    0.7524 C.ar    1  LIG1       -0.0171
      3 C          -0.7390    1.0364    0.6164 C.ar    1  LIG1        0.0542
      4 C          -1.0309   -0.2843    0.2322 C.ar    1  LIG1        0.0790
      5 N           0.1737   -0.9369    0.1404 N.ar    1  LIG1       -0.3583
      6 H           0.2753   -1.9071   -0.1057 H       1  LIG1        0.1654
      7 H           2.2356   -0.4227    0.4339 H       1  LIG1        0.0810
      8 C           1.4396    2.3861    1.1456 C.3     1  LIG1       -0.0371
      9 H           1.1274    2.7472    2.1320 H       1  LIG1        0.0278
     10 H           1.2651    3.2041    0.4375 H       1  LIG1        0.0278
     11 H           2.5160    2.1973    1.1819 H       1  LIG1        0.0278
     12 C          -1.6729    2.0777    0.8388 C.1     1  LIG1       -0.0672
     13 C          -2.4670    2.9755    1.0359 C.1     1  LIG1       -0.1138
     14 H          -3.1401    3.7802    1.2227 H       1  LIG1        0.1232
     15 C          -2.2949   -0.9282   -0.0353 C.ar    1  LIG1        0.0687
     16 C          -2.6155   -2.2167   -0.4573 C.ar    1  LIG1       -0.0077
     17 C          -4.0452   -2.2832   -0.5497 C.ar    1  LIG1        0.0549
     18 C          -4.5595   -1.0355   -0.1696 C.ar    1  LIG1        0.0795
     19 N          -3.4819   -0.2370    0.1209 N.ar    1  LIG1       -0.3506
     20 H          -3.5306    0.6870    0.5308 H       1  LIG1        0.1660
     21 C          -1.6832   -3.3424   -0.7932 C.3     1  LIG1       -0.0365
     22 H          -1.1191   -3.6924    0.0824 H       1  LIG1        0.0279
     23 H          -0.9620   -3.0661   -1.5737 H       1  LIG1        0.0279
     24 H          -2.2508   -4.1974   -1.1681 H       1  LIG1        0.0279
     25 C          -4.7821   -3.3947   -1.0306 C.1     1  LIG1       -0.0672
     26 C          -5.3748   -4.3619   -1.4569 C.1     1  LIG1       -0.1138
     27 H          -5.9107   -5.2012   -1.8346 H       1  LIG1        0.1232
     28 C          -5.9121   -0.5172   -0.1111 C.ar    1  LIG1        0.0687
     29 C          -7.0932   -1.0485    0.3872 C.ar    1  LIG1       -0.0077
     30 C          -8.1085   -0.0474    0.2135 C.ar    1  LIG1        0.0549
     31 C          -7.5149    1.0784   -0.3701 C.ar    1  LIG1        0.0795
     32 N          -6.1892    0.7682   -0.5591 N.ar    1  LIG1       -0.3506
     33 H          -5.5058    1.4001   -0.9467 H       1  LIG1        0.1660
     34 C          -7.2978   -2.3895    1.0200 C.3     1  LIG1       -0.0365
     35 H          -6.3710   -2.7636    1.4622 H       1  LIG1        0.0279
     36 H          -7.6296   -3.1369    0.2907 H       1  LIG1        0.0279
     37 H          -8.0613   -2.3281    1.8009 H       1  LIG1        0.0279
     38 C          -9.4792   -0.2025    0.5418 C.1     1  LIG1       -0.0672
     39 C         -10.6441   -0.3702    0.8296 C.1     1  LIG1       -0.1138
     40 H         -11.6720   -0.5129    1.0687 H       1  LIG1        0.1232
     41 C          -8.0608    2.3564   -0.7897 C.ar    1  LIG1        0.0682
     42 C          -8.8812    3.2671   -0.1427 C.ar    1  LIG1       -0.0084
     43 C          -9.0564    4.3794   -1.0402 C.ar    1  LIG1        0.0455
     44 C          -8.3347    4.1067   -2.1932 C.ar    1  LIG1        0.0179
     45 N          -7.7212    2.8989   -2.0267 N.ar    1  LIG1       -0.3581
     46 H          -7.2700    2.3782   -2.7625 H       1  LIG1        0.1654
     47 H          -8.2220    4.6864   -3.0965 H       1  LIG1        0.0819
     48 C          -9.4480    3.1643    1.2390 C.3     1  LIG1       -0.0365
     49 H          -8.8435    2.5040    1.8661 H       1  LIG1        0.0279
     50 H         -10.4639    2.7540    1.2288 H       1  LIG1        0.0279
     51 H          -9.4949    4.1514    1.7086 H       1  LIG1        0.0279
     52 C          -9.8051    5.5569   -0.7805 C.1     1  LIG1       -0.0679
     53 C         -10.4470    6.5551   -0.5390 C.1     1  LIG1       -0.1139
     54 H         -11.0136    7.4335   -0.3353 H       1  LIG1        0.1232
@<TRIPOS>BOND
     1    47    44    1
     2    46    45    1
     3    44    45   ar
     4    44    43   ar
     5    45    41   ar
     6    27    26    1
     7    23    21    1
     8    26    25    3
     9    24    21    1
    10    43    52    1
    11    43    42   ar
    12    25    17    1
    13    33    32    1
    14    21    16    1
    15    21    22    1
    16    41    31    1
    17    41    42   ar
    18    52    53    3
    19    32    31   ar
    20    32    28   ar
    21    17    16   ar
    22    17    18   ar
    23    53    54    1
    24    16    15   ar
    25    31    30   ar
    26    18    28    1
    27    18    19   ar
    28    42    48    1
    29    28    29   ar
    30     6     5    1
    31    15    19   ar
    32    15     4    1
    33    19    20    1
    34     5     4   ar
    35     5     1   ar
    36    30    29   ar
    37    30    38    1
    38     4     3   ar
    39    36    34    1
    40    29    34    1
    41     7     1    1
    42    10     8    1
    43     1     2   ar
    44    38    39    3
    45     3     2   ar
    46     3    12    1
    47     2     8    1
    48    39    40    1
    49    12    13    3
    50    34    35    1
    51    34    37    1
    52    13    14    1
    53     8    11    1
    54     8     9    1
    55    50    48    1
    56    48    51    1
    57    48    49    1
