@<TRIPOS>MOLECULE
mol_data/opt/b3lyp/geoms/mol2/13ie13ie-13ie-13ie.out
 54 57 0 0 0
SMALL
GASTEIGER

@<TRIPOS>ATOM
      1 C           1.2745   -0.2837    0.2086 C.ar    1  LIG1        0.0063
      2 C           0.8264    0.9357    0.6542 C.ar    1  LIG1       -0.0171
      3 C          -0.6116    0.8821    0.6167 C.ar    1  LIG1        0.0542
      4 C          -0.9835   -0.3879    0.1407 C.ar    1  LIG1        0.0790
      5 N           0.1842   -1.0703   -0.0966 N.ar    1  LIG1       -0.3583
      6 H           0.2286   -2.0140   -0.4427 H       1  LIG1        0.1654
      7 H           2.2810   -0.6544    0.0842 H       1  LIG1        0.0810
      8 C           1.6524    2.1030    1.0985 C.3     1  LIG1       -0.0371
      9 H           1.4340    2.3761    2.1371 H       1  LIG1        0.0278
     10 H           1.4533    2.9909    0.4876 H       1  LIG1        0.0278
     11 H           2.7203    1.8789    1.0272 H       1  LIG1        0.0278
     12 C          -1.4825    1.9290    1.0057 C.1     1  LIG1       -0.0672
     13 C          -2.2189    2.8328    1.3474 C.1     1  LIG1       -0.1138
     14 H          -2.8380    3.6383    1.6688 H       1  LIG1        0.1232
     15 C          -2.2880   -0.9611   -0.0886 C.ar    1  LIG1        0.0687
     16 C          -2.6904   -2.2064   -0.5671 C.ar    1  LIG1       -0.0077
     17 C          -4.1245   -2.2081   -0.5772 C.ar    1  LIG1        0.0549
     18 C          -4.5591   -0.9660   -0.0911 C.ar    1  LIG1        0.0795
     19 N          -3.4315   -0.2325    0.1800 N.ar    1  LIG1       -0.3506
     20 H          -3.4172    0.6657    0.6460 H       1  LIG1        0.1660
     21 C          -1.8304   -3.3469   -1.0242 C.3     1  LIG1       -0.0365
     22 H          -1.2074   -3.7493   -0.2137 H       1  LIG1        0.0279
     23 H          -1.1681   -3.0629   -1.8529 H       1  LIG1        0.0279
     24 H          -2.4575   -4.1668   -1.3821 H       1  LIG1        0.0279
     25 C          -4.9360   -3.2555   -1.0807 C.1     1  LIG1       -0.0672
     26 C          -5.5941   -4.1690   -1.5294 C.1     1  LIG1       -0.1138
     27 H          -6.1859   -4.9590   -1.9294 H       1  LIG1        0.1232
     28 C          -5.8757   -0.3918    0.0870 C.ar    1  LIG1        0.0687
     29 C          -7.0594   -0.9035    0.5953 C.ar    1  LIG1       -0.0077
     30 C          -8.0148    0.1680    0.5782 C.ar    1  LIG1        0.0549
     31 C          -7.3813    1.3147    0.0672 C.ar    1  LIG1        0.0795
     32 N          -6.0874    0.9523   -0.2042 N.ar    1  LIG1       -0.3506
     33 H          -5.4379    1.5215   -0.7228 H       1  LIG1        0.1660
     34 C          -7.3097   -2.2791    1.1292 C.3     1  LIG1       -0.0365
     35 H          -6.3825   -2.7417    1.4760 H       1  LIG1        0.0279
     36 H          -7.7312   -2.9413    0.3648 H       1  LIG1        0.0279
     37 H          -8.0170   -2.2434    1.9633 H       1  LIG1        0.0279
     38 C          -9.3532    0.0802    1.0343 C.1     1  LIG1       -0.0672
     39 C         -10.4998   -0.0038    1.4248 C.1     1  LIG1       -0.1138
     40 H         -11.5000   -0.1036    1.7776 H       1  LIG1        0.1232
     41 C          -7.8811    2.6480   -0.1661 C.ar    1  LIG1        0.0682
     42 C          -7.2554    3.8057   -0.6293 C.ar    1  LIG1       -0.0084
     43 C          -8.2554    4.8350   -0.6513 C.ar    1  LIG1        0.0455
     44 C          -9.4444    4.2701   -0.2040 C.ar    1  LIG1        0.0179
     45 N          -9.2062    2.9628    0.0806 N.ar    1  LIG1       -0.3581
     46 H          -9.8761    2.2955    0.4396 H       1  LIG1        0.1654
     47 H         -10.4189    4.7149   -0.0757 H       1  LIG1        0.0819
     48 C          -5.8247    3.9919   -1.0388 C.3     1  LIG1       -0.0365
     49 H          -5.6376    5.0433   -1.2701 H       1  LIG1        0.0279
     50 H          -5.5690    3.4192   -1.9413 H       1  LIG1        0.0279
     51 H          -5.1200    3.7020   -0.2484 H       1  LIG1        0.0279
     52 C          -8.0652    6.1828   -1.0518 C.1     1  LIG1       -0.0679
     53 C          -7.8811    7.3295   -1.3965 C.1     1  LIG1       -0.1139
     54 H          -7.7326    8.3398   -1.6987 H       1  LIG1        0.1232
@<TRIPOS>BOND
     1    50    48    1
     2    27    26    1
     3    23    21    1
     4    54    53    1
     5    26    25    3
     6    53    52    3
     7    24    21    1
     8    49    48    1
     9    25    17    1
    10    52    43    1
    11    48    42    1
    12    48    51    1
    13    21    16    1
    14    21    22    1
    15    33    32    1
    16    43    42   ar
    17    43    44   ar
    18    42    41   ar
    19    17    16   ar
    20    17    18   ar
    21    16    15   ar
    22     6     5    1
    23    32    31   ar
    24    32    28   ar
    25    44    47    1
    26    44    45   ar
    27    41    31    1
    28    41    45   ar
    29     5     4   ar
    30     5     1   ar
    31    18    28    1
    32    18    19   ar
    33    15     4    1
    34    15    19   ar
    35    31    30   ar
    36    45    46    1
    37     7     1    1
    38    28    29   ar
    39     4     3   ar
    40    19    20    1
    41     1     2   ar
    42    36    34    1
    43    10     8    1
    44    30    29   ar
    45    30    38    1
    46    29    34    1
    47     3     2   ar
    48     3    12    1
    49     2     8    1
    50    12    13    3
    51    11     8    1
    52    38    39    3
    53     8     9    1
    54    34    35    1
    55    34    37    1
    56    13    14    1
    57    39    40    1
