@<TRIPOS>MOLECULE
mol_data/opt/b3lyp/geoms/mol2/13ie13ie13ie13ie.out
 54 57 0 0 0
SMALL
GASTEIGER

@<TRIPOS>ATOM
      1 C           0.4760    0.1171    2.2056 C.ar    1  LIG1        0.0063
      2 C           0.7245    0.9061    1.1087 C.ar    1  LIG1       -0.0171
      3 C          -0.3987    0.7447    0.2201 C.ar    1  LIG1        0.0542
      4 C          -1.2981   -0.1383    0.8248 C.ar    1  LIG1        0.0790
      5 N          -0.7311   -0.5241    2.0222 N.ar    1  LIG1       -0.3583
      6 H          -1.2312   -1.0239    2.7406 H       1  LIG1        0.1654
      7 H           1.0643   -0.0435    3.0971 H       1  LIG1        0.0810
      8 C           1.9314    1.7552    0.8531 C.3     1  LIG1       -0.0371
      9 H           1.6578    2.8078    0.7200 H       1  LIG1        0.0278
     10 H           2.4527    1.4456   -0.0597 H       1  LIG1        0.0278
     11 H           2.6401    1.6932    1.6837 H       1  LIG1        0.0278
     12 C          -0.5183    1.3260   -1.0675 C.1     1  LIG1       -0.0672
     13 C          -0.5832    1.8339   -2.1656 C.1     1  LIG1       -0.1138
     14 H          -0.6459    2.2732   -3.1337 H       1  LIG1        0.1232
     15 C          -2.5759   -0.6696    0.3846 C.ar    1  LIG1        0.0687
     16 C          -3.7052   -0.0493   -0.1280 C.ar    1  LIG1       -0.0077
     17 C          -4.6842   -1.0770   -0.3492 C.ar    1  LIG1        0.0549
     18 C          -4.1305   -2.2990    0.0504 C.ar    1  LIG1        0.0795
     19 N          -2.8547   -2.0263    0.4868 N.ar    1  LIG1       -0.3506
     20 H          -2.2130   -2.7160    0.8455 H       1  LIG1        0.1660
     21 C          -3.8988    1.4110   -0.3929 C.3     1  LIG1       -0.0365
     22 H          -4.9378    1.6993   -0.2090 H       1  LIG1        0.0279
     23 H          -3.6621    1.6680   -1.4315 H       1  LIG1        0.0279
     24 H          -3.2468    2.0161    0.2425 H       1  LIG1        0.0279
     25 C          -5.9702   -0.8808   -0.9138 C.1     1  LIG1       -0.0672
     26 C          -7.0604   -0.6806   -1.4027 C.1     1  LIG1       -0.1138
     27 H          -8.0168   -0.5139   -1.8406 H       1  LIG1        0.1232
     28 C          -4.6525   -3.6538    0.0217 C.ar    1  LIG1        0.0687
     29 C          -5.8450   -4.1923    0.4801 C.ar    1  LIG1       -0.0077
     30 C          -5.7957   -5.6043    0.2200 C.ar    1  LIG1        0.0549
     31 C          -4.5639   -5.8934   -0.3788 C.ar    1  LIG1        0.0795
     32 N          -3.8912   -4.6989   -0.4872 N.ar    1  LIG1       -0.3506
     33 H          -2.9771   -4.5970   -0.8997 H       1  LIG1        0.1660
     34 C          -6.9758   -3.4672    1.1401 C.3     1  LIG1       -0.0365
     35 H          -7.4342   -4.0926    1.9119 H       1  LIG1        0.0279
     36 H          -7.7592   -3.2023    0.4213 H       1  LIG1        0.0279
     37 H          -6.6333   -2.5355    1.5975 H       1  LIG1        0.0279
     38 C          -6.8381   -6.5267    0.4909 C.1     1  LIG1       -0.0672
     39 C          -7.7497   -7.2873    0.7322 C.1     1  LIG1       -0.1138
     40 H          -8.5512   -7.9604    0.9286 H       1  LIG1        0.1232
     41 C          -3.9940   -7.1330   -0.8759 C.ar    1  LIG1        0.0682
     42 C          -3.8732   -8.3880   -0.3010 C.ar    1  LIG1       -0.0084
     43 C          -3.1804   -9.2167   -1.2532 C.ar    1  LIG1        0.0455
     44 C          -2.9030   -8.4361   -2.3659 C.ar    1  LIG1        0.0179
     45 N          -3.3753   -7.1786   -2.1231 N.ar    1  LIG1       -0.3581
     46 H          -3.4644   -6.4556   -2.8200 H       1  LIG1        0.1654
     47 H          -2.4080   -8.6931   -3.2897 H       1  LIG1        0.0819
     48 C          -4.3227   -8.8149    1.0615 C.3     1  LIG1       -0.0365
     49 H          -3.6206   -9.5372    1.4885 H       1  LIG1        0.0279
     50 H          -5.3089   -9.2914    1.0296 H       1  LIG1        0.0279
     51 H          -4.4033   -7.9596    1.7373 H       1  LIG1        0.0279
     52 C          -2.8178  -10.5771   -1.0734 C.1     1  LIG1       -0.0679
     53 C          -2.5151  -11.7368   -0.8994 C.1     1  LIG1       -0.1139
     54 H          -2.2501  -12.7581   -0.7557 H       1  LIG1        0.1232
@<TRIPOS>BOND
     1    47    44    1
     2    14    13    1
     3    46    45    1
     4    44    45   ar
     5    44    43   ar
     6    13    12    3
     7    45    41   ar
     8    27    26    1
     9    23    21    1
    10    26    25    3
    11    43    52    1
    12    43    42   ar
    13    52    53    3
    14    12     3    1
    15    25    17    1
    16    33    32    1
    17    53    54    1
    18    41    31    1
    19    41    42   ar
    20    32    31   ar
    21    32    28   ar
    22    21    22    1
    23    21    16    1
    24    21    24    1
    25    31    30   ar
    26    17    16   ar
    27    17    18   ar
    28    42    48    1
    29    16    15   ar
    30    10     8    1
    31    28    18    1
    32    28    29   ar
    33    18    19   ar
    34    30    29   ar
    35    30    38    1
    36     3     4   ar
    37     3     2   ar
    38    15    19   ar
    39    15     4    1
    40    36    34    1
    41    29    34    1
    42    19    20    1
    43    38    39    3
    44     9     8    1
    45    39    40    1
    46     4     5   ar
    47     8     2    1
    48     8    11    1
    49    50    48    1
    50    48    49    1
    51    48    51    1
    52     2     1   ar
    53    34    37    1
    54    34    35    1
    55     5     1   ar
    56     5     6    1
    57     1     7    1
