@<TRIPOS>MOLECULE
mol_data/opt/b3lyp/geoms/mol2/13ie13ie13ie-13ie.out
 54 57 0 0 0
SMALL
GASTEIGER

@<TRIPOS>ATOM
      1 C           1.2299   -0.0577    0.5884 C.ar    1  LIG1        0.0063
      2 C           0.9074    1.0620   -0.1393 C.ar    1  LIG1       -0.0171
      3 C          -0.5155    1.0148   -0.3646 C.ar    1  LIG1        0.0542
      4 C          -1.0065   -0.1406    0.2532 C.ar    1  LIG1        0.0790
      5 N           0.0800   -0.7877    0.8046 N.ar    1  LIG1       -0.3583
      6 H          -0.0006   -1.5634    1.4429 H       1  LIG1        0.1654
      7 H           2.1853   -0.3961    0.9615 H       1  LIG1        0.0810
      8 C           1.8392    2.1232   -0.6377 C.3     1  LIG1       -0.0371
      9 H           1.5607    3.1110   -0.2540 H       1  LIG1        0.0278
     10 H           1.8200    2.1915   -1.7312 H       1  LIG1        0.0278
     11 H           2.8690    1.9198   -0.3306 H       1  LIG1        0.0278
     12 C          -1.2520    1.9400   -1.1461 C.1     1  LIG1       -0.0672
     13 C          -1.8454    2.7471   -1.8279 C.1     1  LIG1       -0.1138
     14 H          -2.3731    3.4464   -2.4333 H       1  LIG1        0.1232
     15 C          -2.3397   -0.7019    0.3438 C.ar    1  LIG1        0.0687
     16 C          -3.5668   -0.1298    0.6336 C.ar    1  LIG1       -0.0077
     17 C          -4.5338   -1.1922    0.6231 C.ar    1  LIG1        0.0549
     18 C          -3.8647   -2.3929    0.3327 C.ar    1  LIG1        0.0795
     19 N          -2.5352   -2.0723    0.1933 N.ar    1  LIG1       -0.3506
     20 H          -1.8540   -2.6846   -0.2261 H       1  LIG1        0.1660
     21 C          -3.8531    1.3019    0.9613 C.3     1  LIG1       -0.0365
     22 H          -4.6459    1.3737    1.7120 H       1  LIG1        0.0279
     23 H          -4.1810    1.8606    0.0776 H       1  LIG1        0.0279
     24 H          -2.9606    1.8034    1.3430 H       1  LIG1        0.0279
     25 C          -5.9123   -1.0413    0.9116 C.1     1  LIG1       -0.0672
     26 C          -7.0895   -0.8830    1.1620 C.1     1  LIG1       -0.1138
     27 H          -8.1165   -0.7261    1.3968 H       1  LIG1        0.1232
     28 C          -4.3545   -3.7400    0.1795 C.ar    1  LIG1        0.0687
     29 C          -3.6831   -4.9556    0.0739 C.ar    1  LIG1       -0.0077
     30 C          -4.6820   -5.9710   -0.0635 C.ar    1  LIG1        0.0549
     31 C          -5.9451   -5.3474   -0.0373 C.ar    1  LIG1        0.0795
     32 N          -5.7122   -4.0071    0.1072 N.ar    1  LIG1       -0.3506
     33 H          -6.4214   -3.2957    0.2170 H       1  LIG1        0.1660
     34 C          -2.2054   -5.2076    0.1031 C.3     1  LIG1       -0.0365
     35 H          -1.7180   -4.6864    0.9353 H       1  LIG1        0.0279
     36 H          -1.7073   -4.8991   -0.8273 H       1  LIG1        0.0279
     37 H          -2.0084   -6.2758    0.2224 H       1  LIG1        0.0279
     38 C          -4.4246   -7.3574   -0.1970 C.1     1  LIG1       -0.0672
     39 C          -4.1894   -8.5443   -0.3007 C.1     1  LIG1       -0.1138
     40 H          -3.9648   -9.5800   -0.4101 H       1  LIG1        0.1232
     41 C          -7.2687   -5.9152   -0.1360 C.ar    1  LIG1        0.0682
     42 C          -8.5282   -5.3297   -0.2640 C.ar    1  LIG1       -0.0084
     43 C          -9.4791   -6.4028   -0.3206 C.ar    1  LIG1        0.0455
     44 C          -8.7688   -7.5946   -0.2301 C.ar    1  LIG1        0.0179
     45 N          -7.4500   -7.2886   -0.1187 N.ar    1  LIG1       -0.3581
     46 H          -6.6871   -7.9490   -0.0581 H       1  LIG1        0.1654
     47 H          -9.1204   -8.6146   -0.2399 H       1  LIG1        0.0819
     48 C          -8.8721   -3.8734   -0.3483 C.3     1  LIG1       -0.0365
     49 H          -9.9321   -3.7554   -0.5862 H       1  LIG1        0.0279
     50 H          -8.2992   -3.3575   -1.1279 H       1  LIG1        0.0279
     51 H          -8.6934   -3.3459    0.5978 H       1  LIG1        0.0279
     52 C         -10.8859   -6.2732   -0.4531 C.1     1  LIG1       -0.0679
     53 C         -12.0848   -6.1425   -0.5670 C.1     1  LIG1       -0.1139
     54 H         -13.1400   -6.0396   -0.6675 H       1  LIG1        0.1232
@<TRIPOS>BOND
     1    14    13    1
     2    13    12    3
     3    10     8    1
     4    12     3    1
     5    50    48    1
     6    36    34    1
     7    54    53    1
     8     8    11    1
     9     8     9    1
    10     8     2    1
    11    49    48    1
    12    53    52    3
    13    52    43    1
    14    40    39    1
    15     3     2   ar
    16     3     4   ar
    17    48    42    1
    18    48    51    1
    19    43    42   ar
    20    43    44   ar
    21    39    38    3
    22    42    41   ar
    23    47    44    1
    24    44    45   ar
    25    20    19    1
    26    38    30    1
    27     2     1   ar
    28    41    45   ar
    29    41    31    1
    30    45    46    1
    31    30    31   ar
    32    30    29   ar
    33    31    32   ar
    34    29    34    1
    35    29    28   ar
    36    23    21    1
    37    34    37    1
    38    34    35    1
    39    32    28   ar
    40    32    33    1
    41    28    18    1
    42    19    18   ar
    43    19    15   ar
    44     4    15    1
    45     4     5   ar
    46    18    17   ar
    47    15    16   ar
    48     1     5   ar
    49     1     7    1
    50    17    16   ar
    51    17    25    1
    52    16    21    1
    53     5     6    1
    54    25    26    3
    55    21    24    1
    56    21    22    1
    57    26    27    1
