@<TRIPOS>MOLECULE
mol_data/opt/b3lyp/geoms/mol2/13ie13ie13ie-13ie-.out
 54 57 0 0 0
SMALL
GASTEIGER

@<TRIPOS>ATOM
      1 C           1.1446    0.0094    0.8949 C.ar    1  LIG1        0.0063
      2 C           0.8486    1.1452    0.1810 C.ar    1  LIG1       -0.0171
      3 C          -0.5503    1.0691   -0.1578 C.ar    1  LIG1        0.0542
      4 C          -1.0552   -0.1192    0.3811 C.ar    1  LIG1        0.0790
      5 N           0.0025   -0.7569    0.9957 N.ar    1  LIG1       -0.3583
      6 H          -0.1050   -1.5557    1.6008 H       1  LIG1        0.1654
      7 H           2.0770   -0.3171    1.3316 H       1  LIG1        0.0810
      8 C           1.7867    2.2465   -0.2064 C.3     1  LIG1       -0.0371
      9 H           1.4503    3.2132    0.1844 H       1  LIG1        0.0278
     10 H           1.8537    2.3511   -1.2952 H       1  LIG1        0.0278
     11 H           2.7938    2.0594    0.1769 H       1  LIG1        0.0278
     12 C          -1.2497    2.0014   -0.9645 C.1     1  LIG1       -0.0672
     13 C          -1.8112    2.8161   -1.6640 C.1     1  LIG1       -0.1138
     14 H          -2.3089    3.5227   -2.2862 H       1  LIG1        0.1232
     15 C          -2.3758   -0.7161    0.3465 C.ar    1  LIG1        0.0687
     16 C          -3.6360   -0.1849    0.5655 C.ar    1  LIG1       -0.0077
     17 C          -4.5708   -1.2672    0.4357 C.ar    1  LIG1        0.0549
     18 C          -3.8496   -2.4392    0.1470 C.ar    1  LIG1        0.0795
     19 N          -2.5245   -2.0814    0.1205 N.ar    1  LIG1       -0.3506
     20 H          -1.7894   -2.6706   -0.2361 H       1  LIG1        0.1660
     21 C          -3.9830    1.2259    0.9244 C.3     1  LIG1       -0.0365
     22 H          -4.8385    1.2505    1.6060 H       1  LIG1        0.0279
     23 H          -4.2459    1.8153    0.0389 H       1  LIG1        0.0279
     24 H          -3.1386    1.7285    1.4024 H       1  LIG1        0.0279
     25 C          -5.9726   -1.1644    0.6132 C.1     1  LIG1       -0.0672
     26 C          -7.1732   -1.0665    0.7672 C.1     1  LIG1       -0.1138
     27 H          -8.2213   -0.9557    0.9225 H       1  LIG1        0.1232
     28 C          -4.3001   -3.7879   -0.0916 C.ar    1  LIG1        0.0687
     29 C          -3.6051   -4.9719   -0.3330 C.ar    1  LIG1       -0.0077
     30 C          -4.5842   -6.0067   -0.4929 C.ar    1  LIG1        0.0549
     31 C          -5.8515   -5.4286   -0.3317 C.ar    1  LIG1        0.0795
     32 N          -5.6498   -4.0905   -0.1074 N.ar    1  LIG1       -0.3506
     33 H          -6.3664   -3.4301    0.1661 H       1  LIG1        0.1660
     34 C          -2.1229   -5.1736   -0.4384 C.3     1  LIG1       -0.0365
     35 H          -1.5952   -4.8526    0.4690 H       1  LIG1        0.0279
     36 H          -1.6866   -4.6362   -1.2921 H       1  LIG1        0.0279
     37 H          -1.9007   -6.2331   -0.5855 H       1  LIG1        0.0279
     38 C          -4.3026   -7.3535   -0.8342 C.1     1  LIG1       -0.0672
     39 C          -4.0215   -8.4935   -1.1338 C.1     1  LIG1       -0.1138
     40 H          -3.7931   -9.4972   -1.4071 H       1  LIG1        0.1232
     41 C          -7.1886   -5.9829   -0.4144 C.ar    1  LIG1        0.0682
     42 C          -7.7485   -7.1421    0.1027 C.ar    1  LIG1       -0.0084
     43 C          -9.1371   -7.1359   -0.2753 C.ar    1  LIG1        0.0455
     44 C          -9.3712   -5.9747   -0.9985 C.ar    1  LIG1        0.0179
     45 N          -8.2000   -5.2790   -1.0614 N.ar    1  LIG1       -0.3581
     46 H          -8.0410   -4.4650   -1.6341 H       1  LIG1        0.1654
     47 H         -10.2779   -5.6124   -1.4579 H       1  LIG1        0.0819
     48 C          -7.0828   -8.1859    0.9445 C.3     1  LIG1       -0.0365
     49 H          -6.2266   -7.7728    1.4840 H       1  LIG1        0.0279
     50 H          -6.7083   -9.0184    0.3385 H       1  LIG1        0.0279
     51 H          -7.7906   -8.5976    1.6699 H       1  LIG1        0.0279
     52 C         -10.1016   -8.1224    0.0580 C.1     1  LIG1       -0.0679
     53 C         -10.9104   -8.9737    0.3544 C.1     1  LIG1       -0.1139
     54 H         -11.6263   -9.7200    0.6083 H       1  LIG1        0.1232
@<TRIPOS>BOND
     1    14    13    1
     2    13    12    3
     3    46    45    1
     4    47    44    1
     5    40    39    1
     6    10     8    1
     7    36    34    1
     8    39    38    3
     9    45    44   ar
    10    45    41   ar
    11    44    43   ar
    12    12     3    1
    13    38    30    1
    14    37    34    1
    15    30    29   ar
    16    30    31   ar
    17    34    29    1
    18    34    35    1
    19    41    31    1
    20    41    42   ar
    21    29    28   ar
    22    31    32   ar
    23    43    52    1
    24    43    42   ar
    25    20    19    1
    26     8    11    1
    27     8     2    1
    28     8     9    1
    29     3     2   ar
    30     3     4   ar
    31    32    28   ar
    32    32    33    1
    33    28    18    1
    34    23    21    1
    35    52    53    3
    36    42    48    1
    37    19    18   ar
    38    19    15   ar
    39    18    17   ar
    40     2     1   ar
    41    50    48    1
    42    15     4    1
    43    15    16   ar
    44    53    54    1
    45     4     5   ar
    46    17    16   ar
    47    17    25    1
    48    16    21    1
    49    25    26    3
    50    26    27    1
    51     1     5   ar
    52     1     7    1
    53    21    24    1
    54    21    22    1
    55    48    49    1
    56    48    51    1
    57     5     6    1
