@<TRIPOS>MOLECULE
mol_data/opt/b3lyp/geoms/mol2/13ie13ie13ie13ie-.out
 54 57 0 0 0
SMALL
GASTEIGER

@<TRIPOS>ATOM
      1 C           0.4350    0.4016    2.1637 C.ar    1  LIG1        0.0063
      2 C           0.6508    1.1324    1.0205 C.ar    1  LIG1       -0.0171
      3 C          -0.4626    0.8683    0.1442 C.ar    1  LIG1        0.0542
      4 C          -1.3237   -0.0150    0.8021 C.ar    1  LIG1        0.0790
      5 N          -0.7424   -0.3022    2.0202 N.ar    1  LIG1       -0.3583
      6 H          -1.2216   -0.7790    2.7678 H       1  LIG1        0.1654
      7 H           1.0282    0.3212    3.0627 H       1  LIG1        0.0810
      8 C           1.8202    2.0157    0.7118 C.3     1  LIG1       -0.0371
      9 H           1.5005    3.0434    0.5067 H       1  LIG1        0.0278
     10 H           2.3602    1.6688   -0.1764 H       1  LIG1        0.0278
     11 H           2.5261    2.0418    1.5468 H       1  LIG1        0.0278
     12 C          -0.6043    1.3637   -1.1766 C.1     1  LIG1       -0.0672
     13 C          -0.6888    1.8002   -2.3037 C.1     1  LIG1       -0.1138
     14 H          -0.7679    2.1738   -3.2978 H       1  LIG1        0.1232
     15 C          -2.5756   -0.6284    0.3966 C.ar    1  LIG1        0.0687
     16 C          -3.7283   -0.0933   -0.1581 C.ar    1  LIG1       -0.0077
     17 C          -4.6616   -1.1745   -0.3119 C.ar    1  LIG1        0.0549
     18 C          -4.0576   -2.3422    0.1714 C.ar    1  LIG1        0.0795
     19 N          -2.7969   -1.9857    0.5908 N.ar    1  LIG1       -0.3506
     20 H          -2.1246   -2.6251    0.9846 H       1  LIG1        0.1660
     21 C          -3.9840    1.3360   -0.5210 C.3     1  LIG1       -0.0365
     22 H          -5.0306    1.5967   -0.3380 H       1  LIG1        0.0279
     23 H          -3.7759    1.5274   -1.5797 H       1  LIG1        0.0279
     24 H          -3.3461    2.0093    0.0571 H       1  LIG1        0.0279
     25 C          -5.9483   -1.0691   -0.8981 C.1     1  LIG1       -0.0672
     26 C          -7.0395   -0.9428   -1.4093 C.1     1  LIG1       -0.1138
     27 H          -7.9940   -0.8420   -1.8707 H       1  LIG1        0.1232
     28 C          -4.5143   -3.7167    0.2361 C.ar    1  LIG1        0.0687
     29 C          -5.7034   -4.2757    0.6720 C.ar    1  LIG1       -0.0077
     30 C          -5.5648   -5.6998    0.5435 C.ar    1  LIG1        0.0549
     31 C          -4.2829   -5.9726    0.0369 C.ar    1  LIG1        0.0795
     32 N          -3.6604   -4.7589   -0.1180 N.ar    1  LIG1       -0.3506
     33 H          -2.8137   -4.6292   -0.6488 H       1  LIG1        0.1660
     34 C          -6.8975   -3.5657    1.2283 C.3     1  LIG1       -0.0365
     35 H          -7.3522   -4.1492    2.0348 H       1  LIG1        0.0279
     36 H          -7.6644   -3.4053    0.4624 H       1  LIG1        0.0279
     37 H          -6.6240   -2.5821    1.6172 H       1  LIG1        0.0279
     38 C          -6.5487   -6.6540    0.9017 C.1     1  LIG1       -0.0672
     39 C          -7.3992   -7.4648    1.2076 C.1     1  LIG1       -0.1138
     40 H          -8.1602   -8.1553    1.4887 H       1  LIG1        0.1232
     41 C          -3.6439   -7.2236   -0.2943 C.ar    1  LIG1        0.0682
     42 C          -2.3557   -7.5195   -0.7402 C.ar    1  LIG1       -0.0084
     43 C          -2.2913   -8.9440   -0.9025 C.ar    1  LIG1        0.0455
     44 C          -3.5339   -9.4594   -0.5513 C.ar    1  LIG1        0.0179
     45 N          -4.3321   -8.4201   -0.1915 N.ar    1  LIG1       -0.3581
     46 H          -5.2900   -8.4822    0.1269 H       1  LIG1        0.1654
     47 H          -3.8829  -10.4801   -0.5373 H       1  LIG1        0.0819
     48 C          -1.2231   -6.5743   -1.0101 C.3     1  LIG1       -0.0365
     49 H          -0.9928   -5.9430   -0.1424 H       1  LIG1        0.0279
     50 H          -1.4218   -5.9136   -1.8658 H       1  LIG1        0.0279
     51 H          -0.3183   -7.1373   -1.2516 H       1  LIG1        0.0279
     52 C          -1.1650   -9.6897   -1.3367 C.1     1  LIG1       -0.0679
     53 C          -0.1913  -10.3073   -1.7080 C.1     1  LIG1       -0.1139
     54 H           0.6570  -10.8618   -2.0353 H       1  LIG1        0.1232
@<TRIPOS>BOND
     1    14    13    1
     2    13    12    3
     3    54    53    1
     4    27    26    1
     5    50    48    1
     6    53    52    3
     7    23    21    1
     8    26    25    3
     9    52    43    1
    10    51    48    1
    11    12     3    1
    12    48    42    1
    13    48    49    1
    14    43    42   ar
    15    43    44   ar
    16    25    17    1
    17    42    41   ar
    18    33    32    1
    19    44    47    1
    20    44    45   ar
    21    21    22    1
    22    21    16    1
    23    21    24    1
    24    17    16   ar
    25    17    18   ar
    26    41    45   ar
    27    41    31    1
    28    45    46    1
    29    10     8    1
    30    16    15   ar
    31    32    31   ar
    32    32    28   ar
    33    31    30   ar
    34     3     4   ar
    35     3     2   ar
    36    18    28    1
    37    18    19   ar
    38    28    29   ar
    39    15    19   ar
    40    15     4    1
    41    36    34    1
    42     9     8    1
    43    30    29   ar
    44    30    38    1
    45    19    20    1
    46    29    34    1
    47     8     2    1
    48     8    11    1
    49     4     5   ar
    50    38    39    3
    51     2     1   ar
    52    39    40    1
    53    34    37    1
    54    34    35    1
    55     5     1   ar
    56     5     6    1
    57     1     7    1
