@<TRIPOS>MOLECULE
mol_data/opt/b3lyp/geoms/mol2/13ie13ie-.out
 28 29 0 0 0
SMALL
GASTEIGER

@<TRIPOS>ATOM
      1 C           1.1997   -0.2806    0.0162 C.ar    1  LIG1        0.0063
      2 C           0.8024    1.0337   -0.0032 C.ar    1  LIG1       -0.0171
      3 C          -0.6374    1.0261   -0.0127 C.ar    1  LIG1        0.0542
      4 C          -1.0621   -0.3137    0.0017 C.ar    1  LIG1        0.0790
      5 N           0.0764   -1.0806    0.0192 N.ar    1  LIG1       -0.3583
      6 H           0.0813   -2.0866    0.0313 H       1  LIG1        0.1654
      7 H           2.1899   -0.7109    0.0285 H       1  LIG1        0.0810
      8 C           1.6758    2.2500   -0.0130 C.3     1  LIG1       -0.0371
      9 H           1.4850    2.8878    0.8576 H       1  LIG1        0.0278
     10 H           1.4973    2.8648   -0.9026 H       1  LIG1        0.0278
     11 H           2.7339    1.9741   -0.0021 H       1  LIG1        0.0278
     12 C          -1.4649    2.1750   -0.0325 C.1     1  LIG1       -0.0672
     13 C          -2.1663    3.1664   -0.0494 C.1     1  LIG1       -0.1138
     14 H          -2.7587    4.0516   -0.0641 H       1  LIG1        0.1232
     15 C          -2.3895   -0.8850    0.0004 C.ar    1  LIG1        0.0682
     16 C          -2.8339   -2.2063    0.0140 C.ar    1  LIG1       -0.0084
     17 C          -4.2689   -2.1609    0.0035 C.ar    1  LIG1        0.0455
     18 C          -4.6424   -0.8222   -0.0162 C.ar    1  LIG1        0.0179
     19 N          -3.5089   -0.0717   -0.0181 N.ar    1  LIG1       -0.3581
     20 H          -3.4587    0.9384   -0.0292 H       1  LIG1        0.1654
     21 H          -5.6243   -0.3753   -0.0285 H       1  LIG1        0.0819
     22 C          -2.0174   -3.4644    0.0354 C.3     1  LIG1       -0.0365
     23 H          -1.3825   -3.5358    0.9290 H       1  LIG1        0.0279
     24 H          -1.3717   -3.5591   -0.8483 H       1  LIG1        0.0279
     25 H          -2.6770   -4.3355    0.0427 H       1  LIG1        0.0279
     26 C          -5.1438   -3.2777    0.0114 C.1     1  LIG1       -0.0679
     27 C          -5.8724   -4.2456    0.0187 C.1     1  LIG1       -0.1139
     28 H          -6.5240   -5.0878    0.0247 H       1  LIG1        0.1232
@<TRIPOS>BOND
     1    10     8    1
     2    24    22    1
     3    14    13    1
     4    13    12    3
     5    12     3    1
     6    20    19    1
     7    21    18    1
     8    19    18   ar
     9    19    15   ar
    10    18    17   ar
    11     8     2    1
    12     8    11    1
    13     8     9    1
    14     3     2   ar
    15     3     4   ar
    16     2     1   ar
    17    15     4    1
    18    15    16   ar
    19     4     5   ar
    20    17    26    1
    21    17    16   ar
    22    26    27    3
    23    16    22    1
    24     1     5   ar
    25     1     7    1
    26    27    28    1
    27     5     6    1
    28    22    25    1
    29    22    23    1
