@<TRIPOS>MOLECULE
mol_data/opt/b3lyp/geoms/mol2/13ie13ie-13ie13ie-.out
 54 57 0 0 0
SMALL
GASTEIGER

@<TRIPOS>ATOM
      1 C           1.3395   -0.2428   -0.0260 C.ar    1  LIG1        0.0063
      2 C           0.9184    1.0072   -0.4082 C.ar    1  LIG1       -0.0171
      3 C          -0.5208    0.9722   -0.4098 C.ar    1  LIG1        0.0542
      4 C          -0.9215   -0.3177   -0.0207 C.ar    1  LIG1        0.0790
      5 N           0.2318   -1.0315    0.2003 N.ar    1  LIG1       -0.3583
      6 H           0.2556   -1.9799    0.5350 H       1  LIG1        0.1654
      7 H           2.3376   -0.6352    0.0996 H       1  LIG1        0.0810
      8 C           1.7701    2.1856   -0.7661 C.3     1  LIG1       -0.0371
      9 H           1.5631    3.0420   -0.1144 H       1  LIG1        0.0278
     10 H           1.5854    2.5167   -1.7943 H       1  LIG1        0.0278
     11 H           2.8329    1.9440   -0.6767 H       1  LIG1        0.0278
     12 C          -1.3650    2.0511   -0.7672 C.1     1  LIG1       -0.0672
     13 C          -2.0683    2.9910   -1.0780 C.1     1  LIG1       -0.1138
     14 H          -2.6647    3.8219   -1.3754 H       1  LIG1        0.1232
     15 C          -2.2360   -0.8893    0.1499 C.ar    1  LIG1        0.0687
     16 C          -2.6533   -2.2022    0.3533 C.ar    1  LIG1       -0.0077
     17 C          -4.0817   -2.1742    0.4472 C.ar    1  LIG1        0.0549
     18 C          -4.5018   -0.8393    0.2963 C.ar    1  LIG1        0.0795
     19 N          -3.3673   -0.0922    0.1244 N.ar    1  LIG1       -0.3506
     20 H          -3.3420    0.8938   -0.0969 H       1  LIG1        0.1660
     21 C          -1.8128   -3.4396    0.4583 C.3     1  LIG1       -0.0365
     22 H          -1.2374   -3.4780    1.3942 H       1  LIG1        0.0279
     23 H          -1.1079   -3.5303   -0.3773 H       1  LIG1        0.0279
     24 H          -2.4489   -4.3279    0.4459 H       1  LIG1        0.0279
     25 C          -4.9093   -3.3011    0.6731 C.1     1  LIG1       -0.0672
     26 C          -5.5966   -4.2842    0.8603 C.1     1  LIG1       -0.1138
     27 H          -6.1875   -5.1491    1.0539 H       1  LIG1        0.1232
     28 C          -5.8244   -0.2637    0.3060 C.ar    1  LIG1        0.0687
     29 C          -6.2572    1.0470    0.4872 C.ar    1  LIG1       -0.0077
     30 C          -7.6859    1.0259    0.4037 C.ar    1  LIG1        0.0549
     31 C          -8.0915   -0.3040    0.1770 C.ar    1  LIG1        0.0795
     32 N          -6.9487   -1.0530    0.1208 N.ar    1  LIG1       -0.3506
     33 H          -6.9126   -2.0585    0.0362 H       1  LIG1        0.1660
     34 C          -5.4291    2.2678    0.7504 C.3     1  LIG1       -0.0365
     35 H          -6.0566    3.0698    1.1473 H       1  LIG1        0.0279
     36 H          -4.9525    2.6567   -0.1594 H       1  LIG1        0.0279
     37 H          -4.6351    2.0720    1.4788 H       1  LIG1        0.0279
     38 C          -8.5301    2.1552    0.5397 C.1     1  LIG1       -0.0672
     39 C          -9.2446    3.1287    0.6681 C.1     1  LIG1       -0.1138
     40 H          -9.8530    3.9976    0.7667 H       1  LIG1        0.1232
     41 C          -9.4118   -0.8656    0.0175 C.ar    1  LIG1        0.0682
     42 C          -9.8442   -2.1381   -0.3555 C.ar    1  LIG1       -0.0084
     43 C         -11.2789   -2.1062   -0.3462 C.ar    1  LIG1        0.0455
     44 C         -11.6651   -0.8232    0.0252 C.ar    1  LIG1        0.0179
     45 N         -10.5398   -0.0934    0.2411 N.ar    1  LIG1       -0.3581
     46 H         -10.5012    0.8828    0.5013 H       1  LIG1        0.1654
     47 H         -12.6514   -0.4021    0.1431 H       1  LIG1        0.0819
     48 C          -9.0142   -3.3309   -0.7232 C.3     1  LIG1       -0.0365
     49 H          -8.4547   -3.7331    0.1317 H       1  LIG1        0.0279
     50 H          -8.2895   -3.1025   -1.5140 H       1  LIG1        0.0279
     51 H          -9.6590   -4.1332   -1.0902 H       1  LIG1        0.0279
     52 C         -12.1457   -3.1832   -0.6659 C.1     1  LIG1       -0.0679
     53 C         -12.8693   -4.1145   -0.9428 C.1     1  LIG1       -0.1139
     54 H         -13.5153   -4.9257   -1.1848 H       1  LIG1        0.1232
@<TRIPOS>BOND
     1    10     8    1
     2    50    48    1
     3    14    13    1
     4    54    53    1
     5    51    48    1
     6    13    12    3
     7    53    52    3
     8    12     3    1
     9     8    11    1
    10     8     2    1
    11     8     9    1
    12    48    42    1
    13    48    49    1
    14    52    43    1
    15     3     2   ar
    16     3     4   ar
    17     2     1   ar
    18    23    21    1
    19    42    43   ar
    20    42    41   ar
    21    43    44   ar
    22    36    34    1
    23    20    19    1
    24     1     7    1
    25     1     5   ar
    26     4    15    1
    27     4     5   ar
    28    41    31    1
    29    41    45   ar
    30    44    47    1
    31    44    45   ar
    32    33    32    1
    33    32    31   ar
    34    32    28   ar
    35    19    15   ar
    36    19    18   ar
    37    15    16   ar
    38    31    30   ar
    39     5     6    1
    40    45    46    1
    41    18    28    1
    42    18    17   ar
    43    28    29   ar
    44    16    17   ar
    45    16    21    1
    46    30    29   ar
    47    30    38    1
    48    24    21    1
    49    17    25    1
    50    21    22    1
    51    29    34    1
    52    38    39    3
    53    39    40    1
    54    25    26    3
    55    34    35    1
    56    34    37    1
    57    26    27    1
