@<TRIPOS>MOLECULE
mol_data/opt/b3lyp/geoms/mol2/13ie6if-4dd4il.out
 57 60 0 0 0
SMALL
GASTEIGER

@<TRIPOS>ATOM
      1 C           1.3301   -0.0405   -0.8548 C.ar    1  LIG1        0.0063
      2 C           1.0308    1.0873   -0.1259 C.ar    1  LIG1       -0.0172
      3 C          -0.3571    0.9863    0.2323 C.ar    1  LIG1        0.0528
      4 C          -0.8533   -0.2175   -0.2929 C.ar    1  LIG1        0.0641
      5 N           0.2022   -0.8205   -0.9374 N.ar    1  LIG1       -0.3594
      6 H           0.1264   -1.6655   -1.4788 H       1  LIG1        0.1654
      7 H           2.2565   -0.3477   -1.3172 H       1  LIG1        0.0810
      8 C           1.9565    2.2051    0.2433 C.3     1  LIG1       -0.0371
      9 H           2.0596    2.2973    1.3303 H       1  LIG1        0.0278
     10 H           1.5842    3.1682   -0.1228 H       1  LIG1        0.0278
     11 H           2.9533    2.0460   -0.1772 H       1  LIG1        0.0278
     12 C          -1.0577    1.9373    1.0167 C.1     1  LIG1       -0.0673
     13 C          -1.6188    2.7765    1.6870 C.1     1  LIG1       -0.1138
     14 H          -2.1212    3.5047    2.2801 H       1  LIG1        0.1232
     15 C          -2.4620   -2.1894   -0.1472 C.ar    1  LIG1        0.0483
     16 C          -2.1998   -0.7928   -0.2465 C.ar    1  LIG1        0.0240
     17 C          -3.3033    0.0646   -0.2719 C.ar    1  LIG1       -0.0072
     18 C          -4.6013   -0.4413   -0.2351 C.ar    1  LIG1        0.1434
     19 C          -4.7683   -1.8384   -0.2112 C.ar    1  LIG1        0.1138
     20 N          -3.7085   -2.6600   -0.1316 N.ar    1  LIG1       -0.2475
     21 H          -3.1700    1.1387   -0.3110 H       1  LIG1        0.0662
     22 C          -1.3813   -3.2393   -0.0191 C.3     1  LIG1       -0.0217
     23 H          -0.5517   -2.9034    0.6086 H       1  LIG1        0.0293
     24 H          -0.9693   -3.5310   -0.9953 H       1  LIG1        0.0293
     25 H          -1.8208   -4.1388    0.4144 H       1  LIG1        0.0293
     26 O          -5.6114    0.4686   -0.2021 O.3     1  LIG1       -0.5046
     27 H          -6.4663    0.0221   -0.1507 H       1  LIG1        0.2922
     28 C          -7.1419   -2.2625   -1.0945 C.ar    1  LIG1        0.0617
     29 C          -8.3676   -2.9442   -0.9926 C.ar    1  LIG1       -0.0347
     30 C          -6.0968   -2.5110   -0.1715 C.ar    1  LIG1        0.0225
     31 C          -8.6004   -3.8977   -0.0033 C.ar    1  LIG1        0.0011
     32 H          -9.1390   -2.7444   -1.7281 H       1  LIG1        0.0637
     33 C          -6.3221   -3.4874    0.8038 C.ar    1  LIG1       -0.0332
     34 C          -7.5422   -4.1684    0.8986 C.ar    1  LIG1        0.0602
     35 H          -5.5238   -3.7170    1.4995 H       1  LIG1        0.0637
     36 N          -6.8694   -0.6634   -3.1248 N.1     1  LIG1       -0.1908
     37 C          -6.9701   -1.3716   -2.2073 C.1     1  LIG1        0.0998
     38 N          -7.7860   -5.8920    2.8281 N.1     1  LIG1       -0.1908
     39 C          -7.6992   -5.1300    1.9539 C.1     1  LIG1        0.0998
     40 C         -11.1040   -3.9539    0.3892 C.ar    1  LIG1       -0.0425
     41 C         -12.2779   -4.7090    0.4063 C.ar    1  LIG1       -0.0548
     42 C          -9.9030   -4.6249    0.0580 C.ar    1  LIG1       -0.0103
     43 C         -12.3007   -6.0732    0.1074 C.ar    1  LIG1       -0.0197
     44 H         -13.2118   -4.2190    0.6688 H       1  LIG1        0.0622
     45 C          -9.9128   -5.9896   -0.2323 C.ar    1  LIG1       -0.0120
     46 C         -11.1062   -6.7223   -0.2137 C.ar    1  LIG1        0.1207
     47 H          -8.9955   -6.5101   -0.4863 H       1  LIG1        0.0660
     48 H         -13.2416   -6.6094    0.1356 H       1  LIG1        0.0654
     49 C         -11.1389   -2.4846    0.7460 C.3     1  LIG1       -0.0391
     50 H         -12.1146   -2.2146    1.1581 H       1  LIG1        0.0278
     51 H         -10.9629   -1.8386   -0.1221 H       1  LIG1        0.0278
     52 H         -10.3800   -2.2293    1.4930 H       1  LIG1        0.0278
     53 O         -10.9913   -8.0446   -0.5243 O.3     1  LIG1       -0.4951
     54 C         -12.1645   -8.8437   -0.4963 C.3     1  LIG1        0.0788
     55 H         -11.8463   -9.8533   -0.7588 H       1  LIG1        0.0660
     56 H         -12.6205   -8.8568    0.5016 H       1  LIG1        0.0660
     57 H         -12.9072   -8.4982   -1.2268 H       1  LIG1        0.0660
@<TRIPOS>BOND
     1    36    37    3
     2    37    28    1
     3    32    29    1
     4     6     5    1
     5     7     1    1
     6    57    54    1
     7    28    29   ar
     8    28    30   ar
     9    24    22    1
    10    29    31   ar
    11     5     1   ar
    12     5     4   ar
    13     1     2   ar
    14    55    54    1
    15    53    54    1
    16    53    46    1
    17    54    56    1
    18    47    45    1
    19    21    17    1
    20     4    16    1
    21     4     3   ar
    22    17    16   ar
    23    17    18   ar
    24    16    15   ar
    25    18    19   ar
    26    18    26    1
    27    45    46   ar
    28    45    42   ar
    29    46    43   ar
    30    19    30    1
    31    19    20   ar
    32    26    27    1
    33    11     8    1
    34    30    33   ar
    35    15    20   ar
    36    15    22    1
    37     2     3   ar
    38     2     8    1
    39    10     8    1
    40    51    49    1
    41    22    25    1
    42    22    23    1
    43    31    42    1
    44    31    34   ar
    45    42    40   ar
    46    43    48    1
    47    43    41   ar
    48     3    12    1
    49     8     9    1
    50    40    41   ar
    51    40    49    1
    52    41    44    1
    53    49    50    1
    54    49    52    1
    55    33    34   ar
    56    33    35    1
    57    34    39    1
    58    12    13    3
    59    13    14    1
    60    39    38    3
