@<TRIPOS>MOLECULE
mol_data/opt/b3lyp/geoms/mol2/13ie13ie.out
 28 29 0 0 0
SMALL
GASTEIGER

@<TRIPOS>ATOM
      1 C           1.0927   -0.3082    0.6353 C.ar    1  LIG1        0.0063
      2 C           0.8279    0.9613    0.1820 C.ar    1  LIG1       -0.0171
      3 C          -0.5636    0.9852   -0.1938 C.ar    1  LIG1        0.0542
      4 C          -1.0955   -0.2829    0.0587 C.ar    1  LIG1        0.0790
      5 N          -0.0615   -1.0576    0.5414 N.ar    1  LIG1       -0.3583
      6 H          -0.1950   -1.9672    0.9543 H       1  LIG1        0.1654
      7 H           2.0102   -0.7387    1.0088 H       1  LIG1        0.0810
      8 C           1.7879    2.1050    0.0662 C.3     1  LIG1       -0.0371
      9 H           1.4552    2.9665    0.6560 H       1  LIG1        0.0278
     10 H           1.8793    2.4479   -0.9706 H       1  LIG1        0.0278
     11 H           2.7843    1.8207    0.4163 H       1  LIG1        0.0278
     12 C          -1.2365    2.0849   -0.7834 C.1     1  LIG1       -0.0672
     13 C          -1.7770    3.0431   -1.2913 C.1     1  LIG1       -0.1138
     14 H          -2.2588    3.8767   -1.7461 H       1  LIG1        0.1232
     15 C          -2.4252   -0.8333   -0.1337 C.ar    1  LIG1        0.0682
     16 C          -3.6811   -0.3537    0.2030 C.ar    1  LIG1       -0.0084
     17 C          -4.6319   -1.3546   -0.2068 C.ar    1  LIG1        0.0455
     18 C          -3.9208   -2.4042   -0.7701 C.ar    1  LIG1        0.0179
     19 N          -2.5935   -2.0924   -0.7036 N.ar    1  LIG1       -0.3581
     20 H          -1.8592   -2.5948   -1.1769 H       1  LIG1        0.1654
     21 H          -4.2709   -3.3308   -1.1983 H       1  LIG1        0.0819
     22 C          -4.0107    0.9298    0.8990 C.3     1  LIG1       -0.0365
     23 H          -4.8765    0.7994    1.5550 H       1  LIG1        0.0279
     24 H          -4.2526    1.7254    0.1853 H       1  LIG1        0.0279
     25 H          -3.1659    1.2830    1.4961 H       1  LIG1        0.0279
     26 C          -6.0397   -1.2942   -0.0366 C.1     1  LIG1       -0.0679
     27 C          -7.2387   -1.2249    0.1196 C.1     1  LIG1       -0.1139
     28 H          -8.2941   -1.1685    0.2501 H       1  LIG1        0.1232
@<TRIPOS>BOND
     1    14    13    1
     2    13    12    3
     3    21    18    1
     4    20    19    1
     5    10     8    1
     6    12     3    1
     7    18    19   ar
     8    18    17   ar
     9    19    15   ar
    10    17    26    1
    11    17    16   ar
    12     3     4   ar
    13     3     2   ar
    14    15     4    1
    15    15    16   ar
    16    26    27    3
    17     4     5   ar
    18     8     2    1
    19     8    11    1
    20     8     9    1
    21    27    28    1
    22     2     1   ar
    23    24    22    1
    24    16    22    1
    25     5     1   ar
    26     5     6    1
    27     1     7    1
    28    22    25    1
    29    22    23    1
