@<TRIPOS>MOLECULE
mol_data/opt/b3lyp/geoms/mol2/13ie13ai-13di-13ei-6la-12ae-4fd-4ei-.out
 100 107 0 0 0
SMALL
GASTEIGER

@<TRIPOS>ATOM
      1 C           1.9064   -1.4608   -1.0530 C.ar    1  LIG1        0.0063
      2 C           1.8013   -0.0914   -0.9807 C.ar    1  LIG1       -0.0171
      3 C           0.4817    0.2014   -0.4851 C.ar    1  LIG1        0.0542
      4 C          -0.1730   -1.0180   -0.2726 C.ar    1  LIG1        0.0787
      5 N           0.7080   -2.0108   -0.6476 N.ar    1  LIG1       -0.3583
      6 H           0.5695   -2.9873   -0.4437 H       1  LIG1        0.1654
      7 H           2.7411   -2.0855   -1.3398 H       1  LIG1        0.0810
      8 C           2.8439    0.9178   -1.3516 C.3     1  LIG1       -0.0371
      9 H           3.0621    1.5900   -0.5143 H       1  LIG1        0.0278
     10 H           2.5145    1.5474   -2.1863 H       1  LIG1        0.0278
     11 H           3.7760    0.4277   -1.6453 H       1  LIG1        0.0278
     12 C          -0.0564    1.4950   -0.2756 C.1     1  LIG1       -0.0672
     13 C          -0.4873    2.6143   -0.1006 C.1     1  LIG1       -0.1138
     14 H          -0.8763    3.5949    0.0445 H       1  LIG1        0.1232
     15 C          -1.4861   -1.3164    0.2464 C.ar    1  LIG1        0.0648
     16 C          -2.2982   -0.6229    1.1254 C.ar    1  LIG1       -0.0314
     17 C          -3.4812   -1.3794    1.3550 C.ar    1  LIG1       -0.0231
     18 C          -3.3775   -2.5368    0.5884 C.ar    1  LIG1        0.0676
     19 N          -2.1294   -2.5138   -0.0526 N.ar    1  LIG1       -0.3516
     20 H          -1.9998   -2.9525   -0.9547 H       1  LIG1        0.1660
     21 H          -2.0403    0.3127    1.6000 H       1  LIG1        0.0642
     22 C          -4.5646   -1.0170    2.3274 C.3     1  LIG1       -0.0376
     23 H          -4.9479   -1.8988    2.8492 H       1  LIG1        0.0278
     24 H          -5.4213   -0.5477    1.8330 H       1  LIG1        0.0278
     25 H          -4.1838   -0.3173    3.0767 H       1  LIG1        0.0278
     26 C          -4.1939   -3.7227    0.4904 C.ar    1  LIG1        0.0815
     27 C          -5.5733   -3.9758    0.5803 C.ar    1  LIG1        0.0819
     28 C          -5.7984   -5.3857    0.4136 C.ar    1  LIG1       -0.0057
     29 C          -4.5565   -5.9625    0.1954 C.ar    1  LIG1        0.0688
     30 N          -3.6125   -4.9396    0.2512 N.ar    1  LIG1       -0.3506
     31 H          -2.6207   -5.0692    0.1312 H       1  LIG1        0.1660
     32 N          -7.4717   -2.2452    0.8446 N.1     1  LIG1       -0.1908
     33 C          -6.6016   -3.0132    0.7333 C.1     1  LIG1        0.1016
     34 C          -7.1310   -6.0634    0.4985 C.3     1  LIG1       -0.0364
     35 H          -7.0220   -7.1173    0.7616 H       1  LIG1        0.0279
     36 H          -7.6673   -6.0223   -0.4558 H       1  LIG1        0.0279
     37 H          -7.7606   -5.5773    1.2498 H       1  LIG1        0.0279
     38 C          -4.0800   -7.3129   -0.0202 C.ar    1  LIG1        0.0795
     39 C          -4.5605   -8.4241   -0.7353 C.ar    1  LIG1        0.0548
     40 C          -3.5312   -9.4218   -0.7424 C.ar    1  LIG1       -0.0090
     41 C          -2.4386   -8.8944   -0.0431 C.ar    1  LIG1        0.0562
     42 N          -2.8163   -7.6350    0.3857 N.ar    1  LIG1       -0.3517
     43 H          -2.2257   -7.0853    0.9908 H       1  LIG1        0.1660
     44 C          -5.7900   -8.5219   -1.4343 C.1     1  LIG1       -0.0672
     45 C          -6.8237   -8.6407   -2.0554 C.1     1  LIG1       -0.1138
     46 H          -7.7359   -8.7275   -2.5983 H       1  LIG1        0.1232
     47 C          -3.6493  -10.7341   -1.4581 C.3     1  LIG1       -0.0365
     48 H          -3.6808  -11.5850   -0.7660 H       1  LIG1        0.0279
     49 H          -2.8145  -10.9018   -2.1482 H       1  LIG1        0.0279
     50 H          -4.5735  -10.7554   -2.0402 H       1  LIG1        0.0279
     51 C          -0.0031   -8.5256    0.5849 C.ar    1  LIG1        0.2245
     52 C          -1.0751   -9.3684    0.1513 C.ar    1  LIG1        0.0601
     53 C          -0.6726  -10.6818   -0.1514 C.ar    1  LIG1       -0.0454
     54 C           0.6665  -11.0625   -0.1311 C.ar    1  LIG1       -0.0318
     55 C           1.6289  -10.1043    0.1977 C.ar    1  LIG1        0.1099
     56 N           1.2641   -8.8642    0.5848 N.ar    1  LIG1       -0.2092
     57 H          -1.4202  -11.4121   -0.4303 H       1  LIG1        0.0626
     58 O          -0.3048   -7.2658    1.0301 O.3     1  LIG1       -0.4792
     59 C           0.7881   -6.4600    1.4983 C.3     1  LIG1        0.0804
     60 H           0.3325   -5.5264    1.8324 H       1  LIG1        0.0660
     61 H           1.3062   -6.9474    2.3269 H       1  LIG1        0.0660
     62 H           1.5091   -6.2767    0.6984 H       1  LIG1        0.0660
     63 H           0.9527  -12.0719   -0.4049 H       1  LIG1        0.0640
     64 C           3.0627  -10.3368    0.0900 C.ar    1  LIG1        0.1551
     65 C           3.8592  -11.4235   -0.1523 C.ar    1  LIG1        0.0018
     66 C           5.2132  -10.9481   -0.2304 C.ar    1  LIG1        0.0711
     67 C           5.1487   -9.5754   -0.0183 C.ar    1  LIG1        0.1546
     68 O           3.8470   -9.2229    0.1808 O.2     1  LIG1       -0.4519
     69 H           3.5481  -12.4496   -0.2788 H       1  LIG1        0.0668
     70 C           6.3247  -11.7630   -0.5643 C.1     1  LIG1       -0.0658
     71 C           7.2177  -12.5159   -0.8799 C.1     1  LIG1       -0.1138
     72 H           8.0164  -13.1650   -1.1540 H       1  LIG1        0.1232
     73 C           7.4213   -8.4783    0.2892 C.ar    1  LIG1        0.1282
     74 C           8.2133   -7.3292    0.2091 C.ar    1  LIG1       -0.0105
     75 C           6.0552   -8.4325   -0.0671 C.ar    1  LIG1        0.0611
     76 C           7.6981   -6.0910   -0.1802 C.ar    1  LIG1        0.0041
     77 H           9.2628   -7.3989    0.4784 H       1  LIG1        0.0661
     78 C           5.5343   -7.1882   -0.4441 C.ar    1  LIG1       -0.0295
     79 C           6.3193   -6.0307   -0.5023 C.ar    1  LIG1        0.0604
     80 H           4.4826   -7.1218   -0.6926 H       1  LIG1        0.0639
     81 O           7.9200   -9.6582    0.7259 O.3     1  LIG1       -0.5060
     82 H           8.8580   -9.5599    0.9383 H       1  LIG1        0.2922
     83 N           5.0480   -3.8616   -1.1523 N.1     1  LIG1       -0.1908
     84 C           5.6559   -4.8107   -0.8606 C.1     1  LIG1        0.0998
     85 C           9.4126   -4.4950    0.8061 C.ar    1  LIG1        0.0324
     86 C          10.2367   -3.3669    0.6388 C.ar    1  LIG1       -0.0455
     87 C           8.5846   -4.9006   -0.2723 C.ar    1  LIG1       -0.0009
     88 C          10.2497   -2.6558   -0.5543 C.ar    1  LIG1       -0.0576
     89 H          10.8586   -3.0512    1.4698 H       1  LIG1        0.0630
     90 C           8.6182   -4.1621   -1.4620 C.ar    1  LIG1       -0.0499
     91 C           9.4391   -3.0426   -1.6289 C.ar    1  LIG1       -0.0498
     92 H           7.9897   -4.4788   -2.2888 H       1  LIG1        0.0627
     93 H          10.8935   -1.7858   -0.6510 H       1  LIG1        0.0621
     94 C           9.4158   -5.1590    2.0731 C.1     1  LIG1       -0.0691
     95 C           9.4551   -5.6802    3.1650 C.1     1  LIG1       -0.1139
     96 H           9.4697   -6.1349    4.1285 H       1  LIG1        0.1232
     97 C           9.4676   -2.2938   -2.9385 C.3     1  LIG1       -0.0397
     98 H           8.5131   -2.3753   -3.4658 H       1  LIG1        0.0278
     99 H          10.2453   -2.6905   -3.6030 H       1  LIG1        0.0278
    100 H           9.6821   -1.2323   -2.7851 H       1  LIG1        0.0278
@<TRIPOS>BOND
     1    99    97    1
     2    98    97    1
     3    97   100    1
     4    97    91    1
     5    46    45    1
     6    92    90    1
     7    10     8    1
     8    49    47    1
     9    45    44    3
    10    50    47    1
    11    11     8    1
    12    91    90   ar
    13    91    88   ar
    14    90    87   ar
    15    47    48    1
    16    47    40    1
    17    44    39    1
    18     8     2    1
    19     8     9    1
    20     7     1    1
    21    72    71    1
    22    83    84    3
    23     1     2   ar
    24     1     5   ar
    25     2     3   ar
    26    20    19    1
    27    71    70    3
    28    84    79    1
    29    40    39   ar
    30    40    41   ar
    31    39    38   ar
    32    80    78    1
    33    93    88    1
    34     5     6    1
    35     5     4   ar
    36    70    66    1
    37    88    86   ar
    38    79    78   ar
    39    79    76   ar
    40     3    12    1
    41     3     4   ar
    42    36    34    1
    43    78    75   ar
    44    57    53    1
    45    63    54    1
    46    69    65    1
    47    12    13    3
    48     4    15    1
    49    87    76    1
    50    87    85   ar
    51    66    65   ar
    52    66    67   ar
    53    76    74   ar
    54    65    64   ar
    55    53    54   ar
    56    53    52   ar
    57    54    55   ar
    58    13    14    1
    59    75    67    1
    60    75    73   ar
    61    19    15   ar
    62    19    18   ar
    63    41    52    1
    64    41    42   ar
    65    38    29    1
    66    38    42   ar
    67    67    68   ar
    68    64    68   ar
    69    64    55    1
    70    31    30    1
    71    52    51   ar
    72    29    30   ar
    73    29    28   ar
    74    55    56   ar
    75    74    73   ar
    76    74    77    1
    77    15    16   ar
    78    30    26   ar
    79    73    81    1
    80    42    43    1
    81    28    34    1
    82    28    27   ar
    83    26    27   ar
    84    26    18    1
    85    34    35    1
    86    34    37    1
    87    27    33    1
    88    56    51   ar
    89    51    58    1
    90    18    17   ar
    91    86    85   ar
    92    86    89    1
    93    62    59    1
    94    81    82    1
    95    33    32    3
    96    85    94    1
    97    58    59    1
    98    16    17   ar
    99    16    21    1
   100    17    22    1
   101    59    60    1
   102    59    61    1
   103    24    22    1
   104    94    95    3
   105    22    23    1
   106    22    25    1
   107    95    96    1
