@<TRIPOS>MOLECULE
mol_data/opt/b3lyp/geoms/mol2/13ie13ie-13ie.out
 41 43 0 0 0
SMALL
GASTEIGER

@<TRIPOS>ATOM
      1 C           1.2778   -0.3476   -0.0207 C.ar    1  LIG1        0.0063
      2 C           0.8930    0.9704   -0.0157 C.ar    1  LIG1       -0.0171
      3 C          -0.5465    0.9773   -0.0065 C.ar    1  LIG1        0.0542
      4 C          -0.9855   -0.3581   -0.0064 C.ar    1  LIG1        0.0790
      5 N           0.1476   -1.1363   -0.0149 N.ar    1  LIG1       -0.3583
      6 H           0.1451   -2.1420   -0.0183 H       1  LIG1        0.1654
      7 H           2.2638   -0.7876   -0.0278 H       1  LIG1        0.0810
      8 C           1.7777    2.1785   -0.0190 C.3     1  LIG1       -0.0371
      9 H           1.6044    2.8044    0.8638 H       1  LIG1        0.0278
     10 H           1.5923    2.8084   -0.8964 H       1  LIG1        0.0278
     11 H           2.8332    1.8927   -0.0268 H       1  LIG1        0.0278
     12 C          -1.3522    2.1412    0.0015 C.1     1  LIG1       -0.0672
     13 C          -2.0110    3.1611    0.0082 C.1     1  LIG1       -0.1138
     14 H          -2.5769    4.0633    0.0142 H       1  LIG1        0.1232
     15 C          -2.3139   -0.9243    0.0008 C.ar    1  LIG1        0.0687
     16 C          -2.7486   -2.2467    0.0082 C.ar    1  LIG1       -0.0077
     17 C          -4.1798   -2.2137    0.0131 C.ar    1  LIG1        0.0549
     18 C          -4.5859   -0.8652    0.0087 C.ar    1  LIG1        0.0795
     19 N          -3.4398   -0.1168    0.0011 N.ar    1  LIG1       -0.3506
     20 H          -3.3951    0.8930   -0.0011 H       1  LIG1        0.1660
     21 C          -1.9256   -3.5005    0.0113 C.3     1  LIG1       -0.0365
     22 H          -1.2781   -3.5715    0.8955 H       1  LIG1        0.0279
     23 H          -1.2927   -3.5860   -0.8824 H       1  LIG1        0.0279
     24 H          -2.5774   -4.3773    0.0235 H       1  LIG1        0.0279
     25 C          -5.0202   -3.3538    0.0210 C.1     1  LIG1       -0.0672
     26 C          -5.7273   -4.3413    0.0279 C.1     1  LIG1       -0.1138
     27 H          -6.3324   -5.2180    0.0335 H       1  LIG1        0.1232
     28 C          -5.9116   -0.2913    0.0107 C.ar    1  LIG1        0.0682
     29 C          -6.3603    1.0294    0.0016 C.ar    1  LIG1       -0.0084
     30 C          -7.7942    0.9798    0.0089 C.ar    1  LIG1        0.0455
     31 C          -8.1649   -0.3601    0.0219 C.ar    1  LIG1        0.0179
     32 N          -7.0309   -1.1077    0.0230 N.ar    1  LIG1       -0.3581
     33 H          -6.9818   -2.1175    0.0300 H       1  LIG1        0.1654
     34 H          -9.1460   -0.8090    0.0303 H       1  LIG1        0.0819
     35 C          -5.5472    2.2885   -0.0128 C.3     1  LIG1       -0.0365
     36 H          -6.2104    3.1571   -0.0197 H       1  LIG1        0.0279
     37 H          -4.9064    2.3601   -0.9004 H       1  LIG1        0.0279
     38 H          -4.9024    2.3776    0.8703 H       1  LIG1        0.0279
     39 C          -8.6741    2.0930    0.0037 C.1     1  LIG1       -0.0679
     40 C          -9.4098    3.0554   -0.0009 C.1     1  LIG1       -0.1139
     41 H         -10.0661    3.8940   -0.0049 H       1  LIG1        0.1232
@<TRIPOS>BOND
     1    37    35    1
     2    10     8    1
     3    23    21    1
     4     7     1    1
     5    11     8    1
     6     1     2   ar
     7     1     5   ar
     8    36    35    1
     9     8     2    1
    10     8     9    1
    11     6     5    1
    12     2     3   ar
    13     5     4   ar
    14    35    29    1
    15    35    38    1
    16     3     4   ar
    17     3    12    1
    18     4    15    1
    19    41    40    1
    20    20    19    1
    21    40    39    3
    22    15    19   ar
    23    15    16   ar
    24    19    18   ar
    25    12    13    3
    26    29    30   ar
    27    29    28   ar
    28    39    30    1
    29    16    21    1
    30    16    17   ar
    31    13    14    1
    32    18    28    1
    33    18    17   ar
    34    30    31   ar
    35    28    32   ar
    36    21    24    1
    37    21    22    1
    38    17    25    1
    39    25    26    3
    40    31    32   ar
    41    31    34    1
    42    32    33    1
    43    26    27    1
