@<TRIPOS>MOLECULE
mol_data/opt/b3lyp/geoms/mol2/13ie13ie-4ie13ie.out
 56 59 0 0 0
SMALL
GASTEIGER

@<TRIPOS>ATOM
      1 C           1.4003   -0.4462   -0.1685 C.ar    1  LIG1        0.0063
      2 C           1.0140    0.7763   -0.6608 C.ar    1  LIG1       -0.0171
      3 C          -0.4247    0.7987   -0.6178 C.ar    1  LIG1        0.0542
      4 C          -0.8599   -0.4301   -0.0908 C.ar    1  LIG1        0.0790
      5 N           0.2721   -1.1629    0.1689 N.ar    1  LIG1       -0.3583
      6 H           0.2701   -2.0859    0.5692 H       1  LIG1        0.1654
      7 H           2.3867   -0.8637   -0.0323 H       1  LIG1        0.0810
      8 C           1.8974    1.8802   -1.1540 C.3     1  LIG1       -0.0371
      9 H           1.7495    2.8001   -0.5770 H       1  LIG1        0.0278
     10 H           1.6875    2.1245   -2.2015 H       1  LIG1        0.0278
     11 H           2.9524    1.6024   -1.0787 H       1  LIG1        0.0278
     12 C          -1.2421    1.8711   -1.0494 C.1     1  LIG1       -0.0672
     13 C          -1.9318    2.7979   -1.4253 C.1     1  LIG1       -0.1138
     14 H          -2.5119    3.6157   -1.7853 H       1  LIG1        0.1232
     15 C          -2.1904   -0.9258    0.1707 C.ar    1  LIG1        0.0687
     16 C          -2.6515   -2.1577    0.6330 C.ar    1  LIG1       -0.0077
     17 C          -4.0796   -2.0720    0.6852 C.ar    1  LIG1        0.0534
     18 C          -4.4549   -0.7865    0.2601 C.ar    1  LIG1        0.0631
     19 N          -3.2946   -0.1231   -0.0341 N.ar    1  LIG1       -0.3518
     20 H          -3.2347    0.7972   -0.4479 H       1  LIG1        0.1660
     21 C          -1.8493   -3.3638    1.0214 C.3     1  LIG1       -0.0365
     22 H          -1.2015   -3.1738    1.8883 H       1  LIG1        0.0279
     23 H          -1.2183   -3.7248    0.1985 H       1  LIG1        0.0279
     24 H          -2.5175   -4.1828    1.2979 H       1  LIG1        0.0279
     25 C          -4.9417   -3.1059    1.1314 C.1     1  LIG1       -0.0673
     26 C          -5.6475   -4.0132    1.5153 C.1     1  LIG1       -0.1138
     27 H          -6.2844   -4.7952    1.8576 H       1  LIG1        0.1232
     28 C          -6.0879    1.1495    0.4707 C.ar    1  LIG1       -0.0406
     29 C          -7.3845    1.6208    0.2632 C.ar    1  LIG1       -0.0479
     30 C          -5.7848   -0.1862    0.1028 C.ar    1  LIG1        0.0036
     31 C          -8.4306    0.8457   -0.2654 C.ar    1  LIG1        0.0142
     32 H          -7.5911    2.6534    0.5167 H       1  LIG1        0.0627
     33 C          -6.8105   -0.9736   -0.4347 C.ar    1  LIG1       -0.0363
     34 C          -8.1159   -0.4970   -0.6207 C.ar    1  LIG1        0.0344
     35 H          -6.5943   -1.9963   -0.7190 H       1  LIG1        0.0637
     36 C          -5.0726    2.0764    1.1005 C.3     1  LIG1       -0.0391
     37 H          -5.5757    2.9071    1.6018 H       1  LIG1        0.0278
     38 H          -4.3869    2.5173    0.3656 H       1  LIG1        0.0278
     39 H          -4.4565    1.5549    1.8383 H       1  LIG1        0.0278
     40 C          -9.0705   -1.4148   -1.1641 C.1     1  LIG1       -0.0690
     41 C          -9.8368   -2.2231   -1.6425 C.1     1  LIG1       -0.1139
     42 H         -10.5147   -2.9496   -2.0274 H       1  LIG1        0.1232
     43 C          -9.7579    1.4437   -0.4254 C.ar    1  LIG1        0.0518
     44 C         -10.3899    2.4711    0.2782 C.ar    1  LIG1       -0.0098
     45 C         -11.6773    2.6625   -0.3265 C.ar    1  LIG1        0.0454
     46 C         -11.7866    1.7504   -1.3696 C.ar    1  LIG1        0.0179
     47 N         -10.6362    1.0323   -1.4168 N.ar    1  LIG1       -0.3593
     48 H         -10.4607    0.2475   -2.0262 H       1  LIG1        0.1654
     49 H         -12.5989    1.5766   -2.0584 H       1  LIG1        0.0819
     50 C          -9.9075    3.2359    1.4751 C.3     1  LIG1       -0.0365
     51 H         -10.7627    3.6124    2.0432 H       1  LIG1        0.0279
     52 H          -9.3026    4.1093    1.1981 H       1  LIG1        0.0279
     53 H          -9.3016    2.6133    2.1398 H       1  LIG1        0.0279
     54 C         -12.6657    3.5979    0.0753 C.1     1  LIG1       -0.0679
     55 C         -13.4986    4.4014    0.4333 C.1     1  LIG1       -0.1139
     56 H         -14.2367    5.1048    0.7405 H       1  LIG1        0.1232
@<TRIPOS>BOND
     1    10     8    1
     2    49    46    1
     3    42    41    1
     4    48    47    1
     5    14    13    1
     6    41    40    3
     7    13    12    3
     8    47    46   ar
     9    47    43   ar
    10    46    45   ar
    11    40    34    1
    12     8    11    1
    13     8     2    1
    14     8     9    1
    15    12     3    1
    16    35    33    1
    17     2     3   ar
    18     2     1   ar
    19    34    33   ar
    20    34    31   ar
    21     3     4   ar
    22    20    19    1
    23    33    30   ar
    24    43    31    1
    25    43    44   ar
    26    45    54    1
    27    45    44   ar
    28    31    29   ar
    29     1     7    1
    30     1     5   ar
    31     4     5   ar
    32     4    15    1
    33    19    15   ar
    34    19    18   ar
    35    54    55    3
    36    30    18    1
    37    30    28   ar
    38     5     6    1
    39    15    16   ar
    40    23    21    1
    41    18    17   ar
    42    29    28   ar
    43    29    32    1
    44    44    50    1
    45    38    36    1
    46    55    56    1
    47    28    36    1
    48    16    17   ar
    49    16    21    1
    50    17    25    1
    51    21    24    1
    52    21    22    1
    53    36    37    1
    54    36    39    1
    55    25    26    3
    56    52    50    1
    57    50    51    1
    58    50    53    1
    59    26    27    1
