@<TRIPOS>MOLECULE
mol_data/opt/b3lyp/geoms/mol2/13ie13ie13ie.out
 41 43 0 0 0
SMALL
GASTEIGER

@<TRIPOS>ATOM
      1 C           0.9153   -0.1522    1.3228 C.ar    1  LIG1        0.0063
      2 C           0.8415    0.9320    0.4823 C.ar    1  LIG1       -0.0171
      3 C          -0.4776    0.9164   -0.0984 C.ar    1  LIG1        0.0542
      4 C          -1.1625   -0.1835    0.4266 C.ar    1  LIG1        0.0790
      5 N          -0.2841   -0.8313    1.2711 N.ar    1  LIG1       -0.3583
      6 H          -0.5619   -1.5574    1.9127 H       1  LIG1        0.1654
      7 H           1.7265   -0.4973    1.9468 H       1  LIG1        0.0810
      8 C           1.9169    1.9327    0.1905 C.3     1  LIG1       -0.0371
      9 H           1.5950    2.9490    0.4436 H       1  LIG1        0.0278
     10 H           2.1794    1.9396   -0.8734 H       1  LIG1        0.0278
     11 H           2.8243    1.7142    0.7605 H       1  LIG1        0.0278
     12 C          -0.9532    1.8197   -1.0823 C.1     1  LIG1       -0.0672
     13 C          -1.3236    2.6054   -1.9270 C.1     1  LIG1       -0.1138
     14 H          -1.6559    3.2883   -2.6735 H       1  LIG1        0.1232
     15 C          -2.5019   -0.6921    0.1913 C.ar    1  LIG1        0.0687
     16 C          -3.7391   -0.0662    0.1876 C.ar    1  LIG1       -0.0077
     17 C          -4.7227   -1.0819   -0.0677 C.ar    1  LIG1        0.0549
     18 C          -4.0587   -2.3073   -0.1973 C.ar    1  LIG1        0.0795
     19 N          -2.7182   -2.0449   -0.0385 N.ar    1  LIG1       -0.3506
     20 H          -1.9919   -2.7423   -0.0828 H       1  LIG1        0.1660
     21 C          -4.0257    1.3842    0.4209 C.3     1  LIG1       -0.0365
     22 H          -4.9733    1.5064    0.9538 H       1  LIG1        0.0279
     23 H          -4.1029    1.9374   -0.5218 H       1  LIG1        0.0279
     24 H          -3.2297    1.8545    1.0037 H       1  LIG1        0.0279
     25 C          -6.1169   -0.8611   -0.2027 C.1     1  LIG1       -0.0672
     26 C          -7.3022   -0.6376   -0.3159 C.1     1  LIG1       -0.1138
     27 H          -8.3440   -0.4481   -0.4293 H       1  LIG1        0.1232
     28 C          -4.5421   -3.6461   -0.4844 C.ar    1  LIG1        0.0682
     29 C          -5.5656   -4.3959    0.0728 C.ar    1  LIG1       -0.0084
     30 C          -5.5544   -5.6736   -0.5914 C.ar    1  LIG1        0.0455
     31 C          -4.5249   -5.6545   -1.5210 C.ar    1  LIG1        0.0179
     32 N          -3.9063   -4.4407   -1.4355 N.ar    1  LIG1       -0.3581
     33 H          -3.2402   -4.0883   -2.1050 H       1  LIG1        0.1654
     34 H          -4.2026   -6.4136   -2.2170 H       1  LIG1        0.0819
     35 C          -6.4876   -3.9975    1.1828 C.3     1  LIG1       -0.0365
     36 H          -6.7225   -4.8590    1.8151 H       1  LIG1        0.0279
     37 H          -7.4340   -3.6013    0.7981 H       1  LIG1        0.0279
     38 H          -6.0430   -3.2153    1.8035 H       1  LIG1        0.0279
     39 C          -6.4188   -6.7667   -0.3223 C.1     1  LIG1       -0.0679
     40 C          -7.1644   -7.6888   -0.0763 C.1     1  LIG1       -0.1139
     41 H          -7.8200   -8.5019    0.1310 H       1  LIG1        0.1232
@<TRIPOS>BOND
     1    14    13    1
     2    34    31    1
     3    33    32    1
     4    13    12    3
     5    31    32   ar
     6    31    30   ar
     7    32    28   ar
     8    12     3    1
     9    10     8    1
    10    30    39    1
    11    30    29   ar
    12    23    21    1
    13    28    18    1
    14    28    29   ar
    15    27    26    1
    16    39    40    3
    17    26    25    3
    18    25    17    1
    19    18    17   ar
    20    18    19   ar
    21     3     4   ar
    22     3     2   ar
    23    20    19    1
    24    40    41    1
    25    17    16   ar
    26    19    15   ar
    27    29    35    1
    28    16    15   ar
    29    16    21    1
    30     8     9    1
    31     8     2    1
    32     8    11    1
    33    15     4    1
    34    21    22    1
    35    21    24    1
    36     4     5   ar
    37     2     1   ar
    38    37    35    1
    39    35    38    1
    40    35    36    1
    41     5     1   ar
    42     5     6    1
    43     1     7    1
