@<TRIPOS>MOLECULE
mol_data/opt/b3lyp/geoms/mol2/13if13if13if13if.out
 50 53 0 0 0
SMALL
GASTEIGER

@<TRIPOS>ATOM
      1 C           0.5461    0.4792    2.0026 C.ar    1  LIG1        0.0087
      2 C           0.7931    1.1152    0.8028 C.ar    1  LIG1        0.0090
      3 C          -0.2997    0.7779   -0.0486 C.ar    1  LIG1        0.1463
      4 C          -1.1814   -0.0412    0.6392 C.ar    1  LIG1        0.1055
      5 N          -0.6163   -0.2475    1.8984 N.ar    1  LIG1       -0.3563
      6 H          -1.1451   -0.5852    2.6871 H       1  LIG1        0.1655
      7 H           1.1209    0.4855    2.9173 H       1  LIG1        0.0811
      8 C           1.9735    1.9600    0.4318 C.3     1  LIG1       -0.0348
      9 H           1.6660    2.9650    0.1217 H       1  LIG1        0.0279
     10 H           2.5321    1.5276   -0.4066 H       1  LIG1        0.0279
     11 H           2.6625    2.0645    1.2751 H       1  LIG1        0.0279
     12 O          -0.3827    1.1864   -1.3506 O.3     1  LIG1       -0.5043
     13 H          -1.1506    0.7521   -1.7489 H       1  LIG1        0.2922
     14 C          -2.4059   -0.6798    0.1954 C.ar    1  LIG1        0.0735
     15 C          -3.5124   -0.1542   -0.4758 C.ar    1  LIG1        0.0185
     16 C          -4.4139   -1.2354   -0.6658 C.ar    1  LIG1        0.1470
     17 C          -3.8807   -2.3891   -0.1073 C.ar    1  LIG1        0.1060
     18 N          -2.6386   -2.0248    0.4030 N.ar    1  LIG1       -0.3486
     19 H          -2.0082   -2.6444    0.8855 H       1  LIG1        0.1661
     20 C          -3.7576    1.2715   -0.8732 C.3     1  LIG1       -0.0342
     21 H          -4.7396    1.6084   -0.5238 H       1  LIG1        0.0279
     22 H          -3.7547    1.4077   -1.9622 H       1  LIG1        0.0279
     23 H          -2.9995    1.9343   -0.4480 H       1  LIG1        0.0279
     24 O          -5.6107   -1.1016   -1.3123 O.3     1  LIG1       -0.5043
     25 H          -6.0104   -1.9806   -1.3816 H       1  LIG1        0.2922
     26 C          -4.4085   -3.7401   -0.0721 C.ar    1  LIG1        0.0735
     27 C          -5.6632   -4.2137    0.3196 C.ar    1  LIG1        0.0185
     28 C          -5.6348   -5.6215    0.1325 C.ar    1  LIG1        0.1470
     29 C          -4.3869   -6.0011   -0.3427 C.ar    1  LIG1        0.1060
     30 N          -3.6533   -4.8272   -0.4678 N.ar    1  LIG1       -0.3486
     31 H          -2.7130   -4.7752   -0.8246 H       1  LIG1        0.1661
     32 C          -6.8073   -3.4288    0.8898 C.3     1  LIG1       -0.0342
     33 H          -7.1363   -3.8557    1.8436 H       1  LIG1        0.0279
     34 H          -7.6841   -3.4354    0.2303 H       1  LIG1        0.0279
     35 H          -6.5224   -2.3880    1.0640 H       1  LIG1        0.0279
     36 O          -6.7035   -6.4307    0.3979 O.3     1  LIG1       -0.5043
     37 H          -6.4756   -7.3267    0.1100 H       1  LIG1        0.2922
     38 C          -3.8871   -7.3141   -0.7058 C.ar    1  LIG1        0.0730
     39 C          -3.9358   -8.5233   -0.0167 C.ar    1  LIG1        0.0178
     40 C          -3.3304   -9.4946   -0.8689 C.ar    1  LIG1        0.1376
     41 C          -2.9215   -8.8791   -2.0316 C.ar    1  LIG1        0.0445
     42 N          -3.2406   -7.5368   -1.9100 N.ar    1  LIG1       -0.3561
     43 H          -3.2941   -6.8982   -2.6875 H       1  LIG1        0.1655
     44 H          -2.4141   -9.2675   -2.9019 H       1  LIG1        0.0844
     45 C          -4.4174   -8.7749    1.3815 C.3     1  LIG1       -0.0342
     46 H          -3.6303   -9.2353    1.9892 H       1  LIG1        0.0279
     47 H          -5.2694   -9.4654    1.4058 H       1  LIG1        0.0279
     48 H          -4.7215   -7.8445    1.8674 H       1  LIG1        0.0279
     49 O          -3.1868  -10.8002   -0.4827 O.3     1  LIG1       -0.5050
     50 H          -2.7199  -11.2834   -1.1758 H       1  LIG1        0.2922
@<TRIPOS>BOND
     1    44    41    1
     2    43    42    1
     3    41    42   ar
     4    41    40   ar
     5    22    20    1
     6    42    38   ar
     7    13    12    1
     8    25    24    1
     9    12     3    1
    10    24    16    1
    11    50    49    1
    12    20    21    1
    13    20    15    1
    14    20    23    1
    15    40    49    1
    16    40    39   ar
    17    31    30    1
    18    38    29    1
    19    38    39   ar
    20    16    15   ar
    21    16    17   ar
    22    15    14   ar
    23    30    29   ar
    24    30    26   ar
    25    10     8    1
    26    29    28   ar
    27    17    26    1
    28    17    18   ar
    29    26    27   ar
    30     3     4   ar
    31     3     2   ar
    32    39    45    1
    33    37    36    1
    34     9     8    1
    35    28    27   ar
    36    28    36    1
    37    14    18   ar
    38    14     4    1
    39    34    32    1
    40    27    32    1
    41    18    19    1
    42     8     2    1
    43     8    11    1
    44     4     5   ar
    45     2     1   ar
    46    32    35    1
    47    32    33    1
    48    45    47    1
    49    45    48    1
    50    45    46    1
    51     5     1   ar
    52     5     6    1
    53     1     7    1
