@<TRIPOS>MOLECULE
mol_data/opt/b3lyp/geoms/mol2/13if13if-13if.out
 38 40 0 0 0
SMALL
GASTEIGER

@<TRIPOS>ATOM
      1 C           1.2023   -0.1766   -0.6965 C.ar    1  LIG1        0.0087
      2 C           0.8555    0.9962   -0.0527 C.ar    1  LIG1        0.0090
      3 C          -0.5205    0.8627    0.2829 C.ar    1  LIG1        0.1463
      4 C          -0.9842   -0.3716   -0.1583 C.ar    1  LIG1        0.1055
      5 N           0.1083   -1.0063   -0.7359 N.ar    1  LIG1       -0.3563
      6 H           0.0395   -1.8486   -1.2820 H       1  LIG1        0.1655
      7 H           2.1507   -0.4820   -1.1134 H       1  LIG1        0.0811
      8 C           1.7343    2.1679    0.2636 C.3     1  LIG1       -0.0348
      9 H           1.7442    2.3823    1.3383 H       1  LIG1        0.0279
     10 H           1.3890    3.0796   -0.2374 H       1  LIG1        0.0279
     11 H           2.7651    1.9827   -0.0522 H       1  LIG1        0.0279
     12 O          -1.2328    1.8243    0.9573 O.3     1  LIG1       -0.5043
     13 H          -1.9915    1.3949    1.3788 H       1  LIG1        0.2922
     14 C          -2.3074   -0.9435   -0.0568 C.ar    1  LIG1        0.0735
     15 C          -2.7560   -2.2479    0.1450 C.ar    1  LIG1        0.0185
     16 C          -4.1752   -2.1770    0.1749 C.ar    1  LIG1        0.1470
     17 C          -4.5872   -0.8620    0.0153 C.ar    1  LIG1        0.1060
     18 N          -3.4202   -0.1164   -0.0944 N.ar    1  LIG1       -0.3486
     19 H          -3.3919    0.8193   -0.4687 H       1  LIG1        0.1661
     20 C          -1.9327   -3.4818    0.3712 C.3     1  LIG1       -0.0342
     21 H          -0.9101   -3.2214    0.6585 H       1  LIG1        0.0279
     22 H          -1.8694   -4.1274   -0.5165 H       1  LIG1        0.0279
     23 H          -2.3471   -4.0933    1.1831 H       1  LIG1        0.0279
     24 O          -5.0590   -3.2129    0.3971 O.3     1  LIG1       -0.5043
     25 H          -4.6062   -4.0484    0.2294 H       1  LIG1        0.2922
     26 C          -5.9144   -0.3011   -0.0245 C.ar    1  LIG1        0.0730
     27 C          -6.3679    1.0130   -0.1760 C.ar    1  LIG1        0.0178
     28 C          -7.7875    0.9442   -0.1482 C.ar    1  LIG1        0.1376
     29 C          -8.1729   -0.3722    0.0158 C.ar    1  LIG1        0.0445
     30 N          -7.0154   -1.1184    0.0896 N.ar    1  LIG1       -0.3561
     31 H          -6.9467   -2.1159    0.2189 H       1  LIG1        0.1655
     32 H          -9.1500   -0.8250    0.0872 H       1  LIG1        0.0844
     33 C          -5.5678    2.2721   -0.3401 C.3     1  LIG1       -0.0342
     34 H          -6.2331    3.1386   -0.3231 H       1  LIG1        0.0279
     35 H          -5.0249    2.3090   -1.2954 H       1  LIG1        0.0279
     36 H          -4.8342    2.4129    0.4643 H       1  LIG1        0.0279
     37 O          -8.5741    2.0618   -0.2725 O.3     1  LIG1       -0.5050
     38 H          -9.4988    1.8002   -0.1866 H       1  LIG1        0.2922
@<TRIPOS>BOND
     1    35    33    1
     2     6     5    1
     3     7     1    1
     4     5     1   ar
     5     5     4   ar
     6     1     2   ar
     7    22    20    1
     8    19    18    1
     9    33    34    1
    10    33    27    1
    11    33    36    1
    12    37    38    1
    13    37    28    1
    14    10     8    1
    15    27    28   ar
    16    27    26   ar
    17     4    14    1
    18     4     3   ar
    19    28    29   ar
    20    18    14   ar
    21    18    17   ar
    22    14    15   ar
    23     2     8    1
    24     2     3   ar
    25    11     8    1
    26    26    17    1
    27    26    30   ar
    28    17    16   ar
    29    29    32    1
    30    29    30   ar
    31    30    31    1
    32    15    16   ar
    33    15    20    1
    34    16    24    1
    35    25    24    1
    36     8     9    1
    37     3    12    1
    38    20    21    1
    39    20    23    1
    40    12    13    1
