@<TRIPOS>MOLECULE
mol_data/opt/b3lyp/geoms/mol2/13if13if13if13if-.out
 50 53 0 0 0
SMALL
GASTEIGER

@<TRIPOS>ATOM
      1 C           0.7061    0.6343    1.5855 C.ar    1  LIG1        0.0087
      2 C           0.7743    1.2751    0.3650 C.ar    1  LIG1        0.0090
      3 C          -0.4073    0.8991   -0.3387 C.ar    1  LIG1        0.1463
      4 C          -1.1649    0.0528    0.4560 C.ar    1  LIG1        0.1055
      5 N          -0.4347   -0.1317    1.6311 N.ar    1  LIG1       -0.3563
      6 H          -0.8464   -0.4831    2.4812 H       1  LIG1        0.1655
      7 H           1.3938    0.6623    2.4183 H       1  LIG1        0.0811
      8 C           1.8677    2.1579   -0.1545 C.3     1  LIG1       -0.0348
      9 H           1.4890    3.1515   -0.4195 H       1  LIG1        0.0279
     10 H           2.3262    1.7428   -1.0596 H       1  LIG1        0.0279
     11 H           2.6569    2.2872    0.5919 H       1  LIG1        0.0279
     12 O          -0.6706    1.3011   -1.6183 O.3     1  LIG1       -0.5043
     13 H          -1.4652    0.8365   -1.9180 H       1  LIG1        0.2922
     14 C          -2.4145   -0.6269    0.1740 C.ar    1  LIG1        0.0735
     15 C          -3.6161   -0.1401   -0.3465 C.ar    1  LIG1        0.0185
     16 C          -4.4986   -1.2502   -0.4195 C.ar    1  LIG1        0.1470
     17 C          -3.8587   -2.3843    0.0658 C.ar    1  LIG1        0.1060
     18 N          -2.5744   -1.9780    0.4100 N.ar    1  LIG1       -0.3486
     19 H          -1.8627   -2.5804    0.7903 H       1  LIG1        0.1661
     20 C          -3.9574    1.2753   -0.7082 C.3     1  LIG1       -0.0342
     21 H          -4.8981    1.5804   -0.2373 H       1  LIG1        0.0279
     22 H          -4.0964    1.4077   -1.7888 H       1  LIG1        0.0279
     23 H          -3.1743    1.9644   -0.3816 H       1  LIG1        0.0279
     24 O          -5.7709   -1.1576   -0.9103 O.3     1  LIG1       -0.5043
     25 H          -6.1371   -2.0519   -0.9620 H       1  LIG1        0.2922
     26 C          -4.3261   -3.7506    0.1668 C.ar    1  LIG1        0.0735
     27 C          -5.5358   -4.2625    0.6336 C.ar    1  LIG1        0.0185
     28 C          -5.4634   -5.6726    0.4606 C.ar    1  LIG1        0.1470
     29 C          -4.2341   -6.0106   -0.0867 C.ar    1  LIG1        0.1060
     30 N          -3.5299   -4.8180   -0.2247 N.ar    1  LIG1       -0.3486
     31 H          -2.7671   -4.7144   -0.8763 H       1  LIG1        0.1661
     32 C          -6.6547   -3.5237    1.3058 C.3     1  LIG1       -0.0342
     33 H          -6.9689   -4.0484    2.2142 H       1  LIG1        0.0279
     34 H          -7.5476   -3.4440    0.6724 H       1  LIG1        0.0279
     35 H          -6.3472   -2.5117    1.5811 H       1  LIG1        0.0279
     36 O          -6.4621   -6.5279    0.8486 O.3     1  LIG1       -0.5043
     37 H          -6.0754   -7.4102    0.9535 H       1  LIG1        0.2922
     38 C          -3.7146   -7.3136   -0.4379 C.ar    1  LIG1        0.0730
     39 C          -2.4356   -7.8609   -0.3869 C.ar    1  LIG1        0.0178
     40 C          -2.5538   -9.2051   -0.8609 C.ar    1  LIG1        0.1376
     41 C          -3.8684   -9.4562   -1.1756 C.ar    1  LIG1        0.0445
     42 N          -4.5803   -8.3042   -0.8775 N.ar    1  LIG1       -0.3561
     43 H          -5.4872   -8.0921   -1.2650 H       1  LIG1        0.1655
     44 H          -4.3446  -10.3493   -1.5464 H       1  LIG1        0.0844
     45 C          -1.1800   -7.2269    0.1360 C.3     1  LIG1       -0.0342
     46 H          -1.4079   -6.3236    0.7080 H       1  LIG1        0.0279
     47 H          -0.4794   -6.9422   -0.6616 H       1  LIG1        0.0279
     48 H          -0.6391   -7.9038    0.8110 H       1  LIG1        0.0279
     49 O          -1.5532  -10.1343   -0.9505 O.3     1  LIG1       -0.5050
     50 H          -0.7147   -9.7004   -0.7504 H       1  LIG1        0.2922
@<TRIPOS>BOND
     1    13    12    1
     2    22    20    1
     3    12     3    1
     4    44    41    1
     5    43    42    1
     6    41    42   ar
     7    41    40   ar
     8    10     8    1
     9    25    24    1
    10    49    40    1
    11    49    50    1
    12    24    16    1
    13    42    38   ar
    14    31    30    1
    15    40    39   ar
    16    20    23    1
    17    20    15    1
    18    20    21    1
    19    47    45    1
    20    38    39   ar
    21    38    29    1
    22     9     8    1
    23    16    15   ar
    24    16    17   ar
    25    39    45    1
    26    15    14   ar
    27     3     2   ar
    28     3     4   ar
    29    30    29   ar
    30    30    26   ar
    31     8     2    1
    32     8    11    1
    33    29    28   ar
    34    17    26    1
    35    17    18   ar
    36    45    46    1
    37    45    48    1
    38    26    27   ar
    39    14    18   ar
    40    14     4    1
    41     2     1   ar
    42    18    19    1
    43     4     5   ar
    44    28    27   ar
    45    28    36    1
    46    27    32    1
    47    34    32    1
    48    36    37    1
    49    32    35    1
    50    32    33    1
    51     1     5   ar
    52     1     7    1
    53     5     6    1
