@<TRIPOS>MOLECULE
mol_data/opt/b3lyp/geoms/mol2/13if13if-13if-13if-.out
 50 53 0 0 0
SMALL
GASTEIGER

@<TRIPOS>ATOM
      1 C           1.2550   -0.1449    0.2794 C.ar    1  LIG1        0.0087
      2 C           0.7158    1.0414    0.7425 C.ar    1  LIG1        0.0090
      3 C          -0.6943    0.8886    0.6422 C.ar    1  LIG1        0.1463
      4 C          -0.9925   -0.3681    0.1280 C.ar    1  LIG1        0.1055
      5 N           0.2312   -0.9812   -0.0879 N.ar    1  LIG1       -0.3563
      6 H           0.3448   -1.8919   -0.4983 H       1  LIG1        0.1655
      7 H           2.2875   -0.4459    0.1834 H       1  LIG1        0.0811
      8 C           1.4478    2.2482    1.2493 C.3     1  LIG1       -0.0348
      9 H           1.2296    2.4564    2.3059 H       1  LIG1        0.0279
     10 H           1.1893    3.1504    0.6811 H       1  LIG1        0.0279
     11 H           2.5296    2.1111    1.1706 H       1  LIG1        0.0279
     12 O          -1.6665    1.8197    0.9545 O.3     1  LIG1       -0.5043
     13 H          -1.3300    2.4016    1.6477 H       1  LIG1        0.2922
     14 C          -2.2740   -0.9730   -0.1382 C.ar    1  LIG1        0.0735
     15 C          -2.6458   -2.2595   -0.5388 C.ar    1  LIG1        0.0185
     16 C          -4.0673   -2.2621   -0.5950 C.ar    1  LIG1        0.1470
     17 C          -4.5487   -1.0127   -0.2223 C.ar    1  LIG1        0.1060
     18 N          -3.4268   -0.2398    0.0364 N.ar    1  LIG1       -0.3486
     19 H          -3.4230    0.6627    0.4907 H       1  LIG1        0.1661
     20 C          -1.7623   -3.4331   -0.8464 C.3     1  LIG1       -0.0342
     21 H          -1.0378   -3.6257   -0.0447 H       1  LIG1        0.0279
     22 H          -1.2010   -3.3215   -1.7851 H       1  LIG1        0.0279
     23 H          -2.3619   -4.3445   -0.9389 H       1  LIG1        0.0279
     24 O          -4.8691   -3.3234   -0.9490 O.3     1  LIG1       -0.5043
     25 H          -4.4805   -3.7565   -1.7199 H       1  LIG1        0.2922
     26 C          -5.8866   -0.4666   -0.1582 C.ar    1  LIG1        0.0735
     27 C          -7.0912   -1.0205    0.2758 C.ar    1  LIG1        0.0185
     28 C          -8.0737   -0.0016    0.1421 C.ar    1  LIG1        0.1470
     29 C          -7.4809    1.1575   -0.3421 C.ar    1  LIG1        0.1060
     30 N          -6.1386    0.8413   -0.5196 N.ar    1  LIG1       -0.3486
     31 H          -5.4459    1.4899   -0.8568 H       1  LIG1        0.1661
     32 C          -7.3263   -2.3995    0.8154 C.3     1  LIG1       -0.0342
     33 H          -6.4039   -2.8219    1.2204 H       1  LIG1        0.0279
     34 H          -7.6827   -3.1012    0.0512 H       1  LIG1        0.0279
     35 H          -8.0657   -2.3845    1.6274 H       1  LIG1        0.0279
     36 O          -9.4084   -0.1037    0.4417 O.3     1  LIG1       -0.5043
     37 H          -9.6089   -1.0360    0.5924 H       1  LIG1        0.2922
     38 C          -8.0181    2.4539   -0.6981 C.ar    1  LIG1        0.0730
     39 C          -8.9611    3.2610   -0.0724 C.ar    1  LIG1        0.0178
     40 C          -9.0903    4.4312   -0.8825 C.ar    1  LIG1        0.1376
     41 C          -8.2360    4.3314   -1.9556 C.ar    1  LIG1        0.0445
     42 N          -7.5545    3.1323   -1.8144 N.ar    1  LIG1       -0.3561
     43 H          -7.0925    2.6647   -2.5783 H       1  LIG1        0.1655
     44 H          -8.0411    5.0145   -2.7665 H       1  LIG1        0.0844
     45 C          -9.6653    3.0089    1.2269 C.3     1  LIG1       -0.0342
     46 H          -9.1169    2.2824    1.8308 H       1  LIG1        0.0279
     47 H         -10.6755    2.6038    1.0881 H       1  LIG1        0.0279
     48 H          -9.7537    3.9305    1.8186 H       1  LIG1        0.0279
     49 O          -9.8818    5.5215   -0.6272 O.3     1  LIG1       -0.5050
     50 H         -10.4680    5.2974    0.1062 H       1  LIG1        0.2922
@<TRIPOS>BOND
     1    44    41    1
     2    43    42    1
     3    41    42   ar
     4    41    40   ar
     5    42    38   ar
     6    22    20    1
     7    25    24    1
     8    24    16    1
     9    23    20    1
    10    40    49    1
    11    40    39   ar
    12    31    30    1
    13    20    15    1
    14    20    21    1
    15    38    29    1
    16    38    39   ar
    17    49    50    1
    18    16    15   ar
    19    16    17   ar
    20    15    14   ar
    21    30    29   ar
    22    30    26   ar
    23     6     5    1
    24    29    28   ar
    25    17    26    1
    26    17    18   ar
    27    26    27   ar
    28    14    18   ar
    29    14     4    1
    30     5     4   ar
    31     5     1   ar
    32    39    45    1
    33    18    19    1
    34    34    32    1
    35     4     3   ar
    36    28    27   ar
    37    28    36    1
    38     7     1    1
    39    27    32    1
    40     1     2   ar
    41    36    37    1
    42     3     2   ar
    43     3    12    1
    44    10     8    1
    45     2     8    1
    46    32    33    1
    47    32    35    1
    48    12    13    1
    49    47    45    1
    50    11     8    1
    51    45    48    1
    52    45    46    1
    53     8     9    1
