@<TRIPOS>MOLECULE
mol_data/opt/b3lyp/geoms/mol2/13if6af-13ei-4el-.out
 53 56 0 0 0
SMALL
GASTEIGER

@<TRIPOS>ATOM
      1 C           1.2978   -0.6158   -0.0568 C.ar    1  LIG1        0.0087
      2 C           1.0296    0.6573   -0.5226 C.ar    1  LIG1        0.0089
      3 C          -0.3877    0.7689   -0.5501 C.ar    1  LIG1        0.1449
      4 C          -0.9540   -0.4242   -0.1065 C.ar    1  LIG1        0.0903
      5 N           0.1157   -1.2755    0.1551 N.ar    1  LIG1       -0.3574
      6 H           0.0271   -2.1419    0.6605 H       1  LIG1        0.1655
      7 H           2.2471   -1.0955    0.1323 H       1  LIG1        0.0811
      8 C           2.0070    1.7119   -0.9434 C.3     1  LIG1       -0.0348
      9 H           1.9094    2.6178   -0.3346 H       1  LIG1        0.0279
     10 H           1.8488    2.0121   -1.9855 H       1  LIG1        0.0279
     11 H           3.0361    1.3536   -0.8492 H       1  LIG1        0.0279
     12 O          -1.0255    1.8923   -0.9997 O.3     1  LIG1       -0.5044
     13 H          -1.9380    1.6657   -1.2252 H       1  LIG1        0.2922
     14 C          -2.7403   -2.1791   -0.0968 C.ar    1  LIG1        0.0378
     15 C          -2.3410   -0.8300    0.0210 C.ar    1  LIG1        0.0235
     16 C          -3.3698    0.0901    0.2614 C.ar    1  LIG1       -0.0073
     17 C          -4.7028   -0.3178    0.3618 C.ar    1  LIG1        0.1448
     18 C          -4.9981   -1.7013    0.2493 C.ar    1  LIG1        0.1295
     19 N          -3.9946   -2.5823    0.0229 N.ar    1  LIG1       -0.2491
     20 H          -3.1619    1.1431    0.4222 H       1  LIG1        0.0662
     21 H          -2.0073   -2.9524   -0.3186 H       1  LIG1        0.0836
     22 O          -5.5946    0.6755    0.5609 O.3     1  LIG1       -0.5045
     23 H          -6.5025    0.3563    0.7215 H       1  LIG1        0.2922
     24 C          -6.3197   -2.3399    0.3236 C.ar    1  LIG1        0.0848
     25 C          -7.6510   -1.9593    0.5941 C.ar    1  LIG1        0.0550
     26 C          -8.4832   -3.1226    0.4610 C.ar    1  LIG1       -0.0091
     27 C          -7.6468   -4.1750    0.1158 C.ar    1  LIG1        0.0524
     28 N          -6.3643   -3.6788    0.0598 N.ar    1  LIG1       -0.3516
     29 H          -5.5205   -4.1745   -0.1959 H       1  LIG1        0.1660
     30 C          -8.1548   -0.6969    0.9903 C.1     1  LIG1       -0.0672
     31 C          -8.6440    0.3593    1.3381 C.1     1  LIG1       -0.1138
     32 H          -9.0573    1.2914    1.6475 H       1  LIG1        0.1232
     33 C          -9.9549   -3.1604    0.7321 C.3     1  LIG1       -0.0365
     34 H         -10.2939   -4.1790    0.9347 H       1  LIG1        0.0279
     35 H         -10.5340   -2.7914   -0.1217 H       1  LIG1        0.0279
     36 H         -10.2032   -2.5355    1.5958 H       1  LIG1        0.0279
     37 C          -8.8984   -6.1023   -0.9599 C.ar    1  LIG1        0.0340
     38 C          -9.0717   -7.4919   -1.0741 C.ar    1  LIG1       -0.0422
     39 C          -7.8934   -5.6118   -0.0797 C.ar    1  LIG1        0.0174
     40 C          -8.2769   -8.3963   -0.3769 C.ar    1  LIG1       -0.0188
     41 H          -9.8395   -7.8635   -1.7447 H       1  LIG1        0.0631
     42 C          -7.0923   -6.5286    0.6076 C.ar    1  LIG1       -0.0097
     43 C          -7.2688   -7.9098    0.4652 C.ar    1  LIG1        0.1208
     44 H          -6.3311   -6.1798    1.2975 H       1  LIG1        0.0661
     45 H          -8.4442   -9.4591   -0.5011 H       1  LIG1        0.0654
     46 C          -9.6882   -5.2413   -1.7812 C.1     1  LIG1       -0.0690
     47 C         -10.3705   -4.5623   -2.5160 C.1     1  LIG1       -0.1139
     48 H         -10.9565   -3.9498   -3.1609 H       1  LIG1        0.1232
     49 O          -6.4247   -8.6897    1.1965 O.3     1  LIG1       -0.4951
     50 C          -6.5712  -10.1004    1.1166 C.3     1  LIG1        0.0788
     51 H          -5.8112  -10.5184    1.7778 H       1  LIG1        0.0660
     52 H          -7.5631  -10.4232    1.4568 H       1  LIG1        0.0660
     53 H          -6.4035  -10.4674    0.0964 H       1  LIG1        0.0660
@<TRIPOS>BOND
     1    48    47    1
     2    47    46    3
     3    10     8    1
     4    46    37    1
     5    41    38    1
     6    13    12    1
     7    38    37   ar
     8    38    40   ar
     9    12     3    1
    10    37    39   ar
    11     8    11    1
    12     8     2    1
    13     8     9    1
    14     3     2   ar
    15     3     4   ar
    16     2     1   ar
    17    45    40    1
    18    40    43   ar
    19    21    14    1
    20    29    28    1
    21    35    33    1
    22     4    15    1
    23     4     5   ar
    24    14    15   ar
    25    14    19   ar
    26    39    27    1
    27    39    42   ar
    28     1     7    1
    29     1     5   ar
    30    15    16   ar
    31    19    18   ar
    32    28    27   ar
    33    28    24   ar
    34    53    50    1
    35    27    26   ar
    36     5     6    1
    37    18    24    1
    38    18    17   ar
    39    16    17   ar
    40    16    20    1
    41    24    25   ar
    42    17    22    1
    43    26    25   ar
    44    26    33    1
    45    43    42   ar
    46    43    49    1
    47    22    23    1
    48    25    30    1
    49    42    44    1
    50    33    34    1
    51    33    36    1
    52    30    31    3
    53    50    49    1
    54    50    52    1
    55    50    51    1
    56    31    32    1
