@<TRIPOS>MOLECULE
mol_data/opt/b3lyp/geoms/mol2/13if13if-13if13if-.out
 50 53 0 0 0
SMALL
GASTEIGER

@<TRIPOS>ATOM
      1 C           1.3370   -0.2750    0.0181 C.ar    1  LIG1        0.0087
      2 C           0.8880    1.0269    0.1452 C.ar    1  LIG1        0.0090
      3 C          -0.5316    0.9493    0.1208 C.ar    1  LIG1        0.1463
      4 C          -0.9246   -0.3768   -0.0190 C.ar    1  LIG1        0.1055
      5 N           0.2512   -1.1076   -0.0828 N.ar    1  LIG1       -0.3563
      6 H           0.2933   -2.1032   -0.2155 H       1  LIG1        0.1655
      7 H           2.3450   -0.6609   -0.0106 H       1  LIG1        0.0811
      8 C           1.7111    2.2732    0.2801 C.3     1  LIG1       -0.0348
      9 H           1.5342    2.7902    1.2335 H       1  LIG1        0.0279
     10 H           1.5010    2.9915   -0.5223 H       1  LIG1        0.0279
     11 H           2.7790    2.0421    0.2393 H       1  LIG1        0.0279
     12 O          -1.4339    1.9942    0.1826 O.3     1  LIG1       -0.5043
     13 H          -1.0186    2.7371    0.6380 H       1  LIG1        0.2922
     14 C          -2.2472   -0.9454   -0.0866 C.ar    1  LIG1        0.0735
     15 C          -2.7023   -2.2656   -0.1594 C.ar    1  LIG1        0.0185
     16 C          -4.1176   -2.1872   -0.1917 C.ar    1  LIG1        0.1470
     17 C          -4.5183   -0.8547   -0.1312 C.ar    1  LIG1        0.1060
     18 N          -3.3526   -0.1200   -0.0687 N.ar    1  LIG1       -0.3486
     19 H          -3.2799    0.8802    0.0421 H       1  LIG1        0.1661
     20 C          -1.9029   -3.5349   -0.1768 C.3     1  LIG1       -0.0342
     21 H          -1.1971   -3.5913    0.6620 H       1  LIG1        0.0279
     22 H          -1.3311   -3.6724   -1.1055 H       1  LIG1        0.0279
     23 H          -2.5698   -4.3968   -0.0794 H       1  LIG1        0.0279
     24 O          -5.0032   -3.2570   -0.2207 O.3     1  LIG1       -0.5043
     25 H          -4.8683   -3.7454   -1.0443 H       1  LIG1        0.2922
     26 C          -5.8430   -0.2901   -0.1319 C.ar    1  LIG1        0.0735
     27 C          -6.3058    1.0259   -0.2347 C.ar    1  LIG1        0.0185
     28 C          -7.7200    0.9430   -0.1896 C.ar    1  LIG1        0.1470
     29 C          -8.1135   -0.3878   -0.0709 C.ar    1  LIG1        0.1060
     30 N          -6.9441   -1.1173   -0.0397 N.ar    1  LIG1       -0.3486
     31 H          -6.8584   -2.1222   -0.0098 H       1  LIG1        0.1661
     32 C          -5.5132    2.2898   -0.3923 C.3     1  LIG1       -0.0342
     33 H          -6.1714    3.1060   -0.7068 H       1  LIG1        0.0279
     34 H          -4.7351    2.1949   -1.1584 H       1  LIG1        0.0279
     35 H          -5.0210    2.6095    0.5369 H       1  LIG1        0.0279
     36 O          -8.6146    1.9976   -0.3133 O.3     1  LIG1       -0.5043
     37 H          -8.4346    2.6380    0.3881 H       1  LIG1        0.2922
     38 C          -9.4385   -0.9534    0.0041 C.ar    1  LIG1        0.0730
     39 C          -9.8986   -2.2479    0.2703 C.ar    1  LIG1        0.0178
     40 C         -11.3210   -2.1819    0.2039 C.ar    1  LIG1        0.1376
     41 C         -11.6970   -0.8860   -0.0828 C.ar    1  LIG1        0.0445
     42 N         -10.5385   -0.1523   -0.1972 N.ar    1  LIG1       -0.3561
     43 H         -10.4567    0.8346   -0.3901 H       1  LIG1        0.1655
     44 H         -12.6752   -0.4504   -0.2065 H       1  LIG1        0.0844
     45 C          -9.0921   -3.4711    0.5977 C.3     1  LIG1       -0.0342
     46 H          -8.2982   -3.2583    1.3228 H       1  LIG1        0.0279
     47 H          -8.6195   -3.9328   -0.2809 H       1  LIG1        0.0279
     48 H          -9.7239   -4.2400    1.0584 H       1  LIG1        0.0279
     49 O         -12.2107   -3.2048    0.4291 O.3     1  LIG1       -0.5050
     50 H         -11.7591   -4.0398    0.2552 H       1  LIG1        0.2922
@<TRIPOS>BOND
     1    34    32    1
     2    22    20    1
     3    25    24    1
     4    33    32    1
     5    10     8    1
     6    32    27    1
     7    32    35    1
     8    43    42    1
     9    36    28    1
    10    36    37    1
    11    47    45    1
    12    27    28   ar
    13    27    26   ar
    14    24    16    1
    15     6     5    1
    16    44    41    1
    17    42    41   ar
    18    42    38   ar
    19    16    15   ar
    20    16    17   ar
    21    28    29   ar
    22    20    15    1
    23    20    23    1
    24    20    21    1
    25    15    14   ar
    26    26    17    1
    27    26    30   ar
    28    17    18   ar
    29    14    18   ar
    30    14     4    1
    31     5     4   ar
    32     5     1   ar
    33    41    40   ar
    34    29    30   ar
    35    29    38    1
    36    18    19    1
    37    30    31    1
    38     4     3   ar
    39     7     1    1
    40    38    39   ar
    41     1     2   ar
    42     3     2   ar
    43     3    12    1
    44     2     8    1
    45    12    13    1
    46    40    39   ar
    47    40    49    1
    48    11     8    1
    49    50    49    1
    50    39    45    1
    51     8     9    1
    52    45    48    1
    53    45    46    1
