@<TRIPOS>MOLECULE
mol_data/opt/b3lyp/geoms/mol2/13if13if13if-13if.out
 50 53 0 0 0
SMALL
GASTEIGER

@<TRIPOS>ATOM
      1 C           1.2881    0.0445   -0.0485 C.ar    1  LIG1        0.0087
      2 C           0.7549    1.1442   -0.6905 C.ar    1  LIG1        0.0090
      3 C          -0.6600    0.9862   -0.6256 C.ar    1  LIG1        0.1463
      4 C          -0.9590   -0.1878    0.0517 C.ar    1  LIG1        0.1055
      5 N           0.2657   -0.7766    0.3642 N.ar    1  LIG1       -0.3563
      6 H           0.3617   -1.5054    1.0532 H       1  LIG1        0.1655
      7 H           2.3210   -0.2149    0.1327 H       1  LIG1        0.0811
      8 C           1.4876    2.2661   -1.3609 C.3     1  LIG1       -0.0348
      9 H           1.2281    3.2355   -0.9205 H       1  LIG1        0.0279
     10 H           1.2417    2.3274   -2.4273 H       1  LIG1        0.0279
     11 H           2.5702    2.1364   -1.2730 H       1  LIG1        0.0279
     12 O          -1.5334    1.8607   -1.2102 O.3     1  LIG1       -0.5043
     13 H          -2.4203    1.4775   -1.1572 H       1  LIG1        0.2922
     14 C          -2.2342   -0.8079    0.3393 C.ar    1  LIG1        0.0735
     15 C          -3.4316   -0.2566    0.7925 C.ar    1  LIG1        0.0185
     16 C          -4.3623   -1.3298    0.8596 C.ar    1  LIG1        0.1470
     17 C          -3.7420   -2.5086    0.4679 C.ar    1  LIG1        0.1060
     18 N          -2.4184   -2.1749    0.1900 N.ar    1  LIG1       -0.3486
     19 H          -1.8338   -2.7331   -0.4130 H       1  LIG1        0.1661
     20 C          -3.6889    1.1491    1.2485 C.3     1  LIG1       -0.0342
     21 H          -4.2487    1.1489    2.1896 H       1  LIG1        0.0279
     22 H          -4.2923    1.7221    0.5323 H       1  LIG1        0.0279
     23 H          -2.7516    1.6894    1.4043 H       1  LIG1        0.0279
     24 O          -5.6490   -1.1792    1.3097 O.3     1  LIG1       -0.5043
     25 H          -5.9644   -2.0438    1.6121 H       1  LIG1        0.2922
     26 C          -4.2853   -3.8421    0.3789 C.ar    1  LIG1        0.0735
     27 C          -3.7290   -5.1022    0.5956 C.ar    1  LIG1        0.0185
     28 C          -4.7738   -6.0389    0.3698 C.ar    1  LIG1        0.1470
     29 C          -5.9448   -5.3729    0.0395 C.ar    1  LIG1        0.1060
     30 N          -5.6311   -4.0194    0.0853 N.ar    1  LIG1       -0.3486
     31 H          -6.1863   -3.3111   -0.3694 H       1  LIG1        0.1661
     32 C          -2.3399   -5.4323    1.0562 C.3     1  LIG1       -0.0342
     33 H          -1.8493   -4.5504    1.4766 H       1  LIG1        0.0279
     34 H          -1.6972   -5.8093    0.2477 H       1  LIG1        0.0279
     35 H          -2.3528   -6.1996    1.8410 H       1  LIG1        0.0279
     36 O          -4.7117   -7.4092    0.5146 O.3     1  LIG1       -0.5043
     37 H          -3.7879   -7.6852    0.4730 H       1  LIG1        0.2922
     38 C          -7.2508   -5.8903   -0.2816 C.ar    1  LIG1        0.0730
     39 C          -8.4485   -5.2535   -0.6217 C.ar    1  LIG1        0.0178
     40 C          -9.3958   -6.2901   -0.8417 C.ar    1  LIG1        0.1376
     41 C          -8.7836   -7.5118   -0.6388 C.ar    1  LIG1        0.0445
     42 N          -7.4739   -7.2480   -0.2974 N.ar    1  LIG1       -0.3561
     43 H          -6.7597   -7.9240   -0.0748 H       1  LIG1        0.1655
     44 H          -9.1649   -8.5194   -0.7049 H       1  LIG1        0.0844
     45 C          -8.7311   -3.7849   -0.7476 C.3     1  LIG1       -0.0342
     46 H          -9.7959   -3.6273   -0.9351 H       1  LIG1        0.0279
     47 H          -8.1905   -3.3187   -1.5838 H       1  LIG1        0.0279
     48 H          -8.4781   -3.2275    0.1636 H       1  LIG1        0.0279
     49 O         -10.6944   -6.0273   -1.1981 O.3     1  LIG1       -0.5050
     50 H         -11.1722   -6.8628   -1.2654 H       1  LIG1        0.2922
@<TRIPOS>BOND
     1    10     8    1
     2    47    45    1
     3     8    11    1
     4     8     9    1
     5     8     2    1
     6    50    49    1
     7    12    13    1
     8    12     3    1
     9    49    40    1
    10    46    45    1
    11    40    41   ar
    12    40    39   ar
    13    45    39    1
    14    45    48    1
    15    44    41    1
    16     2     3   ar
    17     2     1   ar
    18    41    42   ar
    19     3     4   ar
    20    39    38   ar
    21    19    18    1
    22    31    30    1
    23    42    38   ar
    24    42    43    1
    25    38    29    1
    26     1     7    1
    27     1     5   ar
    28    29    30   ar
    29    29    28   ar
    30     4    14    1
    31     4     5   ar
    32    30    26   ar
    33    18    14   ar
    34    18    17   ar
    35    34    32    1
    36    14    15   ar
    37     5     6    1
    38    28    36    1
    39    28    27   ar
    40    26    17    1
    41    26    27   ar
    42    17    16   ar
    43    37    36    1
    44    22    20    1
    45    27    32    1
    46    15    16   ar
    47    15    20    1
    48    16    24    1
    49    32    33    1
    50    32    35    1
    51    20    23    1
    52    20    21    1
    53    24    25    1
