@<TRIPOS>MOLECULE
mol_data/opt/b3lyp/geoms/mol2/13if13if13if-13if-.out
 50 53 0 0 0
SMALL
GASTEIGER

@<TRIPOS>ATOM
      1 C           1.1945    0.1538    0.7504 C.ar    1  LIG1        0.0087
      2 C           0.8282    1.1937   -0.0812 C.ar    1  LIG1        0.0090
      3 C          -0.5500    0.9876   -0.3773 C.ar    1  LIG1        0.1463
      4 C          -0.9949   -0.1527    0.2757 C.ar    1  LIG1        0.1055
      5 N           0.1149   -0.6751    0.9382 N.ar    1  LIG1       -0.3563
      6 H           0.0468   -1.3727    1.6617 H       1  LIG1        0.1655
      7 H           2.1491   -0.0589    1.2093 H       1  LIG1        0.0811
      8 C           1.6897    2.2999   -0.6094 C.3     1  LIG1       -0.0348
      9 H           1.3139    3.2836   -0.3054 H       1  LIG1        0.0279
     10 H           1.7198    2.2979   -1.7051 H       1  LIG1        0.0279
     11 H           2.7168    2.2063   -0.2451 H       1  LIG1        0.0279
     12 O          -1.2640    1.7960   -1.2201 O.3     1  LIG1       -0.5043
     13 H          -2.1003    1.3498   -1.4177 H       1  LIG1        0.2922
     14 C          -2.2950   -0.7916    0.2650 C.ar    1  LIG1        0.0735
     15 C          -3.5746   -0.2553    0.4206 C.ar    1  LIG1        0.0185
     16 C          -4.4776   -1.3443    0.2949 C.ar    1  LIG1        0.1470
     17 C          -3.7700   -2.5214    0.0841 C.ar    1  LIG1        0.1060
     18 N          -2.4313   -2.1567    0.0821 N.ar    1  LIG1       -0.3486
     19 H          -1.6888   -2.7421   -0.2641 H       1  LIG1        0.1661
     20 C          -3.9449    1.1595    0.7597 C.3     1  LIG1       -0.0342
     21 H          -4.5183    1.2167    1.6957 H       1  LIG1        0.0279
     22 H          -4.5590    1.6300   -0.0193 H       1  LIG1        0.0279
     23 H          -3.0533    1.7759    0.8935 H       1  LIG1        0.0279
     24 O          -5.8544   -1.3029    0.3682 O.3     1  LIG1       -0.5043
     25 H          -6.1179   -0.5150    0.8604 H       1  LIG1        0.2922
     26 C          -4.2511   -3.8683   -0.0826 C.ar    1  LIG1        0.0735
     27 C          -3.5929   -5.0972   -0.1868 C.ar    1  LIG1        0.0185
     28 C          -4.6104   -6.0837   -0.3070 C.ar    1  LIG1        0.1470
     29 C          -5.8575   -5.4712   -0.2615 C.ar    1  LIG1        0.1060
     30 N          -5.6067   -4.1148   -0.1386 N.ar    1  LIG1       -0.3486
     31 H          -6.2950   -3.4100    0.0842 H       1  LIG1        0.1661
     32 C          -2.1182   -5.3739   -0.1682 C.3     1  LIG1       -0.0342
     33 H          -1.6149   -4.8669    0.6640 H       1  LIG1        0.0279
     34 H          -1.6074   -5.0773   -1.0959 H       1  LIG1        0.0279
     35 H          -1.9407   -6.4457   -0.0339 H       1  LIG1        0.0279
     36 O          -4.4159   -7.4421   -0.4296 O.3     1  LIG1       -0.5043
     37 H          -3.7765   -7.5974   -1.1369 H       1  LIG1        0.2922
     38 C          -7.2033   -5.9889   -0.3830 C.ar    1  LIG1        0.0730
     39 C          -7.7907   -7.1592    0.0890 C.ar    1  LIG1        0.0178
     40 C          -9.1530   -7.1233   -0.3377 C.ar    1  LIG1        0.1376
     41 C          -9.3764   -5.9565   -1.0328 C.ar    1  LIG1        0.0445
     42 N          -8.1842   -5.2540   -1.0257 N.ar    1  LIG1       -0.3561
     43 H          -7.9778   -4.4875   -1.6460 H       1  LIG1        0.1655
     44 H         -10.2714   -5.5721   -1.4945 H       1  LIG1        0.0844
     45 C          -7.1668   -8.2257    0.9382 C.3     1  LIG1       -0.0342
     46 H          -6.2991   -7.8386    1.4770 H       1  LIG1        0.0279
     47 H          -6.8145   -9.0831    0.3516 H       1  LIG1        0.0279
     48 H          -7.8774   -8.6026    1.6867 H       1  LIG1        0.0279
     49 O         -10.1223   -8.0550   -0.0693 O.3     1  LIG1       -0.5050
     50 H          -9.6942   -8.8245    0.3259 H       1  LIG1        0.2922
@<TRIPOS>BOND
     1    10     8    1
     2    43    42    1
     3    44    41    1
     4    13    12    1
     5    12     3    1
     6    37    36    1
     7    34    32    1
     8    41    42   ar
     9    41    40   ar
    10    42    38   ar
    11     8     9    1
    12     8    11    1
    13     8     2    1
    14    36    28    1
    15    38    29    1
    16    38    39   ar
    17     3     2   ar
    18     3     4   ar
    19    40    49    1
    20    40    39   ar
    21    28    29   ar
    22    28    27   ar
    23    19    18    1
    24    29    30   ar
    25    27    32    1
    26    27    26   ar
    27    32    35    1
    28    32    33    1
    29    30    26   ar
    30    30    31    1
    31    26    17    1
    32     2     1   ar
    33    49    50    1
    34    22    20    1
    35    18    17   ar
    36    18    14   ar
    37    17    16   ar
    38    39    45    1
    39    14     4    1
    40    14    15   ar
    41     4     5   ar
    42    16    24    1
    43    16    15   ar
    44    47    45    1
    45    24    25    1
    46    15    20    1
    47     1     5   ar
    48     1     7    1
    49    20    23    1
    50    20    21    1
    51    45    46    1
    52    45    48    1
    53     5     6    1
