@<TRIPOS>MOLECULE
mol_data/opt/b3lyp/geoms/mol2/13if13if-4if13if.out
 52 55 0 0 0
SMALL
GASTEIGER

@<TRIPOS>ATOM
      1 C           1.3099   -0.4662   -0.9440 C.ar    1  LIG1        0.0087
      2 C           1.0333    0.8214   -0.5249 C.ar    1  LIG1        0.0090
      3 C          -0.3234    0.8076   -0.0975 C.ar    1  LIG1        0.1463
      4 C          -0.8444   -0.4714   -0.2619 C.ar    1  LIG1        0.1055
      5 N           0.1953   -1.2468   -0.7612 N.ar    1  LIG1       -0.3563
      6 H           0.0710   -2.1736   -1.1330 H       1  LIG1        0.1655
      7 H           2.2228   -0.8808   -1.3454 H       1  LIG1        0.0811
      8 C           1.9595    1.9988   -0.4922 C.3     1  LIG1       -0.0348
      9 H           2.0511    2.4087    0.5200 H       1  LIG1        0.0279
     10 H           1.6005    2.8130   -1.1320 H       1  LIG1        0.0279
     11 H           2.9605    1.7208   -0.8345 H       1  LIG1        0.0279
     12 O          -0.9643    1.9088    0.4112 O.3     1  LIG1       -0.5043
     13 H          -1.7349    1.6043    0.9123 H       1  LIG1        0.2922
     14 C          -2.1725   -0.9667    0.0198 C.ar    1  LIG1        0.0735
     15 C          -2.6398   -2.1968    0.4756 C.ar    1  LIG1        0.0184
     16 C          -4.0561   -2.0821    0.5513 C.ar    1  LIG1        0.1455
     17 C          -4.4507   -0.8013    0.1774 C.ar    1  LIG1        0.0896
     18 N          -3.2636   -0.1274   -0.1165 N.ar    1  LIG1       -0.3498
     19 H          -3.2335    0.6875   -0.7092 H       1  LIG1        0.1661
     20 C          -1.8358   -3.3921    0.8955 C.3     1  LIG1       -0.0342
     21 H          -0.7828   -3.1286    1.0263 H       1  LIG1        0.0279
     22 H          -1.8843   -4.2169    0.1711 H       1  LIG1        0.0279
     23 H          -2.1776   -3.7936    1.8597 H       1  LIG1        0.0279
     24 O          -4.9207   -3.0603    0.9698 O.3     1  LIG1       -0.5044
     25 H          -4.4004   -3.8045    1.2985 H       1  LIG1        0.2922
     26 C          -6.0695    1.1684    0.2017 C.ar    1  LIG1       -0.0404
     27 C          -7.3900    1.5966    0.0546 C.ar    1  LIG1       -0.0456
     28 C          -5.7828   -0.2134    0.0625 C.ar    1  LIG1        0.0083
     29 C          -8.4843    0.7501   -0.2014 C.ar    1  LIG1        0.0403
     30 H          -7.5808    2.6585    0.1413 H       1  LIG1        0.0628
     31 C          -6.8616   -1.0767   -0.2092 C.ar    1  LIG1       -0.0100
     32 C          -8.1654   -0.6217   -0.3321 C.ar    1  LIG1        0.1266
     33 H          -6.6656   -2.1392   -0.3186 H       1  LIG1        0.0661
     34 C          -5.0196    2.2071    0.5368 C.3     1  LIG1       -0.0391
     35 H          -5.4954    3.1270    0.8860 H       1  LIG1        0.0278
     36 H          -4.3986    2.4887   -0.3247 H       1  LIG1        0.0278
     37 H          -4.3474    1.8600    1.3278 H       1  LIG1        0.0278
     38 O          -9.1840   -1.5160   -0.6016 O.3     1  LIG1       -0.5061
     39 H          -8.8111   -2.4066   -0.6272 H       1  LIG1        0.2922
     40 C          -9.8431    1.2797   -0.3181 C.ar    1  LIG1        0.0565
     41 C         -10.3978    2.5036    0.0902 C.ar    1  LIG1        0.0163
     42 C         -11.7617    2.4729   -0.2998 C.ar    1  LIG1        0.1375
     43 C         -12.0263    1.2667   -0.9200 C.ar    1  LIG1        0.0444
     44 N         -10.8505    0.5587   -0.9243 N.ar    1  LIG1       -0.3573
     45 H         -10.7276   -0.3948   -1.2250 H       1  LIG1        0.1655
     46 H         -12.9350    0.8691   -1.3467 H       1  LIG1        0.0844
     47 C          -9.7804    3.6501    0.8368 C.3     1  LIG1       -0.0342
     48 H         -10.5706    4.2734    1.2638 H       1  LIG1        0.0279
     49 H          -9.1731    4.3015    0.1940 H       1  LIG1        0.0279
     50 H          -9.1400    3.3093    1.6571 H       1  LIG1        0.0279
     51 O         -12.6167    3.5199   -0.0588 O.3     1  LIG1       -0.5050
     52 H         -13.5113    3.2480   -0.2971 H       1  LIG1        0.2922
@<TRIPOS>BOND
     1    46    43    1
     2     7     1    1
     3    45    44    1
     4     6     5    1
     5    10     8    1
     6     1     5   ar
     7     1     2   ar
     8    44    43   ar
     9    44    40   ar
    10    43    42   ar
    11    11     8    1
    12     5     4   ar
    13    19    18    1
    14    39    38    1
    15    38    32    1
    16     2     8    1
    17     2     3   ar
    18     8     9    1
    19    32    31   ar
    20    32    29   ar
    21    36    34    1
    22    33    31    1
    23    40    29    1
    24    40    41   ar
    25    42    51    1
    26    42    41   ar
    27    52    51    1
    28     4     3   ar
    29     4    14    1
    30    31    28   ar
    31    29    27   ar
    32    18    14   ar
    33    18    17   ar
    34     3    12    1
    35    14    15   ar
    36    27    30    1
    37    27    26   ar
    38    28    17    1
    39    28    26   ar
    40    41    47    1
    41    22    20    1
    42    17    16   ar
    43    49    47    1
    44    26    34    1
    45    12    13    1
    46    15    16   ar
    47    15    20    1
    48    34    35    1
    49    34    37    1
    50    16    24    1
    51    47    48    1
    52    47    50    1
    53    20    21    1
    54    20    23    1
    55    24    25    1
