@<TRIPOS>MOLECULE
mol_data/opt/b3lyp/geoms/mol2/13if13if13if.out
 38 40 0 0 0
SMALL
GASTEIGER

@<TRIPOS>ATOM
      1 C           0.9538    0.0837    1.2936 C.ar    1  LIG1        0.0087
      2 C           0.8750    0.9876    0.2534 C.ar    1  LIG1        0.0090
      3 C          -0.4120    0.7983   -0.3301 C.ar    1  LIG1        0.1463
      4 C          -1.0851   -0.1995    0.3574 C.ar    1  LIG1        0.1055
      5 N          -0.2031   -0.6579    1.3367 N.ar    1  LIG1       -0.3563
      6 H          -0.5023   -1.1962    2.1344 H       1  LIG1        0.1655
      7 H           1.7551   -0.0898    1.9972 H       1  LIG1        0.0811
      8 C           1.9223    1.9527   -0.2122 C.3     1  LIG1       -0.0348
      9 H           1.5604    2.9865   -0.1763 H       1  LIG1        0.0279
     10 H           2.2178    1.7574   -1.2496 H       1  LIG1        0.0279
     11 H           2.8198    1.8892    0.4099 H       1  LIG1        0.0279
     12 O          -0.8397    1.4864   -1.4311 O.3     1  LIG1       -0.5043
     13 H          -1.6910    1.1126   -1.7008 H       1  LIG1        0.2922
     14 C          -2.3927   -0.7800    0.1181 C.ar    1  LIG1        0.0735
     15 C          -3.6324   -0.1694   -0.0867 C.ar    1  LIG1        0.0185
     16 C          -4.5656   -1.2208   -0.2911 C.ar    1  LIG1        0.1470
     17 C          -3.9157   -2.4437   -0.1926 C.ar    1  LIG1        0.1060
     18 N          -2.5791   -2.1462    0.0484 N.ar    1  LIG1       -0.3486
     19 H          -1.8468   -2.8295    0.1531 H       1  LIG1        0.1661
     20 C          -3.9552    1.2949   -0.0417 C.3     1  LIG1       -0.0342
     21 H          -4.8164    1.4826    0.6085 H       1  LIG1        0.0279
     22 H          -4.2207    1.6960   -1.0283 H       1  LIG1        0.0279
     23 H          -3.1083    1.8714    0.3395 H       1  LIG1        0.0279
     24 O          -5.8908   -1.0026   -0.5452 O.3     1  LIG1       -0.5043
     25 H          -6.3009   -1.8586   -0.7362 H       1  LIG1        0.2922
     26 C          -4.4329   -3.7899   -0.3493 C.ar    1  LIG1        0.0730
     27 C          -5.5562   -4.3978    0.2060 C.ar    1  LIG1        0.0178
     28 C          -5.6061   -5.7172   -0.3345 C.ar    1  LIG1        0.1376
     29 C          -4.5344   -5.8965   -1.1814 C.ar    1  LIG1        0.0445
     30 N          -3.8050   -4.7191   -1.1615 N.ar    1  LIG1       -0.3561
     31 H          -3.1229   -4.4658   -1.8584 H       1  LIG1        0.1655
     32 H          -4.2189   -6.7527   -1.7585 H       1  LIG1        0.0844
     33 C          -6.4863   -3.8471    1.2462 C.3     1  LIG1       -0.0342
     34 H          -6.5932   -4.5474    2.0819 H       1  LIG1        0.0279
     35 H          -7.4973   -3.6783    0.8543 H       1  LIG1        0.0279
     36 H          -6.1150   -2.8979    1.6411 H       1  LIG1        0.0279
     37 O          -6.5822   -6.6069    0.0275 O.3     1  LIG1       -0.5050
     38 H          -6.4120   -7.4528   -0.4055 H       1  LIG1        0.2922
@<TRIPOS>BOND
     1    31    30    1
     2    32    29    1
     3    13    12    1
     4    12     3    1
     5    10     8    1
     6    29    30   ar
     7    29    28   ar
     8    30    26   ar
     9    22    20    1
    10    25    24    1
    11    24    16    1
    12    38    37    1
    13    26    17    1
    14    26    27   ar
    15    28    37    1
    16    28    27   ar
    17     3     2   ar
    18     3     4   ar
    19    16    17   ar
    20    16    15   ar
    21     8     9    1
    22     8     2    1
    23     8    11    1
    24    17    18   ar
    25    15    20    1
    26    15    14   ar
    27    20    23    1
    28    20    21    1
    29    18    14   ar
    30    18    19    1
    31    14     4    1
    32    27    33    1
    33     2     1   ar
    34     4     5   ar
    35    35    33    1
    36    33    36    1
    37    33    34    1
    38     1     5   ar
    39     1     7    1
    40     5     6    1
