@<TRIPOS>MOLECULE
mol_data/opt/b3lyp/geoms/mol2/13if4ah-12al-13ef6fl-4ia-6ha-6hf-.out
 98 105 0 0 0
SMALL
GASTEIGER

@<TRIPOS>ATOM
      1 C           1.0968    0.3893    1.6371 C.ar    1  LIG1        0.0087
      2 C           0.6541    1.6680    1.3568 C.ar    1  LIG1        0.0089
      3 C          -0.7203    1.5349    1.0168 C.ar    1  LIG1        0.1449
      4 C          -1.0887    0.1932    1.0924 C.ar    1  LIG1        0.0888
      5 N           0.0692   -0.4960    1.4398 N.ar    1  LIG1       -0.3575
      6 H           0.0680   -1.4505    1.7614 H       1  LIG1        0.1655
      7 H           2.0715    0.0516    1.9584 H       1  LIG1        0.0811
      8 C           1.4411    2.9427    1.3719 C.3     1  LIG1       -0.0348
      9 H           1.0450    3.6531    2.1065 H       1  LIG1        0.0279
     10 H           1.4098    3.4439    0.3979 H       1  LIG1        0.0279
     11 H           2.4896    2.7542    1.6197 H       1  LIG1        0.0279
     12 O          -1.4872    2.5998    0.6296 O.3     1  LIG1       -0.5044
     13 H          -2.2726    2.2629    0.1766 H       1  LIG1        0.2922
     14 C          -3.5793    0.2253    0.9970 C.ar    1  LIG1       -0.0517
     15 C          -4.7750   -0.4122    0.7243 C.ar    1  LIG1       -0.0487
     16 C          -2.3551   -0.4607    0.8147 C.ar    1  LIG1        0.0036
     17 C          -4.8473   -1.7453    0.2692 C.ar    1  LIG1        0.0380
     18 H          -5.7013    0.1265    0.8970 H       1  LIG1        0.0625
     19 C          -2.4102   -1.7848    0.3615 C.ar    1  LIG1       -0.0311
     20 C          -3.6174   -2.4502    0.0929 C.ar    1  LIG1        0.0360
     21 H          -1.4835   -2.3209    0.1711 H       1  LIG1        0.0643
     22 H          -3.5878    1.2236    1.4219 H       1  LIG1        0.0624
     23 N          -3.5656   -3.7764   -0.3053 N.pl3   1  LIG1       -0.3574
     24 H          -4.3599   -4.1337   -0.8120 H       1  LIG1        0.1423
     25 H          -2.6738   -4.0911   -0.6590 H       1  LIG1        0.1423
     26 C          -6.1593   -2.3125    0.0147 C.ar    1  LIG1        0.1412
     27 C          -7.4258   -1.7658    0.0058 C.ar    1  LIG1        0.0268
     28 C          -8.3359   -2.8221   -0.2830 C.ar    1  LIG1        0.1677
     29 C          -7.5916   -3.9754   -0.4622 C.ar    1  LIG1        0.1944
     30 O          -6.2587   -3.6486   -0.2719 O.2     1  LIG1       -0.4495
     31 H          -7.6760   -0.7324    0.1836 H       1  LIG1        0.0692
     32 O          -9.6813   -2.7845   -0.3593 O.3     1  LIG1       -0.4912
     33 C         -10.2996   -1.5214   -0.1488 C.3     1  LIG1        0.0790
     34 H         -11.3718   -1.6924   -0.2480 H       1  LIG1        0.0660
     35 H         -10.0844   -1.1326    0.8543 H       1  LIG1        0.0660
     36 H          -9.9774   -0.7888   -0.8991 H       1  LIG1        0.0660
     37 C          -7.8396   -5.3633   -0.7043 C.ar    1  LIG1        0.1054
     38 C          -8.9624   -6.0938   -1.1268 C.ar    1  LIG1        0.0950
     39 C          -8.5719   -7.4729   -1.1106 C.ar    1  LIG1        0.1583
     40 C          -7.2536   -7.5744   -0.7043 C.ar    1  LIG1        0.0955
     41 N          -6.8017   -6.2584   -0.5144 N.ar    1  LIG1       -0.3476
     42 H          -6.0354   -6.0343    0.1069 H       1  LIG1        0.1661
     43 C         -10.2163   -5.6254   -1.5839 C.1     1  LIG1       -0.0637
     44 C         -11.3004   -5.2830   -1.9996 C.1     1  LIG1       -0.1137
     45 H         -12.2501   -4.9712   -2.3660 H       1  LIG1        0.1232
     46 O          -9.4020   -8.4721   -1.5104 O.3     1  LIG1       -0.5035
     47 H          -8.8701   -9.2647   -1.6704 H       1  LIG1        0.2923
     48 C          -5.0247   -8.7078   -0.9934 C.ar    1  LIG1        0.2225
     49 C          -6.3817   -8.7346   -0.5842 C.ar    1  LIG1        0.0667
     50 C          -6.8549   -9.9611   -0.0883 C.ar    1  LIG1       -0.0035
     51 C          -6.0009  -11.0616    0.0073 C.ar    1  LIG1        0.1468
     52 C          -4.6453  -10.8993   -0.3552 C.ar    1  LIG1        0.1165
     53 N          -4.2071   -9.7373   -0.8668 N.ar    1  LIG1       -0.2088
     54 H          -7.8822  -10.0246    0.2517 H       1  LIG1        0.0663
     55 O          -4.4642   -7.5917   -1.5451 O.3     1  LIG1       -0.4919
     56 H          -5.1769   -6.9700   -1.7610 H       1  LIG1        0.2937
     57 O          -6.3955  -12.3027    0.4220 O.3     1  LIG1       -0.4929
     58 C          -7.7611  -12.4974    0.7566 C.3     1  LIG1        0.0789
     59 H          -7.8575  -13.5503    1.0239 H       1  LIG1        0.0660
     60 H          -8.0641  -11.8792    1.6113 H       1  LIG1        0.0660
     61 H          -8.4204  -12.2806   -0.0940 H       1  LIG1        0.0660
     62 C          -3.3295  -12.6982    0.9038 C.ar    1  LIG1       -0.0406
     63 C          -2.3563  -13.7019    0.8499 C.ar    1  LIG1       -0.0504
     64 C          -3.6443  -12.0027   -0.2840 C.ar    1  LIG1        0.0070
     65 C          -1.6755  -14.0421   -0.3290 C.ar    1  LIG1       -0.0143
     66 H          -2.1207  -14.2438    1.7623 H       1  LIG1        0.0626
     67 C          -2.9423  -12.3122   -1.4587 C.ar    1  LIG1       -0.0516
     68 C          -1.9824  -13.3165   -1.4934 C.ar    1  LIG1       -0.0533
     69 H          -3.1547  -11.7369   -2.3540 H       1  LIG1        0.0624
     70 C          -3.9747  -12.3781    2.2316 C.3     1  LIG1       -0.0391
     71 H          -3.3432  -12.7153    3.0582 H       1  LIG1        0.0278
     72 H          -4.9495  -12.8659    2.3259 H       1  LIG1        0.0278
     73 H          -4.1405  -11.3030    2.3487 H       1  LIG1        0.0278
     74 H          -1.4489  -13.5211   -2.4160 H       1  LIG1        0.0624
     75 C          -0.5443  -16.1251   -1.2884 C.ar    1  LIG1        0.1246
     76 C          -0.6324  -15.0981   -0.3084 C.ar    1  LIG1        0.0217
     77 C           0.3267  -15.1439    0.7055 C.ar    1  LIG1       -0.0487
     78 C           1.3032  -16.1337    0.7389 C.ar    1  LIG1       -0.0349
     79 C           1.3081  -17.1099   -0.2678 C.ar    1  LIG1        0.0765
     80 N           0.3913  -17.0826   -1.2576 N.ar    1  LIG1       -0.2317
     81 H           0.3211  -14.3670    1.4645 H       1  LIG1        0.0625
     82 N          -1.4220  -16.1896   -2.3558 N.pl3   1  LIG1       -0.3426
     83 H          -1.4595  -17.0989   -2.7946 H       1  LIG1        0.1437
     84 H          -2.3176  -15.7394   -2.2318 H       1  LIG1        0.1437
     85 H           2.0646  -16.1238    1.5087 H       1  LIG1        0.0639
     86 C           2.7414  -18.8713   -1.4656 C.ar    1  LIG1        0.1256
     87 C           2.3078  -18.2062   -0.2739 C.ar    1  LIG1        0.0434
     88 C           2.8769  -18.6334    0.9292 C.ar    1  LIG1       -0.0062
     89 C           3.8363  -19.6428    0.9467 C.ar    1  LIG1        0.1356
     90 C           4.1946  -20.2142   -0.2723 C.ar    1  LIG1        0.0711
     91 N           3.6628  -19.8478   -1.4391 N.ar    1  LIG1       -0.2364
     92 H           2.5628  -18.2029    1.8736 H       1  LIG1        0.0662
     93 H           4.9365  -21.0148   -0.3084 H       1  LIG1        0.0867
     94 N           2.2830  -18.5134   -2.7096 N.pl3   1  LIG1       -0.3426
     95 H           2.5113  -19.1748   -3.4368 H       1  LIG1        0.1437
     96 H           1.3730  -18.0691   -2.7244 H       1  LIG1        0.1437
     97 O           4.3622  -20.0299    2.1550 O.3     1  LIG1       -0.5052
     98 H           4.9954  -20.7436    2.0025 H       1  LIG1        0.2922
@<TRIPOS>BOND
     1    95    94    1
     2    83    82    1
     3    96    94    1
     4    94    86    1
     5    74    68    1
     6    45    44    1
     7    82    84    1
     8    82    75    1
     9    69    67    1
    10    44    43    3
    11    56    55    1
    12    47    46    1
    13    43    38    1
    14    55    48    1
    15    46    39    1
    16    68    67   ar
    17    68    65   ar
    18    86    91   ar
    19    86    87   ar
    20    67    64   ar
    21    91    90   ar
    22    75    80   ar
    23    75    76   ar
    24    80    79   ar
    25    38    39   ar
    26    38    37   ar
    27    39    40   ar
    28    48    53   ar
    29    48    49   ar
    30    36    33    1
    31    53    52   ar
    32    24    23    1
    33    37    41   ar
    34    37    29    1
    35    40    49    1
    36    40    41   ar
    37    25    23    1
    38    49    50   ar
    39    41    42    1
    40    29    28   ar
    41    29    30   ar
    42    32    28    1
    43    32    33    1
    44    52    64    1
    45    52    51   ar
    46    65    76    1
    47    65    63   ar
    48    93    90    1
    49    76    77   ar
    50    23    20    1
    51    64    62   ar
    52    28    27   ar
    53    87    79    1
    54    87    88   ar
    55    90    89   ar
    56    30    26   ar
    57    79    78   ar
    58    34    33    1
    59    33    35    1
    60    61    58    1
    61    50    51   ar
    62    50    54    1
    63    27    26   ar
    64    27    31    1
    65    51    57    1
    66    26    17    1
    67    20    17   ar
    68    20    19   ar
    69    21    19    1
    70    13    12    1
    71    17    15   ar
    72    19    16   ar
    73    10     8    1
    74    57    58    1
    75    12     3    1
    76    77    78   ar
    77    77    81    1
    78    15    18    1
    79    15    14   ar
    80    78    85    1
    81    58    59    1
    82    58    60    1
    83    16    14   ar
    84    16     4    1
    85    63    62   ar
    86    63    66    1
    87    62    70    1
    88    88    89   ar
    89    88    92    1
    90    89    97    1
    91    14    22    1
    92     3     4   ar
    93     3     2   ar
    94     4     5   ar
    95     2     8    1
    96     2     1   ar
    97     8    11    1
    98     8     9    1
    99     5     1   ar
   100     5     6    1
   101     1     7    1
   102    98    97    1
   103    70    72    1
   104    70    73    1
   105    70    71    1
