@<TRIPOS>MOLECULE
mol_data/opt/b3lyp/geoms/mol2/13if13if-.out
 26 27 0 0 0
SMALL
GASTEIGER

@<TRIPOS>ATOM
      1 C           1.1899   -0.2027   -0.5307 C.ar    1  LIG1        0.0087
      2 C           0.7839    1.0268   -0.0464 C.ar    1  LIG1        0.0090
      3 C          -0.6225    0.9243    0.1413 C.ar    1  LIG1        0.1463
      4 C          -1.0448   -0.3468   -0.2287 C.ar    1  LIG1        0.1055
      5 N           0.0988   -1.0310   -0.6188 N.ar    1  LIG1       -0.3563
      6 H           0.0871   -1.9341   -1.0624 H       1  LIG1        0.1655
      7 H           2.1764   -0.5457   -0.8062 H       1  LIG1        0.0811
      8 C           1.6333    2.2247    0.2526 C.3     1  LIG1       -0.0348
      9 H           1.5375    2.5328    1.3001 H       1  LIG1        0.0279
     10 H           1.3453    3.0879   -0.3584 H       1  LIG1        0.0279
     11 H           2.6894    2.0156    0.0592 H       1  LIG1        0.0279
     12 O          -1.3989    1.9460    0.6313 O.3     1  LIG1       -0.5043
     13 H          -2.2170    1.5582    0.9756 H       1  LIG1        0.2922
     14 C          -2.3788   -0.9098   -0.2225 C.ar    1  LIG1        0.0730
     15 C          -2.8610   -2.1800    0.0817 C.ar    1  LIG1        0.0178
     16 C          -4.2799   -2.1231   -0.0849 C.ar    1  LIG1        0.1376
     17 C          -4.6361   -0.8504   -0.4656 C.ar    1  LIG1        0.0445
     18 N          -3.4687   -0.1058   -0.5143 N.ar    1  LIG1       -0.3561
     19 H          -3.3770    0.7713   -1.0034 H       1  LIG1        0.1655
     20 H          -5.6043   -0.4215   -0.6664 H       1  LIG1        0.0844
     21 C          -2.0832   -3.3670    0.5701 C.3     1  LIG1       -0.0342
     22 H          -1.0901   -3.0676    0.9167 H       1  LIG1        0.0279
     23 H          -1.9440   -4.1378   -0.2012 H       1  LIG1        0.0279
     24 H          -2.5815   -3.8525    1.4201 H       1  LIG1        0.0279
     25 O          -5.1744   -3.1357    0.1384 O.3     1  LIG1       -0.5050
     26 H          -4.6792   -3.9417    0.3294 H       1  LIG1        0.2922
@<TRIPOS>BOND
     1     6     5    1
     2    19    18    1
     3     7     1    1
     4    20    17    1
     5     5     1   ar
     6     5     4   ar
     7     1     2   ar
     8    18    17   ar
     9    18    14   ar
    10    17    16   ar
    11    10     8    1
    12     4    14    1
    13     4     3   ar
    14    14    15   ar
    15    23    21    1
    16    16    15   ar
    17    16    25    1
    18     2     3   ar
    19     2     8    1
    20    11     8    1
    21    15    21    1
    22    25    26    1
    23     3    12    1
    24     8     9    1
    25    21    22    1
    26    21    24    1
    27    12    13    1
