@<TRIPOS>MOLECULE
mol_data/opt/b3lyp/geoms/mol2/13if13if-13if-13if.out
 50 53 0 0 0
SMALL
GASTEIGER

@<TRIPOS>ATOM
      1 C           1.3029   -0.2874    0.0228 C.ar    1  LIG1        0.0087
      2 C           0.8368    0.9101    0.5341 C.ar    1  LIG1        0.0090
      3 C          -0.5813    0.8042    0.5322 C.ar    1  LIG1        0.1463
      4 C          -0.9560   -0.4359    0.0278 C.ar    1  LIG1        0.1055
      5 N           0.2287   -1.0856   -0.2795 N.ar    1  LIG1       -0.3563
      6 H           0.2825   -1.9955   -0.7037 H       1  LIG1        0.1655
      7 H           2.3156   -0.6205   -0.1483 H       1  LIG1        0.0811
      8 C           1.6421    2.0867    0.9990 C.3     1  LIG1       -0.0348
      9 H           1.5019    2.2930    2.0691 H       1  LIG1        0.0279
     10 H           1.3782    3.0023    0.4552 H       1  LIG1        0.0279
     11 H           2.7109    1.9134    0.8475 H       1  LIG1        0.0279
     12 O          -1.4982    1.7618    0.9210 O.3     1  LIG1       -0.5043
     13 H          -1.0904    2.3335    1.5835 H       1  LIG1        0.2922
     14 C          -2.2714   -0.9967   -0.1546 C.ar    1  LIG1        0.0735
     15 C          -2.7108   -2.2628   -0.5512 C.ar    1  LIG1        0.0185
     16 C          -4.1316   -2.2219   -0.5078 C.ar    1  LIG1        0.1470
     17 C          -4.5465   -0.9654   -0.0790 C.ar    1  LIG1        0.1060
     18 N          -3.3864   -0.2334    0.1151 N.ar    1  LIG1       -0.3486
     19 H          -3.3271    0.6667    0.5702 H       1  LIG1        0.1661
     20 C          -1.8913   -3.4579   -0.9408 C.3     1  LIG1       -0.0342
     21 H          -1.1306   -3.7011   -0.1877 H       1  LIG1        0.0279
     22 H          -1.3795   -3.3380   -1.9064 H       1  LIG1        0.0279
     23 H          -2.5332   -4.3405   -1.0253 H       1  LIG1        0.0279
     24 O          -4.9845   -3.2580   -0.8232 O.3     1  LIG1       -0.5043
     25 H          -4.7400   -3.6004   -1.6929 H       1  LIG1        0.2922
     26 C          -5.8537   -0.3769    0.0960 C.ar    1  LIG1        0.0735
     27 C          -7.0583   -0.9113    0.5520 C.ar    1  LIG1        0.0185
     28 C          -7.9953    0.1541    0.5216 C.ar    1  LIG1        0.1470
     29 C          -7.3788    1.3171    0.0796 C.ar    1  LIG1        0.1060
     30 N          -6.0546    0.9716   -0.1485 N.ar    1  LIG1       -0.3486
     31 H          -5.4195    1.5371   -0.6880 H       1  LIG1        0.1661
     32 C          -7.3241   -2.3001    1.0498 C.3     1  LIG1       -0.0342
     33 H          -6.4050   -2.7672    1.4104 H       1  LIG1        0.0279
     34 H          -7.7248   -2.9609    0.2714 H       1  LIG1        0.0279
     35 H          -8.0393   -2.2900    1.8832 H       1  LIG1        0.0279
     36 O          -9.3159    0.1176    0.9224 O.3     1  LIG1       -0.5043
     37 H          -9.5950   -0.8051    0.9692 H       1  LIG1        0.2922
     38 C          -7.9221    2.6371   -0.1192 C.ar    1  LIG1        0.0730
     39 C          -7.3366    3.8375   -0.5347 C.ar    1  LIG1        0.0178
     40 C          -8.3820    4.8007   -0.5489 C.ar    1  LIG1        0.1376
     41 C          -9.5589    4.1966   -0.1522 C.ar    1  LIG1        0.0445
     42 N          -9.2585    2.8748    0.1050 N.ar    1  LIG1       -0.3561
     43 H          -9.8927    2.1617    0.4309 H       1  LIG1        0.1655
     44 H         -10.5571    4.5897   -0.0329 H       1  LIG1        0.0844
     45 C          -5.9061    4.1082   -0.8986 C.3     1  LIG1       -0.0342
     46 H          -5.7630    5.1776   -1.0714 H       1  LIG1        0.0279
     47 H          -5.5974    3.5948   -1.8209 H       1  LIG1        0.0279
     48 H          -5.2094    3.8114   -0.1039 H       1  LIG1        0.0279
     49 O          -8.1669    6.1073   -0.9135 O.3     1  LIG1       -0.5050
     50 H          -8.9962    6.5919   -0.8221 H       1  LIG1        0.2922
@<TRIPOS>BOND
     1    22    20    1
     2    47    45    1
     3    25    24    1
     4    46    45    1
     5    23    20    1
     6    20    15    1
     7    20    21    1
     8    49    50    1
     9    49    40    1
    10    45    39    1
    11    45    48    1
    12    24    16    1
    13     6     5    1
    14    31    30    1
    15    15    16   ar
    16    15    14   ar
    17    40    39   ar
    18    40    41   ar
    19    39    38   ar
    20    16    17   ar
    21     5     1   ar
    22     5     4   ar
    23    14     4    1
    24    14    18   ar
    25    41    44    1
    26    41    42   ar
    27    30    29   ar
    28    30    26   ar
    29     7     1    1
    30    38    29    1
    31    38    42   ar
    32    17    26    1
    33    17    18   ar
    34     1     2   ar
    35     4     3   ar
    36    29    28   ar
    37    26    27   ar
    38    42    43    1
    39    18    19    1
    40    34    32    1
    41    10     8    1
    42    28    27   ar
    43    28    36    1
    44     3     2   ar
    45     3    12    1
    46     2     8    1
    47    27    32    1
    48    11     8    1
    49    12    13    1
    50    36    37    1
    51     8     9    1
    52    32    33    1
    53    32    35    1
