@<TRIPOS>MOLECULE
mol_data/opt/b3lyp/geoms/mol2/13if13if.out
 26 27 0 0 0
SMALL
GASTEIGER

@<TRIPOS>ATOM
      1 C           1.1098   -0.2351    0.7148 C.ar    1  LIG1        0.0087
      2 C           0.8239    0.9422    0.0523 C.ar    1  LIG1        0.0090
      3 C          -0.5490    0.8554   -0.3212 C.ar    1  LIG1        0.1463
      4 C          -1.0680   -0.3526    0.1186 C.ar    1  LIG1        0.1055
      5 N          -0.0114   -1.0299    0.7254 N.ar    1  LIG1       -0.3563
      6 H          -0.1440   -1.8246    1.3301 H       1  LIG1        0.1655
      7 H           2.0335   -0.5650    1.1676 H       1  LIG1        0.0811
      8 C           1.7532    2.0766   -0.2551 C.3     1  LIG1       -0.0348
      9 H           1.3959    3.0176    0.1785 H       1  LIG1        0.0279
     10 H           1.8453    2.2412   -1.3350 H       1  LIG1        0.0279
     11 H           2.7543    1.8831    0.1413 H       1  LIG1        0.0279
     12 O          -1.1882    1.8235   -1.0452 O.3     1  LIG1       -0.5043
     13 H          -2.0670    1.4884   -1.2749 H       1  LIG1        0.2922
     14 C          -2.3930   -0.9185   -0.0498 C.ar    1  LIG1        0.0730
     15 C          -3.6514   -0.3532    0.1433 C.ar    1  LIG1        0.0178
     16 C          -4.5998   -1.3549   -0.2205 C.ar    1  LIG1        0.1376
     17 C          -3.9262   -2.4922   -0.6090 C.ar    1  LIG1        0.0445
     18 N          -2.5740   -2.2224   -0.4745 N.ar    1  LIG1       -0.3561
     19 H          -1.8397   -2.7681   -0.8960 H       1  LIG1        0.1655
     20 H          -4.2860   -3.4581   -0.9307 H       1  LIG1        0.0844
     21 C          -3.9827    0.9931    0.7164 C.3     1  LIG1       -0.0342
     22 H          -4.7023    0.8997    1.5372 H       1  LIG1        0.0279
     23 H          -4.4438    1.6600   -0.0232 H       1  LIG1        0.0279
     24 H          -3.0869    1.4865    1.1023 H       1  LIG1        0.0279
     25 O          -5.9493   -1.1387   -0.1237 O.3     1  LIG1       -0.5050
     26 H          -6.4137   -1.9508   -0.3616 H       1  LIG1        0.2922
@<TRIPOS>BOND
     1    10     8    1
     2    13    12    1
     3    12     3    1
     4    20    17    1
     5    19    18    1
     6    17    18   ar
     7    17    16   ar
     8    18    14   ar
     9    26    25    1
    10     3     2   ar
    11     3     4   ar
    12     8     2    1
    13     8    11    1
    14     8     9    1
    15    16    25    1
    16    16    15   ar
    17    14     4    1
    18    14    15   ar
    19    23    21    1
    20     2     1   ar
    21     4     5   ar
    22    15    21    1
    23     1     5   ar
    24     1     7    1
    25    21    24    1
    26    21    22    1
    27     5     6    1
