@<TRIPOS>MOLECULE
mol_data/opt/b3lyp/geoms/mol2/13ig13ig-13ig.out
 38 40 0 0 0
SMALL
GASTEIGER

@<TRIPOS>ATOM
      1 C           0.7772   -0.0148    1.6170 C.ar    1  LIG1        0.0062
      2 C           0.8849    0.8555    0.5521 C.ar    1  LIG1       -0.0193
      3 C          -0.3340    0.7367   -0.1882 C.ar    1  LIG1        0.0344
      4 C          -1.1484   -0.1932    0.4461 C.ar    1  LIG1        0.0768
      5 N          -0.4306   -0.6603    1.5397 N.ar    1  LIG1       -0.3584
      6 H          -0.8342   -1.2264    2.2690 H       1  LIG1        0.1654
      7 H           1.4757   -0.2215    2.4147 H       1  LIG1        0.0810
      8 C           2.0524    1.7333    0.2164 C.3     1  LIG1       -0.0372
      9 H           1.7713    2.7932    0.2039 H       1  LIG1        0.0278
     10 H           2.4627    1.4990   -0.7733 H       1  LIG1        0.0278
     11 H           2.8572    1.6124    0.9471 H       1  LIG1        0.0278
     12 S          -0.6454    1.6080   -1.7046 S.3     1  LIG1       -0.1403
     13 H          -1.7981    0.9702   -1.9935 H       1  LIG1        0.1072
     14 C          -2.4655   -0.7166    0.1112 C.ar    1  LIG1        0.0685
     15 C          -3.6934   -0.0782   -0.0481 C.ar    1  LIG1       -0.0099
     16 C          -4.6468   -1.0925   -0.3617 C.ar    1  LIG1        0.0351
     17 C          -4.0017   -2.3243   -0.3716 C.ar    1  LIG1        0.0772
     18 N          -2.6714   -2.0679   -0.0850 N.ar    1  LIG1       -0.3508
     19 H          -1.9499   -2.7702   -0.0390 H       1  LIG1        0.1660
     20 C          -3.9758    1.3839    0.1235 C.3     1  LIG1       -0.0366
     21 H          -4.7709    1.5483    0.8604 H       1  LIG1        0.0279
     22 H          -4.3074    1.8497   -0.8125 H       1  LIG1        0.0279
     23 H          -3.0838    1.9156    0.4623 H       1  LIG1        0.0279
     24 S          -6.3581   -0.7565   -0.6973 S.3     1  LIG1       -0.1403
     25 H          -6.6805   -2.0244   -1.0249 H       1  LIG1        0.1072
     26 C          -4.4908   -3.6690   -0.6525 C.ar    1  LIG1        0.0680
     27 C          -5.4303   -4.4594   -0.0018 C.ar    1  LIG1       -0.0106
     28 C          -5.4952   -5.6969   -0.7220 C.ar    1  LIG1        0.0256
     29 C          -4.6070   -5.6255   -1.7779 C.ar    1  LIG1        0.0157
     30 N          -3.9979   -4.4044   -1.7252 N.ar    1  LIG1       -0.3583
     31 H          -3.3841   -4.0266   -2.4301 H       1  LIG1        0.1654
     32 H          -4.3801   -6.3494   -2.5457 H       1  LIG1        0.0818
     33 C          -6.1841   -4.1112    1.2453 C.3     1  LIG1       -0.0366
     34 H          -5.9287   -4.7889    2.0686 H       1  LIG1        0.0279
     35 H          -7.2658   -4.1948    1.0941 H       1  LIG1        0.0279
     36 H          -5.9606   -3.0911    1.5658 H       1  LIG1        0.0279
     37 S          -6.5861   -7.0672   -0.4169 S.3     1  LIG1       -0.1409
     38 H          -5.9695   -7.5829    0.6710 H       1  LIG1        0.1072
@<TRIPOS>BOND
     1    32    29    1
     2    31    30    1
     3    13    12    1
     4    29    30   ar
     5    29    28   ar
     6    30    26   ar
     7    12     3    1
     8    25    24    1
     9    22    20    1
    10    10     8    1
    11    28    37    1
    12    28    27   ar
    13    24    16    1
    14    26    17    1
    15    26    27   ar
    16    37    38    1
    17    17    16   ar
    18    17    18   ar
    19    16    15   ar
    20     3     4   ar
    21     3     2   ar
    22    18    19    1
    23    18    14   ar
    24    15    14   ar
    25    15    20    1
    26    27    33    1
    27    14     4    1
    28    20    23    1
    29    20    21    1
    30     9     8    1
    31     8     2    1
    32     8    11    1
    33     4     5   ar
    34     2     1   ar
    35    35    33    1
    36    33    36    1
    37    33    34    1
    38     5     1   ar
    39     5     6    1
    40     1     7    1
