@<TRIPOS>MOLECULE
mol_data/opt/b3lyp/geoms/mol2/13ig13ig13ig13ig.out
 50 53 0 0 0
SMALL
GASTEIGER

@<TRIPOS>ATOM
      1 C           0.2657    0.4618    2.3615 C.ar    1  LIG1        0.0062
      2 C           0.7790    0.8868    1.1533 C.ar    1  LIG1       -0.0193
      3 C          -0.1858    0.5285    0.1595 C.ar    1  LIG1        0.0344
      4 C          -1.2561   -0.0969    0.7865 C.ar    1  LIG1        0.0768
      5 N          -0.9423   -0.1473    2.1387 N.ar    1  LIG1       -0.3584
      6 H          -1.6013   -0.4107    2.8541 H       1  LIG1        0.1654
      7 H           0.6785    0.5463    3.3562 H       1  LIG1        0.0810
      8 C           2.0948    1.5655    0.9190 C.3     1  LIG1       -0.0372
      9 H           1.9648    2.5506    0.4550 H       1  LIG1        0.0278
     10 H           2.7390    0.9797    0.2522 H       1  LIG1        0.0278
     11 H           2.6343    1.7104    1.8593 H       1  LIG1        0.0278
     12 S           0.0529    0.8002   -1.5796 S.3     1  LIG1       -0.1403
     13 H          -1.0630    0.1518   -1.9713 H       1  LIG1        0.1072
     14 C          -2.4803   -0.6828    0.2566 C.ar    1  LIG1        0.0685
     15 C          -3.5365   -0.1144   -0.4517 C.ar    1  LIG1       -0.0099
     16 C          -4.4761   -1.1594   -0.6985 C.ar    1  LIG1        0.0351
     17 C          -3.9959   -2.3347   -0.1308 C.ar    1  LIG1        0.0772
     18 N          -2.7739   -2.0199    0.4385 N.ar    1  LIG1       -0.3508
     19 H          -2.1849   -2.6734    0.9306 H       1  LIG1        0.1660
     20 C          -3.6835    1.3247   -0.8445 C.3     1  LIG1       -0.0366
     21 H          -4.6180    1.7471   -0.4564 H       1  LIG1        0.0279
     22 H          -3.7048    1.4512   -1.9339 H       1  LIG1        0.0279
     23 H          -2.8547    1.9208   -0.4559 H       1  LIG1        0.0279
     24 S          -5.9759   -0.9291   -1.6218 S.3     1  LIG1       -0.1403
     25 H          -6.3413   -2.2272   -1.6072 H       1  LIG1        0.1072
     26 C          -4.5329   -3.6895   -0.1136 C.ar    1  LIG1        0.0685
     27 C          -5.7130   -4.1997    0.4218 C.ar    1  LIG1       -0.0099
     28 C          -5.7143   -5.6012    0.1540 C.ar    1  LIG1        0.0351
     29 C          -4.5418   -5.9280   -0.5187 C.ar    1  LIG1        0.0772
     30 N          -3.8398   -4.7450   -0.6732 N.ar    1  LIG1       -0.3508
     31 H          -2.9532   -4.6645   -1.1462 H       1  LIG1        0.1660
     32 C          -6.7618   -3.4386    1.1754 C.3     1  LIG1       -0.0366
     33 H          -6.9165   -3.8622    2.1750 H       1  LIG1        0.0279
     34 H          -7.7319   -3.4659    0.6646 H       1  LIG1        0.0279
     35 H          -6.4755   -2.3908    1.2920 H       1  LIG1        0.0279
     36 S          -7.0446   -6.6843    0.6132 S.3     1  LIG1       -0.1403
     37 H          -6.5476   -7.7751   -0.0053 H       1  LIG1        0.1072
     38 C          -4.0529   -7.1958   -1.0482 C.ar    1  LIG1        0.0680
     39 C          -3.7110   -8.3847   -0.4156 C.ar    1  LIG1       -0.0106
     40 C          -3.2806   -9.2871   -1.4426 C.ar    1  LIG1        0.0256
     41 C          -3.3733   -8.6316   -2.6553 C.ar    1  LIG1        0.0157
     42 N          -3.8308   -7.3686   -2.4102 N.ar    1  LIG1       -0.3583
     43 H          -4.1001   -6.6984   -3.1135 H       1  LIG1        0.1654
     44 H          -3.1509   -8.9798   -3.6525 H       1  LIG1        0.0818
     45 C          -3.7279   -8.6527    1.0584 C.3     1  LIG1       -0.0366
     46 H          -2.7179   -8.8426    1.4409 H       1  LIG1        0.0279
     47 H          -4.3254   -9.5396    1.2952 H       1  LIG1        0.0279
     48 H          -4.1420   -7.8034    1.6065 H       1  LIG1        0.0279
     49 S          -2.8069  -10.9901   -1.2539 S.3     1  LIG1       -0.1409
     50 H          -1.5773  -10.8034   -0.7224 H       1  LIG1        0.1072
@<TRIPOS>BOND
     1    44    41    1
     2    43    42    1
     3    41    42   ar
     4    41    40   ar
     5    42    38   ar
     6    13    12    1
     7    22    20    1
     8    24    25    1
     9    24    16    1
    10    12     3    1
    11    40    49    1
    12    40    39   ar
    13    49    50    1
    14    31    30    1
    15    38    29    1
    16    38    39   ar
    17    20    21    1
    18    20    23    1
    19    20    15    1
    20    16    15   ar
    21    16    17   ar
    22    30    29   ar
    23    30    26   ar
    24    29    28   ar
    25    15    14   ar
    26    39    45    1
    27    17    26    1
    28    17    18   ar
    29    26    27   ar
    30    37    36    1
    31    28    27   ar
    32    28    36    1
    33     3     4   ar
    34     3     2   ar
    35    10     8    1
    36    14    18   ar
    37    14     4    1
    38    27    32    1
    39    18    19    1
    40     9     8    1
    41    34    32    1
    42     4     5   ar
    43     8     2    1
    44     8    11    1
    45    45    47    1
    46    45    46    1
    47    45    48    1
    48     2     1   ar
    49    32    35    1
    50    32    33    1
    51     5     1   ar
    52     5     6    1
    53     1     7    1
