@<TRIPOS>MOLECULE
mol_data/opt/b3lyp/geoms/mol2/13ig13ig-13ig13ig.out
 50 53 0 0 0
SMALL
GASTEIGER

@<TRIPOS>ATOM
      1 C           0.2018    0.3078    2.6956 C.ar    1  LIG1        0.0062
      2 C           0.7407    0.8094    1.5287 C.ar    1  LIG1       -0.0193
      3 C          -0.2008    0.5135    0.4927 C.ar    1  LIG1        0.0344
      4 C          -1.2830   -0.1519    1.0547 C.ar    1  LIG1        0.0768
      5 N          -0.9993   -0.2877    2.4076 N.ar    1  LIG1       -0.3584
      6 H          -1.6733   -0.5966    3.0899 H       1  LIG1        0.1654
      7 H           0.5921    0.3296    3.7027 H       1  LIG1        0.0810
      8 C           2.0594    1.5034    1.3673 C.3     1  LIG1       -0.0372
      9 H           1.9370    2.5161    0.9650 H       1  LIG1        0.0278
     10 H           2.7195    0.9625    0.6785 H       1  LIG1        0.0278
     11 H           2.5780    1.5880    2.3266 H       1  LIG1        0.0278
     12 S           0.0758    0.8953   -1.2198 S.3     1  LIG1       -0.1403
     13 H          -1.0284    0.2703   -1.6769 H       1  LIG1        0.1072
     14 C          -2.4934   -0.7050    0.4614 C.ar    1  LIG1        0.0685
     15 C          -3.5348   -0.0945   -0.2338 C.ar    1  LIG1       -0.0099
     16 C          -4.4658   -1.1231   -0.5668 C.ar    1  LIG1        0.0351
     17 C          -3.9955   -2.3311   -0.0630 C.ar    1  LIG1        0.0772
     18 N          -2.7875   -2.0512    0.5526 N.ar    1  LIG1       -0.3508
     19 H          -2.2081   -2.7335    1.0159 H       1  LIG1        0.1660
     20 C          -3.6768    1.3662   -0.5387 C.3     1  LIG1       -0.0366
     21 H          -4.6213    1.7620   -0.1467 H       1  LIG1        0.0279
     22 H          -3.6732    1.5610   -1.6181 H       1  LIG1        0.0279
     23 H          -2.8590    1.9379   -0.0942 H       1  LIG1        0.0279
     24 S          -5.9450   -0.8373   -1.5077 S.3     1  LIG1       -0.1403
     25 H          -6.3078   -2.1341   -1.5817 H       1  LIG1        0.1072
     26 C          -4.5293   -3.6850   -0.1429 C.ar    1  LIG1        0.0685
     27 C          -5.7197   -4.2292    0.3330 C.ar    1  LIG1       -0.0099
     28 C          -5.7115   -5.6110   -0.0223 C.ar    1  LIG1        0.0351
     29 C          -4.5236   -5.8935   -0.6880 C.ar    1  LIG1        0.0772
     30 N          -3.8213   -4.7024   -0.7521 N.ar    1  LIG1       -0.3508
     31 H          -2.9246   -4.5914   -1.1990 H       1  LIG1        0.1660
     32 C          -6.7868   -3.5180    1.1094 C.3     1  LIG1       -0.0366
     33 H          -6.9628   -4.0040    2.0765 H       1  LIG1        0.0279
     34 H          -7.7452   -3.5140    0.5763 H       1  LIG1        0.0279
     35 H          -6.5056   -2.4794    1.2982 H       1  LIG1        0.0279
     36 S          -7.0489   -6.7224    0.3382 S.3     1  LIG1       -0.1403
     37 H          -6.5355   -7.7716   -0.3363 H       1  LIG1        0.1072
     38 C          -4.0199   -7.1251   -1.2849 C.ar    1  LIG1        0.0680
     39 C          -3.6887   -8.3508   -0.7206 C.ar    1  LIG1       -0.0106
     40 C          -3.2335   -9.1865   -1.7923 C.ar    1  LIG1        0.0256
     41 C          -3.3013   -8.4565   -2.9634 C.ar    1  LIG1        0.0157
     42 N          -3.7675   -7.2119   -2.6498 N.ar    1  LIG1       -0.3583
     43 H          -4.0231   -6.4993   -3.3155 H       1  LIG1        0.1654
     44 H          -3.0563   -8.7412   -3.9753 H       1  LIG1        0.0818
     45 C          -3.7373   -8.7106    0.7330 C.3     1  LIG1       -0.0366
     46 H          -2.7355   -8.9231    1.1251 H       1  LIG1        0.0279
     47 H          -4.3376   -9.6113    0.9006 H       1  LIG1        0.0279
     48 H          -4.1655   -7.8979    1.3239 H       1  LIG1        0.0279
     49 S          -2.7593  -10.8974   -1.7002 S.3     1  LIG1       -0.1409
     50 H          -1.5419  -10.7426   -1.1315 H       1  LIG1        0.1072
@<TRIPOS>BOND
     1    44    41    1
     2    43    42    1
     3    41    42   ar
     4    41    40   ar
     5    42    38   ar
     6    40    49    1
     7    40    39   ar
     8    49    50    1
     9    13    12    1
    10    22    20    1
    11    25    24    1
    12    24    16    1
    13    38    39   ar
    14    38    29    1
    15    12     3    1
    16    31    30    1
    17    30    29   ar
    18    30    26   ar
    19    39    45    1
    20    29    28   ar
    21    16    15   ar
    22    16    17   ar
    23    20    15    1
    24    20    21    1
    25    20    23    1
    26    37    36    1
    27    15    14   ar
    28    26    17    1
    29    26    27   ar
    30    17    18   ar
    31    28    27   ar
    32    28    36    1
    33    27    32    1
    34    14    18   ar
    35    14     4    1
    36     3     4   ar
    37     3     2   ar
    38    18    19    1
    39    34    32    1
    40    10     8    1
    41    45    47    1
    42    45    46    1
    43    45    48    1
    44     9     8    1
    45     4     5   ar
    46    32    35    1
    47    32    33    1
    48     8     2    1
    49     8    11    1
    50     2     1   ar
    51     5     1   ar
    52     5     6    1
    53     1     7    1
