@<TRIPOS>MOLECULE
mol_data/opt/b3lyp/geoms/mol2/13ig13ig.out
 26 27 0 0 0
SMALL
GASTEIGER

@<TRIPOS>ATOM
      1 C           1.0492   -0.2092    0.8336 C.ar    1  LIG1        0.0062
      2 C           0.8426    0.9456    0.1074 C.ar    1  LIG1       -0.0193
      3 C          -0.4965    0.8718   -0.3914 C.ar    1  LIG1        0.0344
      4 C          -1.0678   -0.3160    0.0474 C.ar    1  LIG1        0.0767
      5 N          -0.0875   -0.9743    0.7787 N.ar    1  LIG1       -0.3584
      6 H          -0.2655   -1.7938    1.3370 H       1  LIG1        0.1654
      7 H           1.9241   -0.5387    1.3749 H       1  LIG1        0.0810
      8 C           1.8281    2.0483   -0.1363 C.3     1  LIG1       -0.0372
      9 H           1.4639    3.0091    0.2469 H       1  LIG1        0.0278
     10 H           2.0255    2.1847   -1.2064 H       1  LIG1        0.0278
     11 H           2.7829    1.8366    0.3535 H       1  LIG1        0.0278
     12 S          -1.2154    2.1022   -1.4516 S.3     1  LIG1       -0.1403
     13 H          -2.3403    1.4084   -1.7204 H       1  LIG1        0.1072
     14 C          -2.3811   -0.9034   -0.1850 C.ar    1  LIG1        0.0680
     15 C          -3.6594   -0.4518    0.1200 C.ar    1  LIG1       -0.0106
     16 C          -4.5709   -1.4575   -0.3412 C.ar    1  LIG1        0.0256
     17 C          -3.8325   -2.4796   -0.9059 C.ar    1  LIG1        0.0157
     18 N          -2.5128   -2.1432   -0.8010 N.ar    1  LIG1       -0.3583
     19 H          -1.7456   -2.6431   -1.2224 H       1  LIG1        0.1654
     20 H          -4.1575   -3.4003   -1.3661 H       1  LIG1        0.0818
     21 C          -4.0134    0.8091    0.8476 C.3     1  LIG1       -0.0366
     22 H          -4.5458    0.5936    1.7816 H       1  LIG1        0.0279
     23 H          -4.6742    1.4460    0.2492 H       1  LIG1        0.0279
     24 H          -3.1169    1.3825    1.0937 H       1  LIG1        0.0279
     25 S          -6.3476   -1.4006   -0.3104 S.3     1  LIG1       -0.1409
     26 H          -6.5390   -1.6380    1.0075 H       1  LIG1        0.1072
@<TRIPOS>BOND
     1    13    12    1
     2    12     3    1
     3    20    17    1
     4    19    18    1
     5    10     8    1
     6    17    18   ar
     7    17    16   ar
     8    18    14   ar
     9     3     4   ar
    10     3     2   ar
    11    16    25    1
    12    16    15   ar
    13    25    26    1
    14    14     4    1
    15    14    15   ar
    16     8     2    1
    17     8     9    1
    18     8    11    1
    19     4     5   ar
    20     2     1   ar
    21    15    21    1
    22    23    21    1
    23     5     1   ar
    24     5     6    1
    25     1     7    1
    26    21    24    1
    27    21    22    1
