@<TRIPOS>MOLECULE
mol_data/opt/b3lyp/geoms/mol2/13ig13ig13ig.out
 38 40 0 0 0
SMALL
GASTEIGER

@<TRIPOS>ATOM
      1 C           0.7932    0.0124    1.5422 C.ar    1  LIG1        0.0062
      2 C           0.8832    0.8736    0.4683 C.ar    1  LIG1       -0.0193
      3 C          -0.3452    0.7438   -0.2542 C.ar    1  LIG1        0.0344
      4 C          -1.1474   -0.1833    0.3992 C.ar    1  LIG1        0.0768
      5 N          -0.4131   -0.6380    1.4872 N.ar    1  LIG1       -0.3584
      6 H          -0.8045   -1.1994    2.2267 H       1  LIG1        0.1654
      7 H           1.5033   -0.1846    2.3322 H       1  LIG1        0.0810
      8 C           2.0428    1.7525    0.1089 C.3     1  LIG1       -0.0372
      9 H           1.7566    2.8109    0.0869 H       1  LIG1        0.0278
     10 H           2.4431    1.5083   -0.8825 H       1  LIG1        0.0278
     11 H           2.8563    1.6440    0.8319 H       1  LIG1        0.0278
     12 S          -0.6804    1.6004   -1.7740 S.3     1  LIG1       -0.1403
     13 H          -1.8358    0.9577   -2.0400 H       1  LIG1        0.1072
     14 C          -2.4671   -0.7142    0.0871 C.ar    1  LIG1        0.0685
     15 C          -3.6993   -0.0814   -0.0607 C.ar    1  LIG1       -0.0099
     16 C          -4.6533   -1.1016   -0.3528 C.ar    1  LIG1        0.0351
     17 C          -4.0039   -2.3312   -0.3614 C.ar    1  LIG1        0.0772
     18 N          -2.6708   -2.0678   -0.0953 N.ar    1  LIG1       -0.3508
     19 H          -1.9462   -2.7671   -0.0531 H       1  LIG1        0.1660
     20 C          -3.9847    1.3810    0.1029 C.3     1  LIG1       -0.0366
     21 H          -4.7670    1.5489    0.8527 H       1  LIG1        0.0279
     22 H          -4.3354    1.8368   -0.8310 H       1  LIG1        0.0279
     23 H          -3.0890    1.9194    0.4207 H       1  LIG1        0.0279
     24 S          -6.3704   -0.7744   -0.6675 S.3     1  LIG1       -0.1403
     25 H          -6.6916   -2.0453   -0.9847 H       1  LIG1        0.1072
     26 C          -4.4919   -3.6798   -0.6249 C.ar    1  LIG1        0.0680
     27 C          -5.4202   -4.4680    0.0442 C.ar    1  LIG1       -0.0106
     28 C          -5.4899   -5.7117   -0.6650 C.ar    1  LIG1        0.0256
     29 C          -4.6153   -5.6459   -1.7326 C.ar    1  LIG1        0.0157
     30 N          -4.0101   -4.4223   -1.6978 N.ar    1  LIG1       -0.3583
     31 H          -3.4063   -4.0484   -2.4133 H       1  LIG1        0.1654
     32 H          -4.3958   -6.3753   -2.4974 H       1  LIG1        0.0818
     33 C          -6.1592   -4.1123    1.2980 C.3     1  LIG1       -0.0366
     34 H          -5.8877   -4.7797    2.1246 H       1  LIG1        0.0279
     35 H          -7.2422   -4.2051    1.1625 H       1  LIG1        0.0279
     36 H          -5.9386   -3.0875    1.6051 H       1  LIG1        0.0279
     37 S          -6.5718   -7.0831   -0.3348 S.3     1  LIG1       -0.1409
     38 H          -5.9401   -7.5872    0.7499 H       1  LIG1        0.1072
@<TRIPOS>BOND
     1    32    29    1
     2    31    30    1
     3    13    12    1
     4    12     3    1
     5    29    30   ar
     6    29    28   ar
     7    30    26   ar
     8    25    24    1
     9    10     8    1
    10    22    20    1
    11    24    16    1
    12    28    37    1
    13    28    27   ar
    14    26    17    1
    15    26    27   ar
    16    17    16   ar
    17    17    18   ar
    18    16    15   ar
    19    37    38    1
    20     3     4   ar
    21     3     2   ar
    22    18    19    1
    23    18    14   ar
    24    15    14   ar
    25    15    20    1
    26    27    33    1
    27     9     8    1
    28    14     4    1
    29    20    23    1
    30    20    21    1
    31     8     2    1
    32     8    11    1
    33     4     5   ar
    34     2     1   ar
    35    35    33    1
    36    33    36    1
    37    33    34    1
    38     5     1   ar
    39     5     6    1
    40     1     7    1
