@<TRIPOS>MOLECULE
mol_data/opt/b3lyp/geoms/mol2/13ig13ig13ig-13ig-.out
 50 53 0 0 0
SMALL
GASTEIGER

@<TRIPOS>ATOM
      1 C           0.2743    0.4513    2.3540 C.ar    1  LIG1        0.0062
      2 C           0.7815    0.8843    1.1461 C.ar    1  LIG1       -0.0193
      3 C          -0.1877    0.5311    0.1547 C.ar    1  LIG1        0.0344
      4 C          -1.2544   -0.0992    0.7828 C.ar    1  LIG1        0.0768
      5 N          -0.9342   -0.1578    2.1331 N.ar    1  LIG1       -0.3584
      6 H          -1.5898   -0.4255    2.8500 H       1  LIG1        0.1654
      7 H           0.6916    0.5301    3.3473 H       1  LIG1        0.0810
      8 C           2.0954    1.5657    0.9098 C.3     1  LIG1       -0.0372
      9 H           1.9624    2.5538    0.4533 H       1  LIG1        0.0278
     10 H           2.7366    0.9850    0.2356 H       1  LIG1        0.0278
     11 H           2.6397    1.7044    1.8482 H       1  LIG1        0.0278
     12 S           0.0427    0.8135   -1.5839 S.3     1  LIG1       -0.1403
     13 H          -1.0722    0.1630   -1.9746 H       1  LIG1        0.1072
     14 C          -2.4804   -0.6836    0.2552 C.ar    1  LIG1        0.0685
     15 C          -3.5400   -0.1128   -0.4461 C.ar    1  LIG1       -0.0099
     16 C          -4.4798   -1.1573   -0.6934 C.ar    1  LIG1        0.0351
     17 C          -3.9964   -2.3348   -0.1329 C.ar    1  LIG1        0.0772
     18 N          -2.7722   -2.0216    0.4325 N.ar    1  LIG1       -0.3508
     19 H          -2.1807   -2.6768    0.9193 H       1  LIG1        0.1660
     20 C          -3.6899    1.3279   -0.8317 C.3     1  LIG1       -0.0366
     21 H          -4.6238    1.7473   -0.4390 H       1  LIG1        0.0279
     22 H          -3.7143    1.4596   -1.9203 H       1  LIG1        0.0279
     23 H          -2.8607    1.9233   -0.4425 H       1  LIG1        0.0279
     24 S          -5.9838   -0.9241   -1.6092 S.3     1  LIG1       -0.1403
     25 H          -6.3494   -2.2222   -1.5966 H       1  LIG1        0.1072
     26 C          -4.5325   -3.6900   -0.1195 C.ar    1  LIG1        0.0685
     27 C          -5.7095   -4.2035    0.4198 C.ar    1  LIG1       -0.0099
     28 C          -5.7116   -5.6036    0.1448 C.ar    1  LIG1        0.0351
     29 C          -4.5427   -5.9264   -0.5359 C.ar    1  LIG1        0.0772
     30 N          -3.8421   -4.7423   -0.6884 N.ar    1  LIG1       -0.3508
     31 H          -2.9576   -4.6593   -1.1646 H       1  LIG1        0.1660
     32 C          -6.7546   -3.4466    1.1826 C.3     1  LIG1       -0.0366
     33 H          -6.9028   -3.8742    2.1815 H       1  LIG1        0.0279
     34 H          -7.7278   -3.4733    0.6776 H       1  LIG1        0.0279
     35 H          -6.4690   -2.3989    1.3015 H       1  LIG1        0.0279
     36 S          -7.0391   -6.6897    0.6056 S.3     1  LIG1       -0.1403
     37 H          -6.5457   -7.7767   -0.0224 H       1  LIG1        0.1072
     38 C          -4.0560   -7.1913   -1.0745 C.ar    1  LIG1        0.0680
     39 C          -3.7105   -8.3834   -0.4501 C.ar    1  LIG1       -0.0106
     40 C          -3.2847   -9.2800   -1.4840 C.ar    1  LIG1        0.0256
     41 C          -3.3836   -8.6180   -2.6927 C.ar    1  LIG1        0.0157
     42 N          -3.8404   -7.3565   -2.4385 N.ar    1  LIG1       -0.3583
     43 H          -4.1135   -6.6826   -3.1368 H       1  LIG1        0.1654
     44 H          -3.1660   -8.9606   -3.6929 H       1  LIG1        0.0818
     45 C          -3.7201   -8.6594    1.0224 C.3     1  LIG1       -0.0366
     46 H          -2.7082   -8.8514    1.3989 H       1  LIG1        0.0279
     47 H          -4.3163   -9.5477    1.2574 H       1  LIG1        0.0279
     48 H          -4.1315   -7.8133    1.5773 H       1  LIG1        0.0279
     49 S          -2.8093  -10.9837   -1.3069 S.3     1  LIG1       -0.1409
     50 H          -1.5772  -10.7992   -0.7805 H       1  LIG1        0.1072
@<TRIPOS>BOND
     1    44    41    1
     2    43    42    1
     3    41    42   ar
     4    41    40   ar
     5    42    38   ar
     6    13    12    1
     7    22    20    1
     8    24    25    1
     9    24    16    1
    10    12     3    1
    11    40    49    1
    12    40    39   ar
    13    49    50    1
    14    31    30    1
    15    38    29    1
    16    38    39   ar
    17    20    15    1
    18    20    23    1
    19    20    21    1
    20    16    15   ar
    21    16    17   ar
    22    30    29   ar
    23    30    26   ar
    24    29    28   ar
    25    39    45    1
    26    15    14   ar
    27    17    26    1
    28    17    18   ar
    29    26    27   ar
    30    37    36    1
    31    28    27   ar
    32    28    36    1
    33     3     4   ar
    34     3     2   ar
    35    10     8    1
    36    14    18   ar
    37    14     4    1
    38    27    32    1
    39    18    19    1
    40     9     8    1
    41    34    32    1
    42     4     5   ar
    43     8     2    1
    44     8    11    1
    45    45    47    1
    46    45    46    1
    47    45    48    1
    48     2     1   ar
    49    32    35    1
    50    32    33    1
    51     5     1   ar
    52     5     6    1
    53     1     7    1
