@<TRIPOS>MOLECULE
mol_data/opt/b3lyp/geoms/mol2/13ig13ig-13ig-13ig-.out
 50 53 0 0 0
SMALL
GASTEIGER

@<TRIPOS>ATOM
      1 C           0.2715    0.4725    2.3506 C.ar    1  LIG1        0.0062
      2 C           0.7814    0.8930    1.1395 C.ar    1  LIG1       -0.0193
      3 C          -0.1859    0.5306    0.1496 C.ar    1  LIG1        0.0344
      4 C          -1.2545   -0.0925    0.7818 C.ar    1  LIG1        0.0768
      5 N          -0.9370   -0.1380    2.1333 N.ar    1  LIG1       -0.3584
      6 H          -1.5943   -0.3977    2.8515 H       1  LIG1        0.1654
      7 H           0.6869    0.5608    3.3439 H       1  LIG1        0.0810
      8 C           2.0964    1.5711    0.8990 C.3     1  LIG1       -0.0372
      9 H           1.9650    2.5555    0.4341 H       1  LIG1        0.0278
     10 H           2.7378    0.9841    0.2306 H       1  LIG1        0.0278
     11 H           2.6397    1.7171    1.8370 H       1  LIG1        0.0278
     12 S           0.0481    0.7956   -1.5913 S.3     1  LIG1       -0.1403
     13 H          -1.0666    0.1423   -1.9777 H       1  LIG1        0.1072
     14 C          -2.4797   -0.6813    0.2575 C.ar    1  LIG1        0.0685
     15 C          -3.5376   -0.1167   -0.4514 C.ar    1  LIG1       -0.0099
     16 C          -4.4775   -1.1631   -0.6906 C.ar    1  LIG1        0.0351
     17 C          -3.9958   -2.3354   -0.1179 C.ar    1  LIG1        0.0772
     18 N          -2.7726   -2.0175    0.4469 N.ar    1  LIG1       -0.3508
     19 H          -2.1825   -2.6682    0.9413 H       1  LIG1        0.1660
     20 C          -3.6858    1.3203   -0.8512 C.3     1  LIG1       -0.0366
     21 H          -4.6195    1.7445   -0.4629 H       1  LIG1        0.0279
     22 H          -3.7098    1.4413   -1.9411 H       1  LIG1        0.0279
     23 H          -2.8562    1.9186   -0.4676 H       1  LIG1        0.0279
     24 S          -5.9795   -0.9378   -1.6117 S.3     1  LIG1       -0.1403
     25 H          -6.3452   -2.2358   -1.5885 H       1  LIG1        0.1072
     26 C          -4.5327   -3.6901   -0.0926 C.ar    1  LIG1        0.0685
     27 C          -5.7112   -4.1978    0.4487 C.ar    1  LIG1       -0.0099
     28 C          -5.7132   -5.6005    0.1878 C.ar    1  LIG1        0.0351
     29 C          -4.5427   -5.9306   -0.4867 C.ar    1  LIG1        0.0772
     30 N          -3.8413   -4.7483   -0.6492 N.ar    1  LIG1       -0.3508
     31 H          -2.9554   -4.6703   -1.1240 H       1  LIG1        0.1660
     32 C          -6.7579   -3.4329    1.2014 C.3     1  LIG1       -0.0366
     33 H          -6.9109   -3.8524    2.2029 H       1  LIG1        0.0279
     34 H          -7.7292   -3.4616    0.6926 H       1  LIG1        0.0279
     35 H          -6.4707   -2.3849    1.3131 H       1  LIG1        0.0279
     36 S          -7.0425   -6.6814    0.6557 S.3     1  LIG1       -0.1403
     37 H          -6.5472   -7.7752    0.0410 H       1  LIG1        0.1072
     38 C          -4.0552   -7.2009   -1.0114 C.ar    1  LIG1        0.0680
     39 C          -3.7121   -8.3870   -0.3742 C.ar    1  LIG1       -0.0106
     40 C          -3.2845   -9.2943   -1.3981 C.ar    1  LIG1        0.0256
     41 C          -3.3798   -8.6443   -2.6136 C.ar    1  LIG1        0.0157
     42 N          -3.8364   -7.3801   -2.3732 N.ar    1  LIG1       -0.3583
     43 H          -4.1069   -6.7128   -3.0788 H       1  LIG1        0.1654
     44 H          -3.1600   -8.9971   -3.6097 H       1  LIG1        0.0818
     45 C          -3.7256   -8.6483    1.1010 C.3     1  LIG1       -0.0366
     46 H          -2.7149   -8.8383    1.4816 H       1  LIG1        0.0279
     47 H          -4.3240   -9.5330    1.3435 H       1  LIG1        0.0279
     48 H          -4.1366   -7.7958    1.6463 H       1  LIG1        0.0279
     49 S          -2.8109  -10.9964   -1.2029 S.3     1  LIG1       -0.1409
     50 H          -1.5798  -10.8078   -0.6755 H       1  LIG1        0.1072
@<TRIPOS>BOND
     1    44    41    1
     2    43    42    1
     3    41    42   ar
     4    41    40   ar
     5    42    38   ar
     6    13    12    1
     7    22    20    1
     8    24    25    1
     9    24    16    1
    10    12     3    1
    11    40    49    1
    12    40    39   ar
    13    49    50    1
    14    31    30    1
    15    38    29    1
    16    38    39   ar
    17    20    23    1
    18    20    21    1
    19    20    15    1
    20    16    15   ar
    21    16    17   ar
    22    30    29   ar
    23    30    26   ar
    24    29    28   ar
    25    15    14   ar
    26    39    45    1
    27    17    26    1
    28    17    18   ar
    29    26    27   ar
    30    37    36    1
    31     3     4   ar
    32     3     2   ar
    33    28    27   ar
    34    28    36    1
    35    10     8    1
    36    14    18   ar
    37    14     4    1
    38     9     8    1
    39    18    19    1
    40    27    32    1
    41    34    32    1
    42     4     5   ar
    43     8     2    1
    44     8    11    1
    45    45    47    1
    46    45    46    1
    47    45    48    1
    48     2     1   ar
    49    32    35    1
    50    32    33    1
    51     5     1   ar
    52     5     6    1
    53     1     7    1
