@<TRIPOS>MOLECULE
mol_data/opt/b3lyp/geoms/mol2/13ig13ig-13ig-.out
 38 40 0 0 0
SMALL
GASTEIGER

@<TRIPOS>ATOM
      1 C           0.7896    0.0202    1.5556 C.ar    1  LIG1        0.0062
      2 C           0.8804    0.8782    0.4791 C.ar    1  LIG1       -0.0193
      3 C          -0.3470    0.7455   -0.2445 C.ar    1  LIG1        0.0344
      4 C          -1.1495   -0.1800    0.4108 C.ar    1  LIG1        0.0768
      5 N          -0.4163   -0.6311    1.5010 N.ar    1  LIG1       -0.3584
      6 H          -0.8085   -1.1901    2.2419 H       1  LIG1        0.1654
      7 H           1.4987   -0.1739    2.3471 H       1  LIG1        0.0810
      8 C           2.0401    1.7566    0.1185 C.3     1  LIG1       -0.0372
      9 H           1.7545    2.8152    0.0975 H       1  LIG1        0.0278
     10 H           2.4386    1.5127   -0.8737 H       1  LIG1        0.0278
     11 H           2.8546    1.6472    0.8402 H       1  LIG1        0.0278
     12 S          -0.6808    1.5973   -1.7673 S.3     1  LIG1       -0.1403
     13 H          -1.8336    0.9506   -2.0348 H       1  LIG1        0.1072
     14 C          -2.4683   -0.7132    0.0985 C.ar    1  LIG1        0.0685
     15 C          -3.7008   -0.0820   -0.0541 C.ar    1  LIG1       -0.0099
     16 C          -4.6534   -1.1042   -0.3435 C.ar    1  LIG1        0.0351
     17 C          -4.0030   -2.3333   -0.3458 C.ar    1  LIG1        0.0772
     18 N          -2.6705   -2.0677   -0.0787 N.ar    1  LIG1       -0.3508
     19 H          -1.9456   -2.7663   -0.0314 H       1  LIG1        0.1660
     20 C          -3.9876    1.3809    0.1029 C.3     1  LIG1       -0.0366
     21 H          -4.7742    1.5510    0.8475 H       1  LIG1        0.0279
     22 H          -4.3328    1.8336   -0.8346 H       1  LIG1        0.0279
     23 H          -3.0939    1.9206    0.4240 H       1  LIG1        0.0279
     24 S          -6.3700   -0.7798   -0.6630 S.3     1  LIG1       -0.1403
     25 H          -6.6907   -2.0532   -0.9705 H       1  LIG1        0.1072
     26 C          -4.4893   -3.6835   -0.6042 C.ar    1  LIG1        0.0680
     27 C          -5.4175   -4.4699    0.0671 C.ar    1  LIG1       -0.0106
     28 C          -5.4851   -5.7166   -0.6368 C.ar    1  LIG1        0.0256
     29 C          -4.6093   -5.6544   -1.7037 C.ar    1  LIG1        0.0157
     30 N          -4.0055   -4.4300   -1.6734 N.ar    1  LIG1       -0.3583
     31 H          -3.4010   -4.0585   -2.3896 H       1  LIG1        0.1654
     32 H          -4.3881   -6.3868   -2.4651 H       1  LIG1        0.0818
     33 C          -6.1588   -4.1093    1.3183 C.3     1  LIG1       -0.0366
     34 H          -5.8924   -4.7767    2.1466 H       1  LIG1        0.0279
     35 H          -7.2418   -4.1977    1.1800 H       1  LIG1        0.0279
     36 H          -5.9348   -3.0850    1.6245 H       1  LIG1        0.0279
     37 S          -6.5657   -7.0879   -0.3019 S.3     1  LIG1       -0.1409
     38 H          -5.9341   -7.5871    0.7851 H       1  LIG1        0.1072
@<TRIPOS>BOND
     1    32    29    1
     2    31    30    1
     3    13    12    1
     4    12     3    1
     5    29    30   ar
     6    29    28   ar
     7    30    26   ar
     8    25    24    1
     9    10     8    1
    10    22    20    1
    11    24    16    1
    12    28    37    1
    13    28    27   ar
    14    26    17    1
    15    26    27   ar
    16    17    16   ar
    17    17    18   ar
    18    16    15   ar
    19    37    38    1
    20     3     4   ar
    21     3     2   ar
    22    18    19    1
    23    18    14   ar
    24    15    14   ar
    25    15    20    1
    26    27    33    1
    27     9     8    1
    28    14     4    1
    29    20    23    1
    30    20    21    1
    31     8     2    1
    32     8    11    1
    33     4     5   ar
    34     2     1   ar
    35    35    33    1
    36    33    36    1
    37    33    34    1
    38     5     1   ar
    39     5     6    1
    40     1     7    1
