@<TRIPOS>MOLECULE
mol_data/opt/b3lyp/geoms/mol2/13ig13ig13ig-.out
 38 40 0 0 0
SMALL
GASTEIGER

@<TRIPOS>ATOM
      1 C           0.7917   -0.0162    1.5752 C.ar    1  LIG1        0.0062
      2 C           0.8817    0.8656    0.5182 C.ar    1  LIG1       -0.0193
      3 C          -0.3465    0.7496   -0.2069 C.ar    1  LIG1        0.0344
      4 C          -1.1486   -0.1901    0.4283 C.ar    1  LIG1        0.0768
      5 N          -0.4144   -0.6657    1.5073 N.ar    1  LIG1       -0.3584
      6 H          -0.8060   -1.2413    2.2358 H       1  LIG1        0.1654
      7 H           1.5016   -0.2283    2.3614 H       1  LIG1        0.0810
      8 C           2.0412    1.7517    0.1762 C.3     1  LIG1       -0.0372
      9 H           1.7558    2.8105    0.1790 H       1  LIG1        0.0278
     10 H           2.4389    1.5297   -0.8214 H       1  LIG1        0.0278
     11 H           2.8562    1.6261    0.8946 H       1  LIG1        0.0278
     12 S          -0.6817    1.6355   -1.7097 S.3     1  LIG1       -0.1403
     13 H          -1.8355    0.9960   -1.9900 H       1  LIG1        0.1072
     14 C          -2.4680   -0.7157    0.1055 C.ar    1  LIG1        0.0685
     15 C          -3.7005   -0.0808   -0.0306 C.ar    1  LIG1       -0.0099
     16 C          -4.6538   -1.0958   -0.3422 C.ar    1  LIG1        0.0351
     17 C          -4.0037   -2.3247   -0.3739 C.ar    1  LIG1        0.0772
     18 N          -2.6709   -2.0657   -0.1021 N.ar    1  LIG1       -0.3508
     19 H          -1.9457   -2.7651   -0.0741 H       1  LIG1        0.1660
     20 C          -3.9867    1.3780    0.1606 C.3     1  LIG1       -0.0366
     21 H          -4.7727    1.5310    0.9097 H       1  LIG1        0.0279
     22 H          -4.3326    1.8527   -0.7657 H       1  LIG1        0.0279
     23 H          -3.0925    1.9099    0.4935 H       1  LIG1        0.0279
     24 S          -6.3708   -0.7639   -0.6513 S.3     1  LIG1       -0.1403
     25 H          -6.6931   -2.0307   -0.9836 H       1  LIG1        0.1072
     26 C          -4.4915   -3.6685   -0.6615 C.ar    1  LIG1        0.0680
     27 C          -5.4173   -4.4698   -0.0046 C.ar    1  LIG1       -0.0106
     28 C          -5.4883   -5.7000   -0.7366 C.ar    1  LIG1        0.0256
     29 C          -4.6171   -5.6136   -1.8055 C.ar    1  LIG1        0.0157
     30 N          -4.0125   -4.3904   -1.7496 N.ar    1  LIG1       -0.3583
     31 H          -3.4109   -4.0028   -2.4596 H       1  LIG1        0.1654
     32 H          -4.3993   -6.3284   -2.5845 H       1  LIG1        0.0818
     33 C          -6.1531   -4.1376    1.2575 C.3     1  LIG1       -0.0366
     34 H          -5.8854   -4.8252    2.0686 H       1  LIG1        0.0279
     35 H          -7.2369   -4.2201    1.1212 H       1  LIG1        0.0279
     36 H          -5.9256   -3.1214    1.5872 H       1  LIG1        0.0279
     37 S          -6.5684   -7.0783   -0.4287 S.3     1  LIG1       -0.1409
     38 H          -5.9318   -7.6032    0.6432 H       1  LIG1        0.1072
@<TRIPOS>BOND
     1    32    29    1
     2    31    30    1
     3    13    12    1
     4    29    30   ar
     5    29    28   ar
     6    30    26   ar
     7    12     3    1
     8    25    24    1
     9    10     8    1
    10    22    20    1
    11    28    37    1
    12    28    27   ar
    13    26    17    1
    14    26    27   ar
    15    24    16    1
    16    37    38    1
    17    17    16   ar
    18    17    18   ar
    19    16    15   ar
    20     3     4   ar
    21     3     2   ar
    22    18    19    1
    23    18    14   ar
    24    15    14   ar
    25    15    20    1
    26    27    33    1
    27    14     4    1
    28    20    23    1
    29    20    21    1
    30     8     9    1
    31     8     2    1
    32     8    11    1
    33     4     5   ar
    34     2     1   ar
    35    35    33    1
    36    33    36    1
    37    33    34    1
    38     5     1   ar
    39     5     6    1
    40     1     7    1
