@<TRIPOS>MOLECULE
mol_data/opt/b3lyp/geoms/mol2/13ig13ig-13ig-13ig.out
 50 53 0 0 0
SMALL
GASTEIGER

@<TRIPOS>ATOM
      1 C           0.2548    0.2906    2.6458 C.ar    1  LIG1        0.0062
      2 C           0.7783    0.7920    1.4718 C.ar    1  LIG1       -0.0193
      3 C          -0.1795    0.5014    0.4495 C.ar    1  LIG1        0.0344
      4 C          -1.2558   -0.1609    1.0263 C.ar    1  LIG1        0.0768
      5 N          -0.9526   -0.3000    2.3747 N.ar    1  LIG1       -0.3584
      6 H          -1.6177   -0.6073    3.0664 H       1  LIG1        0.1654
      7 H           0.6601    0.3091    3.6470 H       1  LIG1        0.0810
      8 C           2.0971    1.4812    1.2921 C.3     1  LIG1       -0.0372
      9 H           1.9727    2.4947    0.8921 H       1  LIG1        0.0278
     10 H           2.7453    0.9385    0.5935 H       1  LIG1        0.0278
     11 H           2.6296    1.5634    2.2439 H       1  LIG1        0.0278
     12 S           0.0732    0.8849   -1.2665 S.3     1  LIG1       -0.1403
     13 H          -1.0411    0.2665   -1.7079 H       1  LIG1        0.1072
     14 C          -2.4770   -0.7082    0.4501 C.ar    1  LIG1        0.0685
     15 C          -3.5266   -0.0923   -0.2278 C.ar    1  LIG1       -0.0099
     16 C          -4.4662   -1.1168   -0.5491 C.ar    1  LIG1        0.0351
     17 C          -3.9927   -2.3277   -0.0553 C.ar    1  LIG1        0.0772
     18 N          -2.7746   -2.0535    0.5426 N.ar    1  LIG1       -0.3508
     19 H          -2.1906   -2.7391    0.9953 H       1  LIG1        0.1660
     20 C          -3.6677    1.3695   -0.5274 C.3     1  LIG1       -0.0366
     21 H          -4.6043    1.7682   -0.1196 H       1  LIG1        0.0279
     22 H          -3.6805    1.5666   -1.6063 H       1  LIG1        0.0279
     23 H          -2.8407    1.9371   -0.0947 H       1  LIG1        0.0279
     24 S          -5.9585   -0.8234   -1.4667 S.3     1  LIG1       -0.1403
     25 H          -6.3264   -2.1189   -1.5394 H       1  LIG1        0.1072
     26 C          -4.5326   -3.6794   -0.1302 C.ar    1  LIG1        0.0685
     27 C          -5.7177   -4.2204    0.3625 C.ar    1  LIG1       -0.0099
     28 C          -5.7199   -5.6015    0.0038 C.ar    1  LIG1        0.0351
     29 C          -4.5433   -5.8867   -0.6805 C.ar    1  LIG1        0.0772
     30 N          -3.8378   -4.6979   -0.7526 N.ar    1  LIG1       -0.3508
     31 H          -2.9473   -4.5892   -1.2125 H       1  LIG1        0.1660
     32 C          -6.7703   -3.5072    1.1564 C.3     1  LIG1       -0.0366
     33 H          -6.9335   -3.9948    2.1250 H       1  LIG1        0.0279
     34 H          -7.7366   -3.4984    0.6378 H       1  LIG1        0.0279
     35 H          -6.4825   -2.4701    1.3433 H       1  LIG1        0.0279
     36 S          -7.0558   -6.7088    0.3819 S.3     1  LIG1       -0.1403
     37 H          -6.5565   -7.7582   -0.3030 H       1  LIG1        0.1072
     38 C          -4.0532   -7.1185   -1.2879 C.ar    1  LIG1        0.0680
     39 C          -3.7184   -8.3470   -0.7318 C.ar    1  LIG1       -0.0106
     40 C          -3.2822   -9.1816   -1.8123 C.ar    1  LIG1        0.0256
     41 C          -3.3645   -8.4481   -2.9803 C.ar    1  LIG1        0.0157
     42 N          -3.8212   -7.2027   -2.6567 N.ar    1  LIG1       -0.3583
     43 H          -4.0841   -6.4874   -3.3166 H       1  LIG1        0.1654
     44 H          -3.1354   -8.7311   -3.9965 H       1  LIG1        0.0818
     45 C          -3.7469   -8.7105    0.7214 C.3     1  LIG1       -0.0366
     46 H          -2.7401   -8.9277    1.0980 H       1  LIG1        0.0279
     47 H          -4.3480   -9.6095    0.8955 H       1  LIG1        0.0279
     48 H          -4.1632   -7.8978    1.3207 H       1  LIG1        0.0279
     49 S          -2.8135  -10.8944   -1.7317 S.3     1  LIG1       -0.1409
     50 H          -1.5873  -10.7460   -1.1806 H       1  LIG1        0.1072
@<TRIPOS>BOND
     1    44    41    1
     2    43    42    1
     3    41    42   ar
     4    41    40   ar
     5    42    38   ar
     6    40    49    1
     7    40    39   ar
     8    49    50    1
     9    13    12    1
    10    22    20    1
    11    25    24    1
    12    24    16    1
    13    38    39   ar
    14    38    29    1
    15    12     3    1
    16    31    30    1
    17    30    29   ar
    18    30    26   ar
    19    39    45    1
    20    29    28   ar
    21    16    15   ar
    22    16    17   ar
    23    20    15    1
    24    20    21    1
    25    20    23    1
    26    37    36    1
    27    15    14   ar
    28    26    17    1
    29    26    27   ar
    30    17    18   ar
    31    28    27   ar
    32    28    36    1
    33    27    32    1
    34     3     4   ar
    35     3     2   ar
    36    14    18   ar
    37    14     4    1
    38    18    19    1
    39    10     8    1
    40    34    32    1
    41    45    47    1
    42    45    46    1
    43    45    48    1
    44     9     8    1
    45     4     5   ar
    46    32    35    1
    47    32    33    1
    48     8     2    1
    49     8    11    1
    50     2     1   ar
    51     5     1   ar
    52     5     6    1
    53     1     7    1
