@<TRIPOS>MOLECULE
mol_data/opt/b3lyp/geoms/mol2/13ig13ig-.out
 26 27 0 0 0
SMALL
GASTEIGER

@<TRIPOS>ATOM
      1 C           1.0323   -0.2115    0.8832 C.ar    1  LIG1        0.0062
      2 C           0.8383    0.9487    0.1622 C.ar    1  LIG1       -0.0193
      3 C          -0.4904    0.8768   -0.3640 C.ar    1  LIG1        0.0344
      4 C          -1.0684   -0.3153    0.0539 C.ar    1  LIG1        0.0767
      5 N          -0.1019   -0.9779    0.7995 N.ar    1  LIG1       -0.3584
      6 H          -0.2898   -1.8018    1.3479 H       1  LIG1        0.1654
      7 H           1.8968   -0.5440    1.4392 H       1  LIG1        0.0810
      8 C           1.8268    2.0547   -0.0531 C.3     1  LIG1       -0.0372
      9 H           1.4538    3.0118    0.3310 H       1  LIG1        0.0278
     10 H           2.0447    2.2003   -1.1180 H       1  LIG1        0.0278
     11 H           2.7722    1.8402    0.4534 H       1  LIG1        0.0278
     12 S          -1.1900    2.1145   -1.4289 S.3     1  LIG1       -0.1403
     13 H          -2.3086    1.4214   -1.7246 H       1  LIG1        0.1072
     14 C          -2.3758   -0.9027   -0.2092 C.ar    1  LIG1        0.0680
     15 C          -3.6607   -0.4555    0.0740 C.ar    1  LIG1       -0.0106
     16 C          -4.5612   -1.4587   -0.4135 C.ar    1  LIG1        0.0256
     17 C          -3.8101   -2.4751   -0.9717 C.ar    1  LIG1        0.0157
     18 N          -2.4933   -2.1376   -0.8379 N.ar    1  LIG1       -0.3583
     19 H          -1.7170   -2.6329   -1.2479 H       1  LIG1        0.1654
     20 H          -4.1244   -3.3925   -1.4457 H       1  LIG1        0.0818
     21 C          -4.0311    0.7990    0.8044 C.3     1  LIG1       -0.0366
     22 H          -4.5835    0.5754    1.7248 H       1  LIG1        0.0279
     23 H          -4.6791    1.4408    0.1973 H       1  LIG1        0.0279
     24 H          -3.1404    1.3706    1.0746 H       1  LIG1        0.0279
     25 S          -6.3381   -1.4049   -0.4173 S.3     1  LIG1       -0.1409
     26 H          -6.5552   -1.6541    0.8944 H       1  LIG1        0.1072
@<TRIPOS>BOND
     1    13    12    1
     2    20    17    1
     3    12     3    1
     4    19    18    1
     5    10     8    1
     6    17    18   ar
     7    17    16   ar
     8    18    14   ar
     9    25    16    1
    10    25    26    1
    11    16    15   ar
    12     3     4   ar
    13     3     2   ar
    14    14     4    1
    15    14    15   ar
    16     8     2    1
    17     8     9    1
    18     8    11    1
    19     4     5   ar
    20    15    21    1
    21     2     1   ar
    22    23    21    1
    23     5     1   ar
    24     5     6    1
    25    21    24    1
    26    21    22    1
    27     1     7    1
