@<TRIPOS>MOLECULE
mol_data/opt/b3lyp/geoms/mol2/13ig.out
 14 14 0 0 0
SMALL
GASTEIGER

@<TRIPOS>ATOM
      1 C           1.0939   -0.4474    0.1544 C.ar    1  LIG1        0.0056
      2 C           0.6303    0.8395   -0.0110 C.ar    1  LIG1       -0.0200
      3 C          -0.7825    0.7285   -0.2436 C.ar    1  LIG1        0.0250
      4 C          -1.1152   -0.6121   -0.2198 C.ar    1  LIG1        0.0152
      5 N           0.0323   -1.3172    0.0224 N.ar    1  LIG1       -0.3658
      6 H           0.0934   -2.3201    0.0860 H       1  LIG1        0.1648
      7 H          -2.0690   -1.0968   -0.3618 H       1  LIG1        0.0818
      8 H           2.0923   -0.8099    0.3517 H       1  LIG1        0.0810
      9 C           1.4368    2.1009    0.0477 C.3     1  LIG1       -0.0373
     10 H           1.1624    2.7212    0.9096 H       1  LIG1        0.0278
     11 H           1.2803    2.7144   -0.8460 H       1  LIG1        0.0278
     12 H           2.5054    1.8807    0.1261 H       1  LIG1        0.0278
     13 S          -1.9192    2.0402   -0.6274 S.3     1  LIG1       -0.1409
     14 H          -2.0658    2.5601    0.6130 H       1  LIG1        0.1072
@<TRIPOS>BOND
     1    11     9    1
     2    13     3    1
     3    13    14    1
     4     7     4    1
     5     3     4   ar
     6     3     2   ar
     7     4     5   ar
     8     2     9    1
     9     2     1   ar
    10     5     6    1
    11     5     1   ar
    12     9    12    1
    13     9    10    1
    14     1     8    1
