@<TRIPOS>MOLECULE
mol_data/opt/b3lyp/geoms/mol2/13ig13ig13ig-13ig.out
 50 53 0 0 0
SMALL
GASTEIGER

@<TRIPOS>ATOM
      1 C           0.2556    0.2091    2.7245 C.ar    1  LIG1        0.0062
      2 C           0.7783    0.7468    1.5664 C.ar    1  LIG1       -0.0193
      3 C          -0.1800    0.4877    0.5360 C.ar    1  LIG1        0.0344
      4 C          -1.2558   -0.1924    1.0926 C.ar    1  LIG1        0.0768
      5 N          -0.9518   -0.3732    2.4358 N.ar    1  LIG1       -0.3584
      6 H          -1.6164   -0.7021    3.1180 H       1  LIG1        0.1654
      7 H           0.6613    0.1968    3.7257 H       1  LIG1        0.0810
      8 C           2.0967    1.4419    1.4075 C.3     1  LIG1       -0.0372
      9 H           1.9717    2.4676    1.0403 H       1  LIG1        0.0278
     10 H           2.7443    0.9219    0.6912 H       1  LIG1        0.0278
     11 H           2.6302    1.4936    2.3608 H       1  LIG1        0.0278
     12 S           0.0717    0.9244   -1.1673 S.3     1  LIG1       -0.1403
     13 H          -1.0402    0.3157   -1.6278 H       1  LIG1        0.1072
     14 C          -2.4769   -0.7224    0.5003 C.ar    1  LIG1        0.0685
     15 C          -3.5265   -0.0869   -0.1590 C.ar    1  LIG1       -0.0099
     16 C          -4.4661   -1.1014   -0.5104 C.ar    1  LIG1        0.0351
     17 C          -3.9926   -2.3264   -0.0527 C.ar    1  LIG1        0.0772
     18 N          -2.7744   -2.0700    0.5529 N.ar    1  LIG1       -0.3508
     19 H          -2.1906   -2.7685    0.9856 H       1  LIG1        0.1660
     20 C          -3.6679    1.3832   -0.4150 C.3     1  LIG1       -0.0366
     21 H          -4.6052    1.7692    0.0031 H       1  LIG1        0.0279
     22 H          -3.6791    1.6124   -1.4876 H       1  LIG1        0.0279
     23 H          -2.8417    1.9380    0.0356 H       1  LIG1        0.0279
     24 S          -5.9583   -0.7811   -1.4191 S.3     1  LIG1       -0.1403
     25 H          -6.3270   -2.0738   -1.5287 H       1  LIG1        0.1072
     26 C          -4.5324   -3.6753   -0.1677 C.ar    1  LIG1        0.0685
     27 C          -5.7173   -4.2307    0.3090 C.ar    1  LIG1       -0.0099
     28 C          -5.7197   -5.6005   -0.0906 C.ar    1  LIG1        0.0351
     29 C          -4.5433   -5.8652   -0.7834 C.ar    1  LIG1        0.0772
     30 N          -3.8378   -4.6748   -0.8203 N.ar    1  LIG1       -0.3508
     31 H          -2.9475   -4.5525   -1.2769 H       1  LIG1        0.1660
     32 C          -6.7697   -3.5415    1.1242 C.3     1  LIG1       -0.0366
     33 H          -6.9315   -4.0568    2.0786 H       1  LIG1        0.0279
     34 H          -7.7366   -3.5187    0.6071 H       1  LIG1        0.0279
     35 H          -6.4827   -2.5100    1.3405 H       1  LIG1        0.0279
     36 S          -7.0556   -6.7185    0.2547 S.3     1  LIG1       -0.1403
     37 H          -6.5564   -7.7472   -0.4608 H       1  LIG1        0.1072
     38 C          -4.0534   -7.0785   -1.4272 C.ar    1  LIG1        0.0680
     39 C          -3.7187   -8.3230   -0.9078 C.ar    1  LIG1       -0.0106
     40 C          -3.2830   -9.1253   -2.0126 C.ar    1  LIG1        0.0256
     41 C          -3.3654   -8.3575   -3.1584 C.ar    1  LIG1        0.0157
     42 N          -3.8218   -7.1221   -2.7979 N.ar    1  LIG1       -0.3583
     43 H          -4.0845   -6.3875   -3.4363 H       1  LIG1        0.1654
     44 H          -3.1366   -8.6103   -4.1826 H       1  LIG1        0.0818
     45 C          -3.7470   -8.7294    0.5340 C.3     1  LIG1       -0.0366
     46 H          -2.7403   -8.9588    0.9035 H       1  LIG1        0.0279
     47 H          -4.3491   -9.6324    0.6817 H       1  LIG1        0.0279
     48 H          -4.1620   -7.9343    1.1573 H       1  LIG1        0.0279
     49 S          -2.8144  -10.8399   -1.9829 S.3     1  LIG1       -0.1409
     50 H          -1.5882  -10.7080   -1.4276 H       1  LIG1        0.1072
@<TRIPOS>BOND
     1    44    41    1
     2    43    42    1
     3    41    42   ar
     4    41    40   ar
     5    42    38   ar
     6    40    49    1
     7    40    39   ar
     8    49    50    1
     9    13    12    1
    10    25    24    1
    11    22    20    1
    12    38    39   ar
    13    38    29    1
    14    24    16    1
    15    31    30    1
    16    12     3    1
    17    39    45    1
    18    30    29   ar
    19    30    26   ar
    20    29    28   ar
    21    16    15   ar
    22    16    17   ar
    23    37    36    1
    24    20    15    1
    25    20    21    1
    26    20    23    1
    27    26    17    1
    28    26    27   ar
    29    15    14   ar
    30    28    36    1
    31    28    27   ar
    32    17    18   ar
    33    27    32    1
    34    14    18   ar
    35    14     4    1
    36    45    47    1
    37    45    46    1
    38    45    48    1
    39     3     4   ar
    40     3     2   ar
    41    18    19    1
    42    34    32    1
    43    10     8    1
    44     9     8    1
    45     4     5   ar
    46    32    35    1
    47    32    33    1
    48     8     2    1
    49     8    11    1
    50     2     1   ar
    51     5     1   ar
    52     5     6    1
    53     1     7    1
