@<TRIPOS>MOLECULE
mol_data/opt/b3lyp/geoms/mol2/13ig13ig13ig13ig-.out
 50 53 0 0 0
SMALL
GASTEIGER

@<TRIPOS>ATOM
      1 C           0.2661    0.4589    2.3623 C.ar    1  LIG1        0.0062
      2 C           0.7797    0.8856    1.1549 C.ar    1  LIG1       -0.0193
      3 C          -0.1848    0.5286    0.1603 C.ar    1  LIG1        0.0344
      4 C          -1.2553   -0.0976    0.7861 C.ar    1  LIG1        0.0768
      5 N          -0.9419   -0.1502    2.1382 N.ar    1  LIG1       -0.3584
      6 H          -1.6013   -0.4138    2.8530 H       1  LIG1        0.1654
      7 H           0.6785    0.5418    3.3573 H       1  LIG1        0.0810
      8 C           2.0956    1.5645    0.9219 C.3     1  LIG1       -0.0372
      9 H           1.9658    2.5507    0.4603 H       1  LIG1        0.0278
     10 H           2.7395    0.9801    0.2537 H       1  LIG1        0.0278
     11 H           2.6353    1.7071    1.8625 H       1  LIG1        0.0278
     12 S           0.0546    0.8027   -1.5785 S.3     1  LIG1       -0.1403
     13 H          -1.0593    0.1520   -1.9717 H       1  LIG1        0.1072
     14 C          -2.4792   -0.6831    0.2550 C.ar    1  LIG1        0.0685
     15 C          -3.5346   -0.1143   -0.4542 C.ar    1  LIG1       -0.0099
     16 C          -4.4744   -1.1589   -0.7017 C.ar    1  LIG1        0.0351
     17 C          -3.9950   -2.3344   -0.1336 C.ar    1  LIG1        0.0772
     18 N          -2.7734   -2.0201    0.4367 N.ar    1  LIG1       -0.3508
     19 H          -2.1851   -2.6738    0.9293 H       1  LIG1        0.1660
     20 C          -3.6810    1.3249   -0.8469 C.3     1  LIG1       -0.0366
     21 H          -4.6165    1.7470   -0.4609 H       1  LIG1        0.0279
     22 H          -3.6997    1.4517   -1.9363 H       1  LIG1        0.0279
     23 H          -2.8532    1.9210   -0.4562 H       1  LIG1        0.0279
     24 S          -5.9734   -0.9281   -1.6261 S.3     1  LIG1       -0.1403
     25 H          -6.3404   -2.2258   -1.6097 H       1  LIG1        0.1072
     26 C          -4.5327   -3.6890   -0.1168 C.ar    1  LIG1        0.0685
     27 C          -5.7127   -4.1990    0.4191 C.ar    1  LIG1       -0.0099
     28 C          -5.7148   -5.6003    0.1505 C.ar    1  LIG1        0.0351
     29 C          -4.5429   -5.9273   -0.5231 C.ar    1  LIG1        0.0772
     30 N          -3.8404   -4.7445   -0.6774 N.ar    1  LIG1       -0.3508
     31 H          -2.9539   -4.6642   -1.1505 H       1  LIG1        0.1660
     32 C          -6.7608   -3.4377    1.1733 C.3     1  LIG1       -0.0366
     33 H          -6.9146   -3.8609    2.1732 H       1  LIG1        0.0279
     34 H          -7.7315   -3.4656    0.6634 H       1  LIG1        0.0279
     35 H          -6.4747   -2.3898    1.2891 H       1  LIG1        0.0279
     36 S          -7.0455   -6.6831    0.6097 S.3     1  LIG1       -0.1403
     37 H          -6.5498   -7.7735   -0.0105 H       1  LIG1        0.1072
     38 C          -4.0547   -7.1951   -1.0534 C.ar    1  LIG1        0.0680
     39 C          -3.7131   -8.3845   -0.4215 C.ar    1  LIG1       -0.0106
     40 C          -3.2833   -9.2865   -1.4491 C.ar    1  LIG1        0.0256
     41 C          -3.3761   -8.6303   -2.6615 C.ar    1  LIG1        0.0157
     42 N          -3.8330   -7.3673   -2.4156 N.ar    1  LIG1       -0.3583
     43 H          -4.1020   -6.6965   -3.1184 H       1  LIG1        0.1654
     44 H          -3.1541   -8.9780   -3.6589 H       1  LIG1        0.0818
     45 C          -3.7300   -8.6533    1.0523 C.3     1  LIG1       -0.0366
     46 H          -2.7201   -8.8444    1.4345 H       1  LIG1        0.0279
     47 H          -4.3282   -9.5399    1.2887 H       1  LIG1        0.0279
     48 H          -4.1433   -7.8041    1.6010 H       1  LIG1        0.0279
     49 S          -2.8105  -10.9898   -1.2614 S.3     1  LIG1       -0.1409
     50 H          -1.5805  -10.8041   -0.7304 H       1  LIG1        0.1072
@<TRIPOS>BOND
     1    44    41    1
     2    43    42    1
     3    41    42   ar
     4    41    40   ar
     5    42    38   ar
     6    13    12    1
     7    22    20    1
     8    24    25    1
     9    24    16    1
    10    12     3    1
    11    40    49    1
    12    40    39   ar
    13    49    50    1
    14    31    30    1
    15    38    29    1
    16    38    39   ar
    17    20    21    1
    18    20    23    1
    19    20    15    1
    20    16    15   ar
    21    16    17   ar
    22    30    29   ar
    23    30    26   ar
    24    29    28   ar
    25    15    14   ar
    26    39    45    1
    27    17    26    1
    28    17    18   ar
    29    26    27   ar
    30    37    36    1
    31    28    27   ar
    32    28    36    1
    33     3     4   ar
    34     3     2   ar
    35    10     8    1
    36    14    18   ar
    37    14     4    1
    38    27    32    1
    39    18    19    1
    40     9     8    1
    41    34    32    1
    42     4     5   ar
    43     8     2    1
    44     8    11    1
    45    45    47    1
    46    45    46    1
    47    45    48    1
    48     2     1   ar
    49    32    35    1
    50    32    33    1
    51     5     1   ar
    52     5     6    1
    53     1     7    1
