@<TRIPOS>MOLECULE
mol_data/opt/b3lyp/geoms/mol2/13ig13ig-13ig13ig-.out
 50 53 0 0 0
SMALL
GASTEIGER

@<TRIPOS>ATOM
      1 C           0.2368    0.3128    2.6428 C.ar    1  LIG1        0.0062
      2 C           0.7662    0.8073    1.4686 C.ar    1  LIG1       -0.0193
      3 C          -0.1855    0.5089    0.4428 C.ar    1  LIG1        0.0344
      4 C          -1.2643   -0.1509    1.0179 C.ar    1  LIG1        0.0768
      5 N          -0.9684   -0.2811    2.3688 N.ar    1  LIG1       -0.3584
      6 H          -1.6372   -0.5843    3.0588 H       1  LIG1        0.1654
      7 H           0.6364    0.3383    3.6462 H       1  LIG1        0.0810
      8 C           2.0852    1.4970    1.2918 C.3     1  LIG1       -0.0372
      9 H           1.9618    2.5084    0.8865 H       1  LIG1        0.0278
     10 H           2.7371    0.9514    0.5989 H       1  LIG1        0.0278
     11 H           2.6132    1.5841    2.2457 H       1  LIG1        0.0278
     12 S           0.0764    0.8816   -1.2743 S.3     1  LIG1       -0.1403
     13 H          -1.0313    0.2535   -1.7186 H       1  LIG1        0.1072
     14 C          -2.4813   -0.7040    0.4385 C.ar    1  LIG1        0.0685
     15 C          -3.5272   -0.0947   -0.2510 C.ar    1  LIG1       -0.0099
     16 C          -4.4640   -1.1227   -0.5694 C.ar    1  LIG1        0.0351
     17 C          -3.9926   -2.3289   -0.0624 C.ar    1  LIG1        0.0772
     18 N          -2.7784   -2.0487    0.5405 N.ar    1  LIG1       -0.3508
     19 H          -2.1970   -2.7299    1.0032 H       1  LIG1        0.1660
     20 C          -3.6676    1.3645   -0.5637 C.3     1  LIG1       -0.0366
     21 H          -4.6084    1.7650   -0.1675 H       1  LIG1        0.0279
     22 H          -3.6710    1.5529   -1.6442 H       1  LIG1        0.0279
     23 H          -2.8453    1.9367   -0.1283 H       1  LIG1        0.0279
     24 S          -5.9506   -0.8384   -1.4990 S.3     1  LIG1       -0.1403
     25 H          -6.3204   -2.1341   -1.5571 H       1  LIG1        0.1072
     26 C          -4.5311   -3.6817   -0.1292 C.ar    1  LIG1        0.0685
     27 C          -5.7180   -4.2199    0.3621 C.ar    1  LIG1       -0.0099
     28 C          -5.7174   -5.6037    0.0143 C.ar    1  LIG1        0.0351
     29 C          -4.5373   -5.8932   -0.6621 C.ar    1  LIG1        0.0772
     30 N          -3.8324   -4.7044   -0.7403 N.ar    1  LIG1       -0.3508
     31 H          -2.9398   -4.5985   -1.1966 H       1  LIG1        0.1660
     32 C          -6.7750   -3.5013    1.1453 C.3     1  LIG1       -0.0366
     33 H          -6.9411   -3.9801    2.1178 H       1  LIG1        0.0279
     34 H          -7.7393   -3.4992    0.6229 H       1  LIG1        0.0279
     35 H          -6.4899   -2.4619    1.3237 H       1  LIG1        0.0279
     36 S          -7.0541   -6.7092    0.3947 S.3     1  LIG1       -0.1403
     37 H          -6.5519   -7.7628   -0.2815 H       1  LIG1        0.1072
     38 C          -4.0434   -7.1292   -1.2580 C.ar    1  LIG1        0.0680
     39 C          -3.7110   -8.3535   -0.6913 C.ar    1  LIG1       -0.0106
     40 C          -3.2687   -9.1956   -1.7635 C.ar    1  LIG1        0.0256
     41 C          -3.3452   -8.4705   -2.9371 C.ar    1  LIG1        0.0157
     42 N          -3.8041   -7.2230   -2.6249 N.ar    1  LIG1       -0.3583
     43 H          -4.0637   -6.5126   -3.2913 H       1  LIG1        0.1654
     44 H          -3.1107   -8.7608   -3.9500 H       1  LIG1        0.0818
     45 C          -3.7469   -8.7065    0.7643 C.3     1  LIG1       -0.0366
     46 H          -2.7423   -8.9222    1.1473 H       1  LIG1        0.0279
     47 H          -4.3500   -9.6034    0.9420 H       1  LIG1        0.0279
     48 H          -4.1652   -7.8890    1.3557 H       1  LIG1        0.0279
     49 S          -2.7998  -10.9075   -1.6683 S.3     1  LIG1       -0.1409
     50 H          -1.5764  -10.7547   -1.1121 H       1  LIG1        0.1072
@<TRIPOS>BOND
     1    44    41    1
     2    43    42    1
     3    41    42   ar
     4    41    40   ar
     5    42    38   ar
     6    40    49    1
     7    40    39   ar
     8    13    12    1
     9    49    50    1
    10    22    20    1
    11    25    24    1
    12    24    16    1
    13    12     3    1
    14    38    39   ar
    15    38    29    1
    16    31    30    1
    17    30    29   ar
    18    30    26   ar
    19    39    45    1
    20    29    28   ar
    21    16    15   ar
    22    16    17   ar
    23    20    15    1
    24    20    21    1
    25    20    23    1
    26    37    36    1
    27    15    14   ar
    28    26    17    1
    29    26    27   ar
    30    17    18   ar
    31    28    27   ar
    32    28    36    1
    33    27    32    1
    34    14    18   ar
    35    14     4    1
    36     3     4   ar
    37     3     2   ar
    38    18    19    1
    39    10     8    1
    40    34    32    1
    41    45    47    1
    42    45    46    1
    43    45    48    1
    44     9     8    1
    45     4     5   ar
    46    32    35    1
    47    32    33    1
    48     8     2    1
    49     8    11    1
    50     2     1   ar
    51     5     1   ar
    52     5     6    1
    53     1     7    1
