@<TRIPOS>MOLECULE
mol_data/opt/b3lyp/geoms/mol2/13ih13ih13ih13ih.out
 54 57 0 0 0
SMALL
GASTEIGER

@<TRIPOS>ATOM
      1 C           0.5018    0.3163    2.0814 C.ar    1  LIG1        0.0069
      2 C           0.7523    1.0418    0.9351 C.ar    1  LIG1       -0.0118
      3 C          -0.3491    0.8042    0.0514 C.ar    1  LIG1        0.0546
      4 C          -1.2397   -0.0526    0.6859 C.ar    1  LIG1        0.0844
      5 N          -0.6783   -0.3666    1.9252 N.ar    1  LIG1       -0.3578
      6 H          -1.2116   -0.7607    2.6840 H       1  LIG1        0.1654
      7 H           1.0825    0.2346    2.9889 H       1  LIG1        0.0810
      8 C           1.9481    1.8960    0.6399 C.3     1  LIG1       -0.0365
      9 H           1.6549    2.9181    0.3713 H       1  LIG1        0.0279
     10 H           2.5443    1.5048   -0.1964 H       1  LIG1        0.0279
     11 H           2.6130    1.9566    1.5064 H       1  LIG1        0.0279
     12 N          -0.4915    1.3705   -1.2300 N.pl3   1  LIG1       -0.3561
     13 H           0.3879    1.4030   -1.7354 H       1  LIG1        0.1424
     14 H          -1.1776    0.8695   -1.7847 H       1  LIG1        0.1424
     15 C          -2.4857   -0.6425    0.2318 C.ar    1  LIG1        0.0699
     16 C          -3.6090   -0.0717   -0.3672 C.ar    1  LIG1       -0.0024
     17 C          -4.5487   -1.1237   -0.5830 C.ar    1  LIG1        0.0552
     18 C          -4.0042   -2.3098   -0.1013 C.ar    1  LIG1        0.0849
     19 N          -2.7394   -1.9902    0.3849 N.ar    1  LIG1       -0.3501
     20 H          -2.1100   -2.6438    0.8218 H       1  LIG1        0.1661
     21 C          -3.8450    1.3798   -0.6635 C.3     1  LIG1       -0.0359
     22 H          -4.8088    1.7077   -0.2554 H       1  LIG1        0.0279
     23 H          -3.8676    1.5973   -1.7412 H       1  LIG1        0.0279
     24 H          -3.0595    2.0022   -0.2288 H       1  LIG1        0.0279
     25 N          -5.8336   -0.9539   -1.1340 N.pl3   1  LIG1       -0.3561
     26 H          -5.8354   -0.2966   -1.9066 H       1  LIG1        0.1424
     27 H          -6.2281   -1.8365   -1.4423 H       1  LIG1        0.1424
     28 C          -4.5197   -3.6667   -0.1009 C.ar    1  LIG1        0.0699
     29 C          -5.7502   -4.1822    0.3081 C.ar    1  LIG1       -0.0024
     30 C          -5.7044   -5.5932    0.0998 C.ar    1  LIG1        0.0552
     31 C          -4.4534   -5.9242   -0.4103 C.ar    1  LIG1        0.0849
     32 N          -3.7481   -4.7303   -0.5245 N.ar    1  LIG1       -0.3501
     33 H          -2.8120   -4.6559   -0.8876 H       1  LIG1        0.1661
     34 C          -6.8897   -3.4318    0.9313 C.3     1  LIG1       -0.0359
     35 H          -7.1897   -3.8949    1.8793 H       1  LIG1        0.0279
     36 H          -7.7846   -3.4119    0.2927 H       1  LIG1        0.0279
     37 H          -6.6153   -2.3933    1.1288 H       1  LIG1        0.0279
     38 N          -6.7392   -6.4906    0.4277 N.pl3   1  LIG1       -0.3561
     39 H          -7.6554   -6.1161    0.2054 H       1  LIG1        0.1424
     40 H          -6.6192   -7.3845   -0.0375 H       1  LIG1        0.1424
     41 C          -3.8976   -7.1993   -0.8250 C.ar    1  LIG1        0.0695
     42 C          -3.8757   -8.4396   -0.1955 C.ar    1  LIG1       -0.0031
     43 C          -3.2045   -9.3473   -1.0797 C.ar    1  LIG1        0.0457
     44 C          -2.8322   -8.6466   -2.2069 C.ar    1  LIG1        0.0233
     45 N          -3.2204   -7.3277   -2.0269 N.ar    1  LIG1       -0.3576
     46 H          -3.3154   -6.6638   -2.7788 H       1  LIG1        0.1654
     47 H          -2.2886   -8.9603   -3.0856 H       1  LIG1        0.0826
     48 C          -4.3390   -8.7680    1.1927 C.3     1  LIG1       -0.0359
     49 H          -3.5358   -9.2427    1.7697 H       1  LIG1        0.0279
     50 H          -5.1887   -9.4656    1.2017 H       1  LIG1        0.0279
     51 H          -4.6588   -7.8686    1.7236 H       1  LIG1        0.0279
     52 N          -2.8894  -10.6814   -0.7487 N.pl3   1  LIG1       -0.3566
     53 H          -3.6608  -11.1536   -0.2896 H       1  LIG1        0.1424
     54 H          -2.6064  -11.2254   -1.5557 H       1  LIG1        0.1424
@<TRIPOS>BOND
     1    47    44    1
     2    46    45    1
     3    44    45   ar
     4    44    43   ar
     5    45    41   ar
     6    26    25    1
     7    14    12    1
     8    23    21    1
     9    13    12    1
    10    54    52    1
    11    27    25    1
    12    12     3    1
    13    25    17    1
    14    43    52    1
    15    43    42   ar
    16    33    32    1
    17    41    31    1
    18    41    42   ar
    19    52    53    1
    20    21    16    1
    21    21    22    1
    22    21    24    1
    23    17    16   ar
    24    17    18   ar
    25    32    31   ar
    26    32    28   ar
    27    31    30   ar
    28    16    15   ar
    29    10     8    1
    30    42    48    1
    31    18    28    1
    32    18    19   ar
    33    28    29   ar
    34    40    38    1
    35     3     4   ar
    36     3     2   ar
    37    30    29   ar
    38    30    38    1
    39    39    38    1
    40    15    19   ar
    41    15     4    1
    42    36    34    1
    43    29    34    1
    44     9     8    1
    45    19    20    1
    46     8     2    1
    47     8    11    1
    48     4     5   ar
    49    34    37    1
    50    34    35    1
    51     2     1   ar
    52    48    50    1
    53    48    51    1
    54    48    49    1
    55     5     1   ar
    56     5     6    1
    57     1     7    1
