@<TRIPOS>MOLECULE
mol_data/opt/b3lyp/geoms/mol2/13ih13ih13ih13ih-.out
 54 57 0 0 0
SMALL
GASTEIGER

@<TRIPOS>ATOM
      1 C           0.4865    0.5757    1.9459 C.ar    1  LIG1        0.0069
      2 C           0.6899    1.2315    0.7494 C.ar    1  LIG1       -0.0118
      3 C          -0.4190    0.8991   -0.0934 C.ar    1  LIG1        0.0546
      4 C          -1.2675    0.0575    0.6148 C.ar    1  LIG1        0.0844
      5 N          -0.6719   -0.1551    1.8597 N.ar    1  LIG1       -0.3578
      6 H          -1.1768   -0.5165    2.6533 H       1  LIG1        0.1654
      7 H           1.0869    0.5736    2.8443 H       1  LIG1        0.0810
      8 C           1.8500    2.1029    0.3733 C.3     1  LIG1       -0.0365
      9 H           1.5184    3.0985    0.0544 H       1  LIG1        0.0279
     10 H           2.4366    1.6816   -0.4552 H       1  LIG1        0.0279
     11 H           2.5346    2.2337    1.2164 H       1  LIG1        0.0279
     12 N          -0.6045    1.3730   -1.4064 N.pl3   1  LIG1       -0.3561
     13 H           0.2655    1.4113   -1.9272 H       1  LIG1        0.1424
     14 H          -1.2746    0.8065   -1.9161 H       1  LIG1        0.1424
     15 C          -2.4989   -0.6058    0.2271 C.ar    1  LIG1        0.0699
     16 C          -3.6511   -0.1212   -0.3929 C.ar    1  LIG1       -0.0024
     17 C          -4.5522   -1.2200   -0.5196 C.ar    1  LIG1        0.0552
     18 C          -3.9578   -2.3475    0.0383 C.ar    1  LIG1        0.0849
     19 N          -2.7013   -1.9463    0.4840 N.ar    1  LIG1       -0.3501
     20 H          -2.0294   -2.5512    0.9273 H       1  LIG1        0.1661
     21 C          -3.9452    1.2949   -0.7914 C.3     1  LIG1       -0.0359
     22 H          -4.8970    1.6321   -0.3628 H       1  LIG1        0.0279
     23 H          -4.0275    1.4207   -1.8807 H       1  LIG1        0.0279
     24 H          -3.1584    1.9715   -0.4506 H       1  LIG1        0.0279
     25 N          -5.8494   -1.1407   -1.0636 N.pl3   1  LIG1       -0.3561
     26 H          -5.8909   -0.5105   -1.8576 H       1  LIG1        0.1424
     27 H          -6.1922   -2.0542   -1.3437 H       1  LIG1        0.1424
     28 C          -4.4175   -3.7191    0.1414 C.ar    1  LIG1        0.0699
     29 C          -5.6252   -4.2649    0.5638 C.ar    1  LIG1       -0.0024
     30 C          -5.5034   -5.6838    0.4490 C.ar    1  LIG1        0.0552
     31 C          -4.2283   -5.9857   -0.0217 C.ar    1  LIG1        0.0849
     32 N          -3.5774   -4.7798   -0.1826 N.ar    1  LIG1       -0.3501
     33 H          -2.7190   -4.6697   -0.6975 H       1  LIG1        0.1661
     34 C          -6.8065   -3.5309    1.1269 C.3     1  LIG1       -0.0359
     35 H          -7.0633   -3.8989    2.1287 H       1  LIG1        0.0279
     36 H          -7.7066   -3.6525    0.5091 H       1  LIG1        0.0279
     37 H          -6.6082   -2.4598    1.2016 H       1  LIG1        0.0279
     38 N          -6.4815   -6.6844    0.7794 N.pl3   1  LIG1       -0.3561
     39 H          -6.6293   -6.7286    1.7871 H       1  LIG1        0.1424
     40 H          -7.3832   -6.4470    0.3713 H       1  LIG1        0.1424
     41 C          -3.6280   -7.2665   -0.3181 C.ar    1  LIG1        0.0695
     42 C          -2.3374   -7.6434   -0.7014 C.ar    1  LIG1       -0.0031
     43 C          -2.3603   -9.0610   -0.8678 C.ar    1  LIG1        0.0457
     44 C          -3.6401   -9.5027   -0.5778 C.ar    1  LIG1        0.0233
     45 N          -4.3924   -8.4061   -0.2374 N.ar    1  LIG1       -0.3576
     46 H          -5.3614   -8.3590    0.0604 H       1  LIG1        0.1654
     47 H          -4.0558  -10.4995   -0.5771 H       1  LIG1        0.0826
     48 C          -1.1219   -6.7803   -0.8730 C.3     1  LIG1       -0.0359
     49 H          -1.0337   -6.0315   -0.0764 H       1  LIG1        0.0279
     50 H          -1.0963   -6.2450   -1.8343 H       1  LIG1        0.0279
     51 H          -0.2203   -7.3992   -0.8282 H       1  LIG1        0.0279
     52 N          -1.2232   -9.8428   -1.1947 N.pl3   1  LIG1       -0.3566
     53 H          -1.4456  -10.8323   -1.2080 H       1  LIG1        0.1424
     54 H          -0.8447   -9.5981   -2.1055 H       1  LIG1        0.1424
@<TRIPOS>BOND
     1    54    52    1
     2    13    12    1
     3    14    12    1
     4    23    21    1
     5    26    25    1
     6    50    48    1
     7    12     3    1
     8    27    25    1
     9    53    52    1
    10    52    43    1
    11    25    17    1
    12    48    51    1
    13    48    42    1
    14    48    49    1
    15    43    42   ar
    16    43    44   ar
    17    21    24    1
    18    21    16    1
    19    21    22    1
    20    42    41   ar
    21    33    32    1
    22    44    47    1
    23    44    45   ar
    24    17    16   ar
    25    17    18   ar
    26    10     8    1
    27    16    15   ar
    28    41    45   ar
    29    41    31    1
    30    45    46    1
    31    32    31   ar
    32    32    28   ar
    33     3     4   ar
    34     3     2   ar
    35    31    30   ar
    36    18    28    1
    37    18    19   ar
    38     9     8    1
    39    28    29   ar
    40    15    19   ar
    41    15     4    1
    42    40    38    1
    43     8     2    1
    44     8    11    1
    45    30    29   ar
    46    30    38    1
    47    19    20    1
    48    36    34    1
    49    29    34    1
    50     4     5   ar
    51     2     1   ar
    52    38    39    1
    53    34    37    1
    54    34    35    1
    55     5     1   ar
    56     5     6    1
    57     1     7    1
