@<TRIPOS>MOLECULE
mol_data/opt/b3lyp/geoms/mol2/13ih13ih-13ih13ih-.out
 54 57 0 0 0
SMALL
GASTEIGER

@<TRIPOS>ATOM
      1 C           1.3505   -0.2780   -0.0959 C.ar    1  LIG1        0.0069
      2 C           0.9136    1.0293   -0.0918 C.ar    1  LIG1       -0.0118
      3 C          -0.5159    0.9797   -0.0844 C.ar    1  LIG1        0.0546
      4 C          -0.9107   -0.3579   -0.0841 C.ar    1  LIG1        0.0844
      5 N           0.2487   -1.1048   -0.0912 N.ar    1  LIG1       -0.3578
      6 H           0.2789   -2.1098   -0.0927 H       1  LIG1        0.1654
      7 H           2.3521   -0.6821   -0.1017 H       1  LIG1        0.0810
      8 C           1.7610    2.2663   -0.0943 C.3     1  LIG1       -0.0365
      9 H           1.5778    2.8917    0.7890 H       1  LIG1        0.0279
     10 H           1.5680    2.8952   -0.9730 H       1  LIG1        0.0279
     11 H           2.8255    2.0156   -0.1007 H       1  LIG1        0.0279
     12 N          -1.4433    2.0784   -0.0781 N.pl3   1  LIG1       -0.3561
     13 H          -1.2971    2.6706    0.7375 H       1  LIG1        0.1424
     14 H          -1.3030    2.6747   -0.8918 H       1  LIG1        0.1424
     15 C          -2.2355   -0.9334   -0.0777 C.ar    1  LIG1        0.0699
     16 C          -2.6998   -2.2498   -0.0751 C.ar    1  LIG1       -0.0024
     17 C          -4.1230   -2.1770   -0.0685 C.ar    1  LIG1        0.0552
     18 C          -4.4994   -0.8293   -0.0669 C.ar    1  LIG1        0.0849
     19 N          -3.3359   -0.1015   -0.0723 N.ar    1  LIG1       -0.3501
     20 H          -3.2152    0.9064   -0.0722 H       1  LIG1        0.1661
     21 C          -1.8915   -3.5142   -0.0784 C.3     1  LIG1       -0.0359
     22 H          -1.2431   -3.6041    0.8040 H       1  LIG1        0.0279
     23 H          -1.2562   -3.6084   -0.9699 H       1  LIG1        0.0279
     24 H          -2.5511   -4.3877   -0.0712 H       1  LIG1        0.0279
     25 N          -5.0676   -3.2592   -0.0650 N.pl3   1  LIG1       -0.3561
     26 H          -4.9445   -3.8624   -0.8755 H       1  LIG1        0.1424
     27 H          -4.9569   -3.8472    0.7584 H       1  LIG1        0.1424
     28 C          -5.8181   -0.2424   -0.0629 C.ar    1  LIG1        0.0699
     29 C          -6.2681    1.0797   -0.0680 C.ar    1  LIG1       -0.0024
     30 C          -7.6915    1.0216   -0.0707 C.ar    1  LIG1        0.0552
     31 C          -8.0833   -0.3214   -0.0629 C.ar    1  LIG1        0.0849
     32 N          -6.9292   -1.0615   -0.0568 N.ar    1  LIG1       -0.3501
     33 H          -6.8229   -2.0706   -0.0761 H       1  LIG1        0.1661
     34 C          -5.4438    2.3335   -0.0704 C.3     1  LIG1       -0.0359
     35 H          -6.0924    3.2156   -0.0642 H       1  LIG1        0.0279
     36 H          -4.8004    2.4147   -0.9561 H       1  LIG1        0.0279
     37 H          -4.7919    2.4104    0.8092 H       1  LIG1        0.0279
     38 N          -8.6243    2.1158   -0.0811 N.pl3   1  LIG1       -0.3561
     39 H          -8.5476    2.6736    0.7676 H       1  LIG1        0.1424
     40 H          -8.4402    2.7450   -0.8597 H       1  LIG1        0.1424
     41 C          -9.4110   -0.8941   -0.0663 C.ar    1  LIG1        0.0695
     42 C          -9.8781   -2.2097    0.0145 C.ar    1  LIG1       -0.0031
     43 C         -11.3022   -2.1402   -0.0547 C.ar    1  LIG1        0.0457
     44 C         -11.6597   -0.8072   -0.1637 C.ar    1  LIG1        0.0233
     45 N         -10.5043   -0.0655   -0.1598 N.ar    1  LIG1       -0.3576
     46 H         -10.3861    0.9416   -0.1975 H       1  LIG1        0.1654
     47 H         -12.6329   -0.3435   -0.2316 H       1  LIG1        0.0826
     48 C          -9.0883   -3.4749    0.1806 C.3     1  LIG1       -0.0359
     49 H          -8.2973   -3.3718    0.9327 H       1  LIG1        0.0279
     50 H          -8.6078   -3.8133   -0.7486 H       1  LIG1        0.0279
     51 H          -9.7480   -4.2802    0.5190 H       1  LIG1        0.0279
     52 N         -12.1624   -3.2639    0.0523 N.pl3   1  LIG1       -0.3566
     53 H         -13.1372   -2.9863    0.0107 H       1  LIG1        0.1424
     54 H         -12.0003   -3.9332   -0.6951 H       1  LIG1        0.1424
@<TRIPOS>BOND
     1    10     8    1
     2    23    21    1
     3    36    34    1
     4    14    12    1
     5    26    25    1
     6    40    38    1
     7    50    48    1
     8    54    52    1
     9    47    44    1
    10    46    45    1
    11    44    45   ar
    12    44    43   ar
    13    45    41   ar
    14     7     1    1
    15    11     8    1
    16     1     2   ar
    17     1     5   ar
    18     8     2    1
    19     8     9    1
    20     6     5    1
    21     2     3   ar
    22     5     4   ar
    23     3     4   ar
    24     3    12    1
    25     4    15    1
    26    38    30    1
    27    38    39    1
    28    21    16    1
    29    21    24    1
    30    21    22    1
    31    12    13    1
    32    15    16   ar
    33    15    19   ar
    34    33    32    1
    35    16    17   ar
    36    19    20    1
    37    19    18   ar
    38    30    29   ar
    39    30    31   ar
    40    34    29    1
    41    34    35    1
    42    34    37    1
    43    17    18   ar
    44    17    25    1
    45    29    28   ar
    46    18    28    1
    47    41    31    1
    48    41    42   ar
    49    25    27    1
    50    31    32   ar
    51    28    32   ar
    52    43    42   ar
    53    43    52    1
    54    53    52    1
    55    42    48    1
    56    48    51    1
    57    48    49    1
