@<TRIPOS>MOLECULE
mol_data/opt/b3lyp/geoms/mol2/13ih13ih-.out
 28 29 0 0 0
SMALL
GASTEIGER

@<TRIPOS>ATOM
      1 C           1.2148   -0.2714   -0.0611 C.ar    1  LIG1        0.0069
      2 C           0.7777    1.0358   -0.0809 C.ar    1  LIG1       -0.0118
      3 C          -0.6522    0.9853   -0.0907 C.ar    1  LIG1        0.0546
      4 C          -1.0457   -0.3515   -0.0730 C.ar    1  LIG1        0.0844
      5 N           0.1129   -1.0976   -0.0525 N.ar    1  LIG1       -0.3578
      6 H           0.1404   -2.1028   -0.0686 H       1  LIG1        0.1654
      7 H           2.2165   -0.6751   -0.0507 H       1  LIG1        0.0810
      8 C           1.6244    2.2733   -0.0897 C.3     1  LIG1       -0.0365
      9 H           1.4291    2.9110    0.7821 H       1  LIG1        0.0279
     10 H           1.4428    2.8900   -0.9796 H       1  LIG1        0.0279
     11 H           2.6891    2.0235   -0.0792 H       1  LIG1        0.0279
     12 N          -1.5800    2.0838   -0.1159 N.pl3   1  LIG1       -0.3561
     13 H          -1.4905    2.6524    0.7248 H       1  LIG1        0.1424
     14 H          -1.3818    2.7024   -0.9001 H       1  LIG1        0.1424
     15 C          -2.3718   -0.9304   -0.0811 C.ar    1  LIG1        0.0694
     16 C          -2.8338   -2.2463    0.0069 C.ar    1  LIG1       -0.0031
     17 C          -4.2582   -2.1833   -0.0730 C.ar    1  LIG1        0.0457
     18 C          -4.6187   -0.8523   -0.1952 C.ar    1  LIG1        0.0233
     19 N          -3.4662   -0.1065   -0.1891 N.ar    1  LIG1       -0.3576
     20 H          -3.3517    0.9011   -0.2322 H       1  LIG1        0.1654
     21 H          -5.5928   -0.3925   -0.2743 H       1  LIG1        0.0826
     22 C          -2.0416   -3.5072    0.1940 C.3     1  LIG1       -0.0359
     23 H          -1.2740   -3.4017    0.9718 H       1  LIG1        0.0279
     24 H          -1.5401   -3.8494   -0.7236 H       1  LIG1        0.0279
     25 H          -2.7051   -4.3149    0.5178 H       1  LIG1        0.0279
     26 N          -5.1126   -3.3109    0.0362 N.pl3   1  LIG1       -0.3566
     27 H          -6.0889   -3.0357    0.0291 H       1  LIG1        0.1424
     28 H          -4.9714   -3.9664   -0.7276 H       1  LIG1        0.1424
@<TRIPOS>BOND
     1    10     8    1
     2    14    12    1
     3    28    26    1
     4    24    22    1
     5    21    18    1
     6    20    19    1
     7    18    19   ar
     8    18    17   ar
     9    19    15   ar
    10    12     3    1
    11    12    13    1
    12     3     2   ar
    13     3     4   ar
    14     8     2    1
    15     8    11    1
    16     8     9    1
    17    15     4    1
    18    15    16   ar
    19     2     1   ar
    20    17    16   ar
    21    17    26    1
    22     4     5   ar
    23     6     5    1
    24     1     5   ar
    25     1     7    1
    26    16    22    1
    27    27    26    1
    28    22    25    1
    29    22    23    1
