@<TRIPOS>MOLECULE
mol_data/opt/b3lyp/geoms/mol2/13ih13ih-13ih.out
 41 43 0 0 0
SMALL
GASTEIGER

@<TRIPOS>ATOM
      1 C           1.2783   -0.3349   -0.0835 C.ar    1  LIG1        0.0069
      2 C           0.8474    0.9741   -0.1092 C.ar    1  LIG1       -0.0118
      3 C          -0.5825    0.9312   -0.1002 C.ar    1  LIG1        0.0546
      4 C          -0.9832   -0.4040   -0.0688 C.ar    1  LIG1        0.0844
      5 N           0.1726   -1.1563   -0.0587 N.ar    1  LIG1       -0.3578
      6 H           0.1980   -2.1612   -0.0384 H       1  LIG1        0.1654
      7 H           2.2781   -0.7437   -0.0804 H       1  LIG1        0.0810
      8 C           1.6994    2.2076   -0.1405 C.3     1  LIG1       -0.0365
      9 H           1.5131    2.8567    0.7247 H       1  LIG1        0.0279
     10 H           1.5125    2.8133   -1.0366 H       1  LIG1        0.0279
     11 H           2.7631    1.9534   -0.1349 H       1  LIG1        0.0279
     12 N          -1.5052    2.0330   -0.1197 N.pl3   1  LIG1       -0.3561
     13 H          -1.3719    2.6334    0.6921 H       1  LIG1        0.1424
     14 H          -1.3520    2.6198   -0.9377 H       1  LIG1        0.1424
     15 C          -2.3113   -0.9726   -0.0502 C.ar    1  LIG1        0.0699
     16 C          -2.7823   -2.2861   -0.0205 C.ar    1  LIG1       -0.0024
     17 C          -4.2055   -2.2055   -0.0245 C.ar    1  LIG1        0.0552
     18 C          -4.5743   -0.8567   -0.0521 C.ar    1  LIG1        0.0849
     19 N          -3.4078   -0.1358   -0.0658 N.ar    1  LIG1       -0.3501
     20 H          -3.2844    0.8709   -0.1111 H       1  LIG1        0.1661
     21 C          -1.9795   -3.5538    0.0102 C.3     1  LIG1       -0.0359
     22 H          -1.3293   -3.6207    0.8933 H       1  LIG1        0.0279
     23 H          -1.3465   -3.6772   -0.8795 H       1  LIG1        0.0279
     24 H          -2.6423   -4.4244    0.0451 H       1  LIG1        0.0279
     25 N          -5.1551   -3.2843   -0.0055 N.pl3   1  LIG1       -0.3561
     26 H          -4.9810   -3.9399   -0.7641 H       1  LIG1        0.1424
     27 H          -5.0944   -3.8161    0.8609 H       1  LIG1        0.1424
     28 C          -5.8922   -0.2614   -0.0706 C.ar    1  LIG1        0.0695
     29 C          -6.3364    1.0636   -0.0213 C.ar    1  LIG1       -0.0031
     30 C          -7.7613    1.0172   -0.0923 C.ar    1  LIG1        0.0457
     31 C          -8.1417   -0.3117   -0.1710 C.ar    1  LIG1        0.0233
     32 N          -6.9995   -1.0730   -0.1471 N.ar    1  LIG1       -0.3576
     33 H          -6.9004   -2.0826   -0.1602 H       1  LIG1        0.1654
     34 H          -9.1226   -0.7599   -0.2298 H       1  LIG1        0.0826
     35 C          -5.5264    2.3192    0.1175 C.3     1  LIG1       -0.0359
     36 H          -6.1717    3.1394    0.4477 H       1  LIG1        0.0279
     37 H          -5.0489    2.6356   -0.8209 H       1  LIG1        0.0279
     38 H          -4.7310    2.2174    0.8649 H       1  LIG1        0.0279
     39 N          -8.6015    2.1576   -0.0133 N.pl3   1  LIG1       -0.3566
     40 H          -8.4218    2.8101   -0.7713 H       1  LIG1        0.1424
     41 H          -9.5811    1.8979   -0.0553 H       1  LIG1        0.1424
@<TRIPOS>BOND
     1    10     8    1
     2    14    12    1
     3    23    21    1
     4    37    35    1
     5    40    39    1
     6    26    25    1
     7    34    31    1
     8    31    32   ar
     9    31    30   ar
    10    33    32    1
    11    32    28   ar
    12     8    11    1
    13     8     2    1
    14     8     9    1
    15    12     3    1
    16    12    13    1
    17    20    19    1
    18     2     3   ar
    19     2     1   ar
    20     3     4   ar
    21    30    29   ar
    22    30    39    1
    23     1     7    1
    24     1     5   ar
    25    28    18    1
    26    28    29   ar
    27     4     5   ar
    28     4    15    1
    29    19    18   ar
    30    19    15   ar
    31     5     6    1
    32    41    39    1
    33    18    17   ar
    34    15    16   ar
    35    17    16   ar
    36    17    25    1
    37    29    35    1
    38    16    21    1
    39    25    27    1
    40    21    24    1
    41    21    22    1
    42    35    36    1
    43    35    38    1
