@<TRIPOS>MOLECULE
mol_data/opt/b3lyp/geoms/mol2/13ih12eh-13el-12ld-6ia-6hh-12he-12ah-.out
 97 104 0 0 0
SMALL
GASTEIGER

@<TRIPOS>ATOM
      1 C          -1.4395   -0.4185   -4.3192 C.ar    1  LIG1        0.0070
      2 C          -1.3475    0.9078   -3.9403 C.ar    1  LIG1       -0.0118
      3 C          -2.1172    1.0522   -2.7454 C.ar    1  LIG1        0.0562
      4 C          -2.6667   -0.2041   -2.4390 C.ar    1  LIG1        0.1046
      5 N          -2.2082   -1.0876   -3.4171 N.ar    1  LIG1       -0.3565
      6 H          -2.5127   -2.0440   -3.4841 H       1  LIG1        0.1655
      7 H          -1.0052   -0.9221   -5.1709 H       1  LIG1        0.0810
      8 C          -0.5656    1.9955   -4.6124 C.3     1  LIG1       -0.0365
      9 H           0.2024    2.4137   -3.9497 H       1  LIG1        0.0279
     10 H          -1.2064    2.8292   -4.9305 H       1  LIG1        0.0279
     11 H          -0.0598    1.6205   -5.5064 H       1  LIG1        0.0279
     12 N          -2.1716    2.2164   -1.9922 N.pl3   1  LIG1       -0.3560
     13 H          -2.0092    3.0585   -2.5278 H       1  LIG1        0.1424
     14 H          -2.9693    2.3095   -1.3752 H       1  LIG1        0.1424
     15 C          -3.4826   -0.6909   -1.3740 C.ar    1  LIG1        0.1708
     16 C          -4.3394   -0.1185   -0.4386 C.ar    1  LIG1        0.0932
     17 C          -4.8725   -1.1998    0.3612 C.ar    1  LIG1        0.0888
     18 C          -4.3494   -2.3672   -0.1557 C.ar    1  LIG1        0.1749
     19 O          -3.4870   -2.0450   -1.2107 O.2     1  LIG1       -0.4486
     20 C          -4.7380    1.2275   -0.2869 C.1     1  LIG1       -0.0639
     21 C          -5.1361    2.3598   -0.1006 C.1     1  LIG1       -0.1137
     22 H          -5.4970    3.3527    0.0372 H       1  LIG1        0.1232
     23 N          -5.6721   -1.0104    1.4625 N.pl3   1  LIG1       -0.3540
     24 H          -6.1181   -0.1037    1.5000 H       1  LIG1        0.1425
     25 H          -6.2775   -1.7807    1.7209 H       1  LIG1        0.1425
     26 C          -4.4072   -3.7563    0.1822 C.ar    1  LIG1        0.1037
     27 C          -5.3441   -4.5236    0.9056 C.ar    1  LIG1        0.0953
     28 C          -4.8282   -5.8630    0.9473 C.ar    1  LIG1        0.1644
     29 C          -3.6414   -5.9043    0.2343 C.ar    1  LIG1        0.1298
     30 N          -3.4162   -4.6100   -0.2232 N.ar    1  LIG1       -0.3453
     31 H          -2.5845   -4.3098   -0.7061 H       1  LIG1        0.1662
     32 C          -6.6070   -4.1107    1.3859 C.1     1  LIG1       -0.0637
     33 C          -7.6964   -3.7758    1.8061 C.1     1  LIG1       -0.1137
     34 H          -8.6820   -3.5179    2.1177 H       1  LIG1        0.1232
     35 O          -5.4173   -6.9505    1.5207 O.3     1  LIG1       -0.4916
     36 C          -5.5739   -6.8862    2.9452 C.3     1  LIG1        0.0789
     37 H          -6.0233   -7.8350    3.2425 H       1  LIG1        0.0660
     38 H          -4.6007   -6.7710    3.4362 H       1  LIG1        0.0660
     39 H          -6.2315   -6.0613    3.2356 H       1  LIG1        0.0660
     40 C          -2.6913   -6.9617   -0.0046 C.ar    1  LIG1        0.1981
     41 C          -2.7324   -8.3098   -0.2818 C.ar    1  LIG1        0.1853
     42 C          -1.3681   -8.7733   -0.3062 C.ar    1  LIG1        0.1397
     43 C          -0.5568   -7.6723   -0.0723 C.ar    1  LIG1        0.1585
     44 O          -1.3534   -6.5866    0.1052 O.2     1  LIG1       -0.4480
     45 O          -3.7420   -9.1645   -0.5261 O.3     1  LIG1       -0.4901
     46 C          -4.9387   -8.6524   -1.1280 C.3     1  LIG1        0.0790
     47 H          -5.4818   -9.5298   -1.4821 H       1  LIG1        0.0660
     48 H          -5.5437   -8.1106   -0.3997 H       1  LIG1        0.0660
     49 H          -4.6957   -8.0049   -1.9779 H       1  LIG1        0.0660
     50 N          -0.6739  -11.2194   -0.7506 N.1     1  LIG1       -0.1906
     51 C          -0.9838  -10.1157   -0.5436 C.1     1  LIG1        0.1067
     52 C           1.5385   -6.4309    0.6437 C.ar    1  LIG1        0.0496
     53 C           0.8872   -7.4984   -0.0281 C.ar    1  LIG1        0.0397
     54 C           1.7162   -8.4478   -0.6598 C.ar    1  LIG1       -0.0473
     55 C           3.0882   -8.3097   -0.6409 C.ar    1  LIG1       -0.0349
     56 C           3.6677   -7.1915   -0.0042 C.ar    1  LIG1        0.0746
     57 N           2.8699   -6.3029    0.6341 N.ar    1  LIG1       -0.2511
     58 H           1.2762   -9.3015   -1.1620 H       1  LIG1        0.0626
     59 C           0.8046   -5.3713    1.4313 C.3     1  LIG1       -0.0216
     60 H           0.0337   -5.8022    2.0748 H       1  LIG1        0.0293
     61 H           0.3017   -4.6580    0.7708 H       1  LIG1        0.0293
     62 H           1.5228   -4.8248    2.0438 H       1  LIG1        0.0293
     63 H           3.7041   -9.0729   -1.0999 H       1  LIG1        0.0639
     64 C           5.7988   -6.0637    0.8806 C.ar    1  LIG1        0.1263
     65 C           5.1195   -6.9647   -0.0075 C.ar    1  LIG1        0.0416
     66 C           5.9420   -7.6240   -0.9372 C.ar    1  LIG1       -0.0264
     67 C           7.3195   -7.4770   -0.9513 C.ar    1  LIG1        0.0548
     68 C           7.8975   -6.6511    0.0497 C.ar    1  LIG1        0.1305
     69 N           7.1337   -5.9438    0.8940 N.ar    1  LIG1       -0.2268
     70 H           5.4849   -8.2344   -1.7110 H       1  LIG1        0.0644
     71 N           5.1357   -5.3130    1.8008 N.pl3   1  LIG1       -0.3426
     72 H           5.6901   -4.6362    2.3006 H       1  LIG1        0.1437
     73 H           4.1333   -5.2212    1.6921 H       1  LIG1        0.1437
     74 N           8.1317   -8.1111   -1.9375 N.pl3   1  LIG1       -0.3562
     75 H           7.5648   -8.5688   -2.6441 H       1  LIG1        0.1424
     76 H           8.7374   -7.4357   -2.3996 H       1  LIG1        0.1424
     77 C           9.3347   -6.4973    0.1897 C.ar    1  LIG1        0.1776
     78 C          10.4221   -7.3507    0.0370 C.ar    1  LIG1        0.0889
     79 C          11.5802   -6.6172    0.4848 C.ar    1  LIG1        0.0948
     80 C          11.1126   -5.3791    0.9052 C.ar    1  LIG1        0.1878
     81 O           9.7794   -5.3030    0.7420 O.2     1  LIG1       -0.4469
     82 N          10.4485   -8.6690   -0.3463 N.pl3   1  LIG1       -0.3540
     83 H           9.6857   -8.9450   -0.9641 H       1  LIG1        0.1425
     84 H          11.3655   -9.0096   -0.6020 H       1  LIG1        0.1425
     85 C          12.9029   -7.1132    0.4863 C.1     1  LIG1       -0.0639
     86 C          14.0202   -7.5842    0.4559 C.1     1  LIG1       -0.1137
     87 H          15.0035   -7.9936    0.4533 H       1  LIG1        0.1232
     88 C          11.7994   -4.2350    1.4313 C.ar    1  LIG1        0.1728
     89 C          13.1282   -4.0015    1.6991 C.ar    1  LIG1        0.0080
     90 C          13.2091   -2.6703    2.2139 C.ar    1  LIG1        0.0635
     91 C          11.9237   -2.1912    2.2209 C.ar    1  LIG1        0.1133
     92 O          11.0556   -3.1395    1.7505 O.2     1  LIG1       -0.4579
     93 H          11.4838   -1.2554    2.5257 H       1  LIG1        0.1049
     94 H          13.9384   -4.7000    1.5524 H       1  LIG1        0.0675
     95 N          14.3710   -2.0444    2.6828 N.pl3   1  LIG1       -0.3555
     96 H          15.1956   -2.2964    2.1520 H       1  LIG1        0.1424
     97 H          14.2919   -1.0363    2.7337 H       1  LIG1        0.1424
@<TRIPOS>BOND
     1    11     8    1
     2     7     1    1
     3    10     8    1
     4     8     9    1
     5     8     2    1
     6     1     2   ar
     7     1     5   ar
     8     2     3   ar
     9     6     5    1
    10     5     4   ar
    11     3     4   ar
    12     3    12    1
    13    75    74    1
    14    13    12    1
    15     4    15    1
    16    76    74    1
    17    12    14    1
    18    49    46    1
    19    74    67    1
    20    70    66    1
    21    47    46    1
    22    15    19   ar
    23    15    16   ar
    24    19    18   ar
    25    58    54    1
    26    46    45    1
    27    46    48    1
    28    63    55    1
    29    83    82    1
    30    67    66   ar
    31    67    68   ar
    32    66    65   ar
    33    50    51    3
    34    31    30    1
    35    54    55   ar
    36    54    53   ar
    37    55    56   ar
    38    84    82    1
    39    51    42    1
    40    45    41    1
    41    16    20    1
    42    16    17   ar
    43    82    78    1
    44    42    41   ar
    45    42    43   ar
    46    20    21    3
    47    41    40   ar
    48    30    26   ar
    49    30    29   ar
    50    18    26    1
    51    18    17   ar
    52    21    22    1
    53    43    53    1
    54    43    44   ar
    55    53    52   ar
    56    65    56    1
    57    65    64   ar
    58    40    44   ar
    59    40    29    1
    60    56    57   ar
    61    78    77   ar
    62    78    79   ar
    63    68    77    1
    64    68    69   ar
    65    26    27   ar
    66    77    81   ar
    67    29    28   ar
    68    17    23    1
    69    87    86    1
    70    86    85    3
    71    79    85    1
    72    79    80   ar
    73    57    52   ar
    74    52    59    1
    75    81    80   ar
    76    61    59    1
    77    64    69   ar
    78    64    71    1
    79    80    88    1
    80    27    28   ar
    81    27    32    1
    82    28    35    1
    83    32    33    3
    84    88    89   ar
    85    88    92   ar
    86    59    62    1
    87    59    60    1
    88    23    24    1
    89    23    25    1
    90    35    36    1
    91    94    89    1
    92    73    71    1
    93    89    90   ar
    94    92    91   ar
    95    71    72    1
    96    33    34    1
    97    96    95    1
    98    90    91   ar
    99    90    95    1
   100    91    93    1
   101    95    97    1
   102    36    39    1
   103    36    37    1
   104    36    38    1
