@<TRIPOS>MOLECULE
mol_data/opt/b3lyp/geoms/mol2/13ih13ih-13ih-13ih.out
 54 57 0 0 0
SMALL
GASTEIGER

@<TRIPOS>ATOM
      1 C           1.3492   -0.3548   -0.0305 C.ar    1  LIG1        0.0069
      2 C           0.9219    0.7822    0.6219 C.ar    1  LIG1       -0.0118
      3 C          -0.5066    0.7193    0.6530 C.ar    1  LIG1        0.0546
      4 C          -0.9097   -0.4567    0.0214 C.ar    1  LIG1        0.0844
      5 N           0.2433   -1.0960   -0.3826 N.ar    1  LIG1       -0.3578
      6 H           0.2631   -1.9524   -0.9093 H       1  LIG1        0.1654
      7 H           2.3472   -0.6928   -0.2681 H       1  LIG1        0.0810
      8 C           1.7763    1.8743    1.1925 C.3     1  LIG1       -0.0365
      9 H           1.6267    1.9901    2.2736 H       1  LIG1        0.0279
     10 H           1.5569    2.8484    0.7365 H       1  LIG1        0.0279
     11 H           2.8385    1.6708    1.0300 H       1  LIG1        0.0279
     12 N          -1.4262    1.6649    1.2247 N.pl3   1  LIG1       -0.3561
     13 H          -1.3005    1.7308    2.2336 H       1  LIG1        0.1424
     14 H          -1.2582    2.5987    0.8551 H       1  LIG1        0.1424
     15 C          -2.2402   -0.9742   -0.2073 C.ar    1  LIG1        0.0699
     16 C          -2.7126   -2.1962   -0.6982 C.ar    1  LIG1       -0.0024
     17 C          -4.1343   -2.1226   -0.6730 C.ar    1  LIG1        0.0552
     18 C          -4.5020   -0.8841   -0.1474 C.ar    1  LIG1        0.0849
     19 N          -3.3268   -0.1982    0.1102 N.ar    1  LIG1       -0.3501
     20 H          -3.2071    0.6736    0.6184 H       1  LIG1        0.1661
     21 C          -1.9176   -3.3842   -1.1584 C.3     1  LIG1       -0.0359
     22 H          -1.0918   -3.6154   -0.4737 H       1  LIG1        0.0279
     23 H          -1.4907   -3.2630   -2.1652 H       1  LIG1        0.0279
     24 H          -2.5514   -4.2761   -1.1852 H       1  LIG1        0.0279
     25 N          -5.0080   -3.1513   -1.0914 N.pl3   1  LIG1       -0.3561
     26 H          -5.9575   -2.8024   -1.1778 H       1  LIG1        0.1424
     27 H          -4.7292   -3.5383   -1.9878 H       1  LIG1        0.1424
     28 C          -5.8074   -0.2901    0.0630 C.ar    1  LIG1        0.0699
     29 C          -6.9778   -0.7887    0.6287 C.ar    1  LIG1       -0.0024
     30 C          -7.9460    0.2598    0.5700 C.ar    1  LIG1        0.0552
     31 C          -7.3555    1.3807   -0.0089 C.ar    1  LIG1        0.0849
     32 N          -6.0537    1.0287   -0.2948 N.ar    1  LIG1       -0.3501
     33 H          -5.4239    1.5791   -0.8550 H       1  LIG1        0.1661
     34 C          -7.1761   -2.1287    1.2746 C.3     1  LIG1       -0.0359
     35 H          -6.2323   -2.6730    1.3518 H       1  LIG1        0.0279
     36 H          -7.8760   -2.7675    0.7183 H       1  LIG1        0.0279
     37 H          -7.5878   -2.0240    2.2867 H       1  LIG1        0.0279
     38 N          -9.3032    0.2376    1.0446 N.pl3   1  LIG1       -0.3561
     39 H          -9.7909   -0.5822    0.6892 H       1  LIG1        0.1424
     40 H          -9.3298    0.1642    2.0610 H       1  LIG1        0.1424
     41 C          -7.9169    2.6810   -0.2971 C.ar    1  LIG1        0.0695
     42 C          -7.3653    3.8608   -0.8051 C.ar    1  LIG1       -0.0031
     43 C          -8.4316    4.8068   -0.8847 C.ar    1  LIG1        0.0457
     44 C          -9.5822    4.1912   -0.4223 C.ar    1  LIG1        0.0233
     45 N          -9.2519    2.9084   -0.0613 N.ar    1  LIG1       -0.3576
     46 H          -9.8362    2.1831    0.3418 H       1  LIG1        0.1654
     47 H         -10.5878    4.5705   -0.3157 H       1  LIG1        0.0826
     48 C          -5.9374    4.1458   -1.1688 C.3     1  LIG1       -0.0359
     49 H          -5.7790    5.2275   -1.2215 H       1  LIG1        0.0279
     50 H          -5.6422    3.7293   -2.1436 H       1  LIG1        0.0279
     51 H          -5.2361    3.7585   -0.4192 H       1  LIG1        0.0279
     52 N          -8.2717    6.1545   -1.2987 N.pl3   1  LIG1       -0.3566
     53 H          -7.9601    6.2177   -2.2640 H       1  LIG1        0.1424
     54 H          -9.1422    6.6696   -1.2218 H       1  LIG1        0.1424
@<TRIPOS>BOND
     1    53    52    1
     2    23    21    1
     3    50    48    1
     4    27    25    1
     5    52    54    1
     6    52    43    1
     7    49    48    1
     8    24    21    1
     9    26    25    1
    10    48    42    1
    11    48    51    1
    12    21    16    1
    13    21    22    1
    14    25    17    1
    15     6     5    1
    16    43    42   ar
    17    43    44   ar
    18    33    32    1
    19    42    41   ar
    20    16    17   ar
    21    16    15   ar
    22    17    18   ar
    23    44    47    1
    24    44    45   ar
    25     5     1   ar
    26     5     4   ar
    27    41    45   ar
    28    41    31    1
    29    32    31   ar
    30    32    28   ar
    31     7     1    1
    32    15     4    1
    33    15    19   ar
    34    18    28    1
    35    18    19   ar
    36    45    46    1
    37     1     2   ar
    38    31    30   ar
    39     4     3   ar
    40    28    29   ar
    41    19    20    1
    42    30    29   ar
    43    30    38    1
    44     2     3   ar
    45     2     8    1
    46    29    34    1
    47     3    12    1
    48    39    38    1
    49    36    34    1
    50    10     8    1
    51    14    12    1
    52    11     8    1
    53    38    40    1
    54     8     9    1
    55    12    13    1
    56    34    35    1
    57    34    37    1
