@<TRIPOS>MOLECULE
mol_data/opt/b3lyp/geoms/mol2/13ih13ih13ih.out
 41 43 0 0 0
SMALL
GASTEIGER

@<TRIPOS>ATOM
      1 C           0.9238    0.0035    1.3298 C.ar    1  LIG1        0.0069
      2 C           0.8620    0.9902    0.3677 C.ar    1  LIG1       -0.0118
      3 C          -0.4294    0.8872   -0.2422 C.ar    1  LIG1        0.0546
      4 C          -1.1178   -0.1533    0.3686 C.ar    1  LIG1        0.0844
      5 N          -0.2512   -0.7052    1.3140 N.ar    1  LIG1       -0.3578
      6 H          -0.5663   -1.3021    2.0624 H       1  LIG1        0.1654
      7 H           1.7212   -0.2452    2.0153 H       1  LIG1        0.0810
      8 C           1.9334    1.9711   -0.0024 C.3     1  LIG1       -0.0365
      9 H           1.5738    3.0048    0.0689 H       1  LIG1        0.0279
     10 H           2.2924    1.8288   -1.0315 H       1  LIG1        0.0279
     11 H           2.8016    1.8741    0.6559 H       1  LIG1        0.0279
     12 N          -0.9049    1.7231   -1.2711 N.pl3   1  LIG1       -0.3561
     13 H          -0.1878    1.9321   -1.9580 H       1  LIG1        0.1424
     14 H          -1.7080    1.3163   -1.7395 H       1  LIG1        0.1424
     15 C          -2.4344   -0.7082    0.1127 C.ar    1  LIG1        0.0699
     16 C          -3.6799   -0.0955   -0.0306 C.ar    1  LIG1       -0.0024
     17 C          -4.6334   -1.1332   -0.2552 C.ar    1  LIG1        0.0552
     18 C          -3.9711   -2.3561   -0.2272 C.ar    1  LIG1        0.0849
     19 N          -2.6281   -2.0692   -0.0048 N.ar    1  LIG1       -0.3501
     20 H          -1.9000   -2.7611    0.0658 H       1  LIG1        0.1661
     21 C          -3.9972    1.3646    0.1015 C.3     1  LIG1       -0.0359
     22 H          -4.8146    1.5227    0.8156 H       1  LIG1        0.0279
     23 H          -4.3154    1.8189   -0.8481 H       1  LIG1        0.0279
     24 H          -3.1267    1.9266    0.4478 H       1  LIG1        0.0279
     25 N          -6.0192   -0.9346   -0.4116 N.pl3   1  LIG1       -0.3561
     26 H          -6.2268   -0.1155   -0.9731 H       1  LIG1        0.1424
     27 H          -6.4676   -1.7464   -0.8236 H       1  LIG1        0.1424
     28 C          -4.4526   -3.7094   -0.4340 C.ar    1  LIG1        0.0695
     29 C          -5.5468   -4.3872    0.0939 C.ar    1  LIG1       -0.0031
     30 C          -5.5436   -5.7011   -0.4806 C.ar    1  LIG1        0.0457
     31 C          -4.4591   -5.7934   -1.3265 C.ar    1  LIG1        0.0233
     32 N          -3.7743   -4.5898   -1.2613 N.ar    1  LIG1       -0.3576
     33 H          -3.1101   -4.2833   -1.9541 H       1  LIG1        0.1654
     34 H          -4.0962   -6.6184   -1.9214 H       1  LIG1        0.0826
     35 C          -6.4916   -3.9115    1.1575 C.3     1  LIG1       -0.0359
     36 H          -6.5392   -4.6297    1.9854 H       1  LIG1        0.0279
     37 H          -7.5194   -3.7884    0.7871 H       1  LIG1        0.0279
     38 H          -6.1790   -2.9447    1.5584 H       1  LIG1        0.0279
     39 N          -6.4397   -6.7252   -0.1102 N.pl3   1  LIG1       -0.3566
     40 H          -7.3927   -6.3876   -0.0286 H       1  LIG1        0.1424
     41 H          -6.4239   -7.5068   -0.7552 H       1  LIG1        0.1424
@<TRIPOS>BOND
     1    13    12    1
     2    33    32    1
     3    34    31    1
     4    14    12    1
     5    31    32   ar
     6    31    30   ar
     7    12     3    1
     8    32    28   ar
     9    10     8    1
    10    26    25    1
    11    23    21    1
    12    27    25    1
    13    41    39    1
    14    30    39    1
    15    30    29   ar
    16    28    18    1
    17    28    29   ar
    18    25    17    1
    19    17    18   ar
    20    17    16   ar
    21     3     2   ar
    22     3     4   ar
    23    18    19   ar
    24    39    40    1
    25    16    21    1
    26    16    15   ar
    27    19    20    1
    28    19    15   ar
    29     8     9    1
    30     8     2    1
    31     8    11    1
    32    29    35    1
    33    21    24    1
    34    21    22    1
    35    15     4    1
    36     2     1   ar
    37     4     5   ar
    38    37    35    1
    39    35    38    1
    40    35    36    1
    41     5     1   ar
    42     5     6    1
    43     1     7    1
