@<TRIPOS>MOLECULE
mol_data/opt/b3lyp/geoms/mol2/13ih13ih13ih-13ih.out
 54 57 0 0 0
SMALL
GASTEIGER

@<TRIPOS>ATOM
      1 C           1.1922    0.0612    0.8028 C.ar    1  LIG1        0.0069
      2 C           0.9228    1.0818   -0.0858 C.ar    1  LIG1       -0.0118
      3 C          -0.4580    0.9600   -0.4434 C.ar    1  LIG1        0.0546
      4 C          -0.9922   -0.1235    0.2431 C.ar    1  LIG1        0.0844
      5 N           0.0531   -0.6831    0.9801 N.ar    1  LIG1       -0.3578
      6 H          -0.0961   -1.3275    1.7400 H       1  LIG1        0.1654
      7 H           2.1127   -0.1895    1.3098 H       1  LIG1        0.0810
      8 C           1.8799    2.1102   -0.6089 C.3     1  LIG1       -0.0365
      9 H           1.5214    3.1287   -0.4168 H       1  LIG1        0.0279
     10 H           2.0325    2.0248   -1.6940 H       1  LIG1        0.0279
     11 H           2.8625    2.0092   -0.1387 H       1  LIG1        0.0279
     12 N          -1.1445    1.8181   -1.3251 N.pl3   1  LIG1       -0.3561
     13 H          -0.5643    2.1086   -2.1053 H       1  LIG1        0.1424
     14 H          -1.9899    1.3848   -1.6829 H       1  LIG1        0.1424
     15 C          -2.3193   -0.7087    0.2269 C.ar    1  LIG1        0.0699
     16 C          -3.5875   -0.1446    0.3211 C.ar    1  LIG1       -0.0024
     17 C          -4.5266   -1.2186    0.2484 C.ar    1  LIG1        0.0552
     18 C          -3.8261   -2.4172    0.1267 C.ar    1  LIG1        0.0849
     19 N          -2.4862   -2.0859    0.1350 N.ar    1  LIG1       -0.3501
     20 H          -1.7422   -2.7158   -0.1158 H       1  LIG1        0.1661
     21 C          -3.9278    1.2984    0.5531 C.3     1  LIG1       -0.0359
     22 H          -4.4626    1.4352    1.5022 H       1  LIG1        0.0279
     23 H          -4.5803    1.6996   -0.2337 H       1  LIG1        0.0279
     24 H          -3.0309    1.9203    0.5817 H       1  LIG1        0.0279
     25 N          -5.9601   -1.1461    0.3168 N.pl3   1  LIG1       -0.3561
     26 H          -6.2637   -0.7920    1.2227 H       1  LIG1        0.1424
     27 H          -6.3206   -0.4947   -0.3776 H       1  LIG1        0.1424
     28 C          -4.3169   -3.7691    0.0121 C.ar    1  LIG1        0.0699
     29 C          -3.6771   -5.0069   -0.0802 C.ar    1  LIG1       -0.0024
     30 C          -4.7060   -5.9872   -0.1831 C.ar    1  LIG1        0.0552
     31 C          -5.9448   -5.3379   -0.1477 C.ar    1  LIG1        0.0849
     32 N          -5.6773   -3.9983   -0.0296 N.ar    1  LIG1       -0.3501
     33 H          -6.3303   -3.2226    0.0188 H       1  LIG1        0.1661
     34 C          -2.2029   -5.2868   -0.0702 C.3     1  LIG1       -0.0359
     35 H          -1.7025   -4.8648    0.8108 H       1  LIG1        0.0279
     36 H          -1.6879   -4.8989   -0.9610 H       1  LIG1        0.0279
     37 H          -2.0200   -6.3660   -0.0512 H       1  LIG1        0.0279
     38 N          -4.5640   -7.4127   -0.3000 N.pl3   1  LIG1       -0.3561
     39 H          -3.9709   -7.6598   -1.0891 H       1  LIG1        0.1424
     40 H          -4.1280   -7.8108    0.5298 H       1  LIG1        0.1424
     41 C          -7.2780   -5.8931   -0.2186 C.ar    1  LIG1        0.0695
     42 C          -8.5511   -5.3231   -0.1191 C.ar    1  LIG1       -0.0031
     43 C          -9.4871   -6.3878   -0.2855 C.ar    1  LIG1        0.0457
     44 C          -8.7724   -7.5594   -0.4690 C.ar    1  LIG1        0.0233
     45 N          -7.4374   -7.2447   -0.4162 N.ar    1  LIG1       -0.3576
     46 H          -6.6301   -7.8555   -0.4851 H       1  LIG1        0.1654
     47 H          -9.1119   -8.5737   -0.6192 H       1  LIG1        0.0826
     48 C          -8.9194   -3.8926    0.1453 C.3     1  LIG1       -0.0359
     49 H          -9.9627   -3.8349    0.4713 H       1  LIG1        0.0279
     50 H          -8.8157   -3.2465   -0.7380 H       1  LIG1        0.0279
     51 H          -8.3110   -3.4488    0.9419 H       1  LIG1        0.0279
     52 N         -10.8945   -6.2351   -0.1926 N.pl3   1  LIG1       -0.3566
     53 H         -11.2520   -5.6004   -0.9012 H       1  LIG1        0.1424
     54 H         -11.3702   -7.1238   -0.3061 H       1  LIG1        0.1424
@<TRIPOS>BOND
     1    13    12    1
     2    10     8    1
     3    14    12    1
     4    12     3    1
     5    39    38    1
     6    36    34    1
     7    53    52    1
     8    50    48    1
     9    47    44    1
    10     8     9    1
    11     8    11    1
    12     8     2    1
    13    46    45    1
    14    44    45   ar
    15    44    43   ar
    16     3     2   ar
    17     3     4   ar
    18    45    41   ar
    19    27    25    1
    20    54    52    1
    21    38    30    1
    22    38    40    1
    23    43    52    1
    24    43    42   ar
    25    23    21    1
    26    41    31    1
    27    41    42   ar
    28    30    31   ar
    29    30    29   ar
    30    31    32   ar
    31    42    48    1
    32    20    19    1
    33     2     1   ar
    34    29    34    1
    35    29    28   ar
    36    34    37    1
    37    34    35    1
    38    32    28   ar
    39    32    33    1
    40    28    18    1
    41    18    19   ar
    42    18    17   ar
    43    19    15   ar
    44    48    49    1
    45    48    51    1
    46    15     4    1
    47    15    16   ar
    48     4     5   ar
    49    17    25    1
    50    17    16   ar
    51    25    26    1
    52    16    21    1
    53    21    24    1
    54    21    22    1
    55     1     5   ar
    56     1     7    1
    57     5     6    1
