@<TRIPOS>MOLECULE
mol_data/opt/b3lyp/geoms/mol2/13ih12ih12eh-13lh.out
 52 55 0 0 0
SMALL
GASTEIGER

@<TRIPOS>ATOM
      1 C           1.2339   -0.0433    0.2801 C.ar    1  LIG1        0.0070
      2 C           0.8750    1.2323   -0.1180 C.ar    1  LIG1       -0.0118
      3 C          -0.5473    1.2382   -0.2380 C.ar    1  LIG1        0.0562
      4 C          -1.0152   -0.0302    0.1094 C.ar    1  LIG1        0.1036
      5 N           0.1046   -0.7966    0.4092 N.ar    1  LIG1       -0.3565
      6 H           0.0531   -1.7626    0.6860 H       1  LIG1        0.1655
      7 H           2.2131   -0.4554    0.4762 H       1  LIG1        0.0810
      8 C           1.7895    2.3889   -0.3903 C.3     1  LIG1       -0.0365
      9 H           1.5953    3.2341    0.2818 H       1  LIG1        0.0279
     10 H           1.6864    2.7653   -1.4176 H       1  LIG1        0.0279
     11 H           2.8361    2.0996   -0.2602 H       1  LIG1        0.0279
     12 N          -1.3215    2.3494   -0.6216 N.pl3   1  LIG1       -0.3560
     13 H          -0.7890    3.0045   -1.1833 H       1  LIG1        0.1424
     14 H          -2.1572    2.0800   -1.1297 H       1  LIG1        0.1424
     15 C          -2.3315   -0.6120    0.1565 C.ar    1  LIG1        0.1584
     16 C          -3.5929   -0.1319    0.4372 C.ar    1  LIG1        0.0182
     17 C          -4.4811   -1.2542    0.3324 C.ar    1  LIG1        0.0777
     18 C          -3.7065   -2.3573    0.0034 C.ar    1  LIG1        0.1927
     19 O          -2.3822   -1.9565   -0.1017 O.2     1  LIG1       -0.4480
     20 C          -4.0044    1.2300    0.9101 C.3     1  LIG1       -0.0343
     21 H          -4.5012    1.1627    1.8858 H       1  LIG1        0.0279
     22 H          -4.7165    1.7086    0.2227 H       1  LIG1        0.0279
     23 H          -3.1482    1.8988    1.0108 H       1  LIG1        0.0279
     24 N          -5.8249   -1.2024    0.6597 N.pl3   1  LIG1       -0.3547
     25 H          -6.2500   -0.2958    0.5218 H       1  LIG1        0.1424
     26 H          -6.4000   -1.9541    0.2975 H       1  LIG1        0.1424
     27 C          -3.9700   -3.7431   -0.2046 C.ar    1  LIG1        0.1896
     28 C          -5.1186   -4.4820   -0.4842 C.ar    1  LIG1        0.0948
     29 C          -4.7152   -5.8685   -0.5439 C.ar    1  LIG1        0.0889
     30 C          -3.3585   -5.8894   -0.3209 C.ar    1  LIG1        0.1773
     31 O          -2.9094   -4.5907   -0.1035 O.2     1  LIG1       -0.4469
     32 C          -6.4225   -4.0278   -0.7780 C.1     1  LIG1       -0.0639
     33 C          -7.5605   -3.6985   -1.0476 C.1     1  LIG1       -0.1137
     34 H          -8.5489   -3.4056   -1.3160 H       1  LIG1        0.1232
     35 N          -5.5774   -6.9333   -0.7447 N.pl3   1  LIG1       -0.3540
     36 H          -6.3934   -6.7011   -1.2956 H       1  LIG1        0.1425
     37 H          -5.1141   -7.7887   -1.0326 H       1  LIG1        0.1425
     38 C          -2.3502   -6.9123   -0.3033 C.ar    1  LIG1        0.1280
     39 C          -2.4092   -8.3010   -0.4197 C.ar    1  LIG1        0.1689
     40 C          -1.0832   -8.8188   -0.3752 C.ar    1  LIG1        0.0851
     41 C          -0.2357   -7.7373   -0.2314 C.ar    1  LIG1        0.0268
     42 N          -1.0172   -6.5961   -0.1806 N.ar    1  LIG1       -0.3536
     43 H          -0.6817   -5.6490   -0.1317 H       1  LIG1        0.1656
     44 H           0.8389   -7.6893   -0.1477 H       1  LIG1        0.0827
     45 O          -3.5454   -9.0740   -0.5841 O.3     1  LIG1       -0.4910
     46 C          -3.9691   -9.7236    0.6275 C.3     1  LIG1        0.0790
     47 H          -4.8182  -10.3576    0.3607 H       1  LIG1        0.0660
     48 H          -3.1615  -10.3394    1.0372 H       1  LIG1        0.0660
     49 H          -4.2841   -8.9853    1.3730 H       1  LIG1        0.0660
     50 N          -0.7791  -10.1949   -0.4012 N.pl3   1  LIG1       -0.3540
     51 H          -1.4006  -10.6873   -1.0352 H       1  LIG1        0.1425
     52 H           0.1799  -10.3739   -0.6759 H       1  LIG1        0.1425
@<TRIPOS>BOND
     1    10     8    1
     2    34    33    1
     3    36    35    1
     4    13    12    1
     5    14    12    1
     6    33    32    3
     7    51    50    1
     8    37    35    1
     9    32    28    1
    10    35    29    1
    11    52    50    1
    12    12     3    1
    13    45    39    1
    14    45    46    1
    15    29    28   ar
    16    29    30   ar
    17    28    27   ar
    18    39    40   ar
    19    39    38   ar
    20    50    40    1
    21     8    11    1
    22     8     2    1
    23     8     9    1
    24    40    41   ar
    25    30    38    1
    26    30    31   ar
    27    38    42   ar
    28     3     2   ar
    29     3     4   ar
    30    41    42   ar
    31    41    44    1
    32    27    31   ar
    33    27    18    1
    34    42    43    1
    35     2     1   ar
    36    19    18   ar
    37    19    15   ar
    38    18    17   ar
    39     4    15    1
    40     4     5   ar
    41    15    16   ar
    42    22    20    1
    43     1     5   ar
    44     1     7    1
    45    26    24    1
    46    17    16   ar
    47    17    24    1
    48    47    46    1
    49     5     6    1
    50    16    20    1
    51    25    24    1
    52    46    48    1
    53    46    49    1
    54    20    23    1
    55    20    21    1
