@<TRIPOS>MOLECULE
mol_data/opt/b3lyp/geoms/mol2/13ih13ih-13ih-13ih-.out
 54 57 0 0 0
SMALL
GASTEIGER

@<TRIPOS>ATOM
      1 C           1.3007   -0.1390    0.1675 C.ar    1  LIG1        0.0069
      2 C           0.7831    0.9973    0.7523 C.ar    1  LIG1       -0.0118
      3 C          -0.6403    0.8636    0.7082 C.ar    1  LIG1        0.0546
      4 C          -0.9499   -0.3527    0.1010 C.ar    1  LIG1        0.0844
      5 N           0.2535   -0.9475   -0.2144 N.ar    1  LIG1       -0.3578
      6 H           0.3437   -1.8194   -0.7073 H       1  LIG1        0.1654
      7 H           2.3256   -0.4343   -0.0029 H       1  LIG1        0.0810
      8 C           1.5508    2.1497    1.3275 C.3     1  LIG1       -0.0365
      9 H           1.3354    2.2944    2.3938 H       1  LIG1        0.0279
     10 H           1.3110    3.0956    0.8248 H       1  LIG1        0.0279
     11 H           2.6289    1.9939    1.2304 H       1  LIG1        0.0279
     12 N          -1.6356    1.7794    1.1950 N.pl3   1  LIG1       -0.3561
     13 H          -1.5932    1.8583    2.2100 H       1  LIG1        0.1424
     14 H          -1.4733    2.7155    0.8292 H       1  LIG1        0.1424
     15 C          -2.2390   -0.9442   -0.1803 C.ar    1  LIG1        0.0699
     16 C          -2.6245   -2.2140   -0.6226 C.ar    1  LIG1       -0.0024
     17 C          -4.0474   -2.2084   -0.6850 C.ar    1  LIG1        0.0552
     18 C          -4.5021   -0.9601   -0.2610 C.ar    1  LIG1        0.0849
     19 N          -3.3770   -0.2036    0.0228 N.ar    1  LIG1       -0.3501
     20 H          -3.3279    0.6919    0.5008 H       1  LIG1        0.1661
     21 C          -1.7523   -3.3886   -0.9599 C.3     1  LIG1       -0.0359
     22 H          -0.9459   -3.5234   -0.2282 H       1  LIG1        0.0279
     23 H          -1.2895   -3.3201   -1.9558 H       1  LIG1        0.0279
     24 H          -2.3407   -4.3114   -0.9435 H       1  LIG1        0.0279
     25 N          -4.8428   -3.3031   -1.0900 N.pl3   1  LIG1       -0.3561
     26 H          -5.8083   -3.0189   -1.2203 H       1  LIG1        0.1424
     27 H          -4.5091   -3.7109   -1.9579 H       1  LIG1        0.1424
     28 C          -5.8441   -0.4166   -0.1739 C.ar    1  LIG1        0.0699
     29 C          -7.0217   -0.9430    0.3603 C.ar    1  LIG1       -0.0024
     30 C          -8.0374    0.0443    0.1879 C.ar    1  LIG1        0.0552
     31 C          -7.4718    1.1587   -0.4227 C.ar    1  LIG1        0.0849
     32 N          -6.1334    0.8485   -0.6411 N.ar    1  LIG1       -0.3501
     33 H          -5.4573    1.4816   -1.0363 H       1  LIG1        0.1661
     34 C          -7.1984   -2.2508    1.0744 C.3     1  LIG1       -0.0359
     35 H          -6.2333   -2.7157    1.2896 H       1  LIG1        0.0279
     36 H          -7.7866   -2.9804    0.4985 H       1  LIG1        0.0279
     37 H          -7.7258   -2.1028    2.0245 H       1  LIG1        0.0279
     38 N          -9.3694   -0.0856    0.6293 N.pl3   1  LIG1       -0.3561
     39 H          -9.9748    0.6006    0.1907 H       1  LIG1        0.1424
     40 H          -9.7391   -1.0149    0.4586 H       1  LIG1        0.1424
     41 C          -8.0573    2.4140   -0.8551 C.ar    1  LIG1        0.0695
     42 C          -8.9088    3.3041   -0.2078 C.ar    1  LIG1       -0.0031
     43 C          -9.1777    4.3712   -1.1269 C.ar    1  LIG1        0.0457
     44 C          -8.4877    4.1140   -2.2922 C.ar    1  LIG1        0.0233
     45 N          -7.7738    2.9404   -2.1044 N.ar    1  LIG1       -0.3576
     46 H          -7.3939    2.3862   -2.8551 H       1  LIG1        0.1654
     47 H          -8.4073    4.6842   -3.2058 H       1  LIG1        0.0826
     48 C          -9.3685    3.2557    1.2194 C.3     1  LIG1       -0.0359
     49 H          -8.8964    2.4302    1.7568 H       1  LIG1        0.0279
     50 H         -10.4557    3.1189    1.3101 H       1  LIG1        0.0279
     51 H          -9.1248    4.1903    1.7396 H       1  LIG1        0.0279
     52 N          -9.9195    5.5256   -0.7994 N.pl3   1  LIG1       -0.3566
     53 H         -10.1798    6.0637   -1.6180 H       1  LIG1        0.1424
     54 H         -10.7588    5.3032   -0.2748 H       1  LIG1        0.1424
@<TRIPOS>BOND
     1    47    44    1
     2    46    45    1
     3    44    45   ar
     4    44    43   ar
     5    45    41   ar
     6    27    25    1
     7    23    21    1
     8    53    52    1
     9    26    25    1
    10    43    52    1
    11    43    42   ar
    12    25    17    1
    13    33    32    1
    14    21    24    1
    15    21    16    1
    16    21    22    1
    17    41    31    1
    18    41    42   ar
    19    52    54    1
    20     6     5    1
    21    17    16   ar
    22    17    18   ar
    23    32    31   ar
    24    32    28   ar
    25    16    15   ar
    26    31    30   ar
    27    18    28    1
    28    18    19   ar
    29     5     4   ar
    30     5     1   ar
    31    42    48    1
    32    15    19   ar
    33    15     4    1
    34    28    29   ar
    35     7     1    1
    36    19    20    1
    37     4     3   ar
    38     1     2   ar
    39    30    29   ar
    40    30    38    1
    41    39    38    1
    42    29    34    1
    43    40    38    1
    44    36    34    1
    45     3     2   ar
    46     3    12    1
    47     2     8    1
    48    10     8    1
    49    14    12    1
    50    34    35    1
    51    34    37    1
    52    12    13    1
    53    48    50    1
    54    48    51    1
    55    48    49    1
    56    11     8    1
    57     8     9    1
