@<TRIPOS>MOLECULE
mol_data/opt/b3lyp/geoms/mol2/13ih4fl6ee4hh-.out
 50 53 0 0 0
SMALL
GASTEIGER

@<TRIPOS>ATOM
      1 C           1.2433   -0.2912    0.6648 C.ar    1  LIG1        0.0087
      2 C           0.8470    0.9964    0.9475 C.ar    1  LIG1        0.0090
      3 C          -0.5266    1.0891    0.5689 C.ar    1  LIG1        0.1463
      4 C          -0.9370   -0.1540    0.0746 C.ar    1  LIG1        0.1065
      5 N           0.1709   -1.0032    0.1819 N.ar    1  LIG1       -0.3563
      6 H           0.2813   -1.8213   -0.3982 H       1  LIG1        0.1655
      7 H           2.2145   -0.7534    0.7680 H       1  LIG1        0.0811
      8 C           1.6522    2.1027    1.5559 C.3     1  LIG1       -0.0348
      9 H           1.2740    2.3770    2.5472 H       1  LIG1        0.0279
     10 H           1.6077    3.0063    0.9392 H       1  LIG1        0.0279
     11 H           2.7012    1.8129    1.6642 H       1  LIG1        0.0279
     12 O          -1.2339    2.2196    0.8000 O.3     1  LIG1       -0.5043
     13 H          -1.9735    2.3211    0.1782 H       1  LIG1        0.2922
     14 C          -2.2122   -0.6731   -0.3329 C.ar    1  LIG1        0.0882
     15 C          -3.3549   -0.0422   -0.8610 C.ar    1  LIG1        0.1204
     16 C          -4.3490   -1.0492   -1.0592 C.ar    1  LIG1        0.1602
     17 C          -3.8190   -2.2700   -0.6765 C.ar    1  LIG1        0.0936
     18 N          -2.5020   -2.0087   -0.2670 N.ar    1  LIG1       -0.3489
     19 H          -1.9538   -2.6773    0.2540 H       1  LIG1        0.1661
     20 N          -3.4535    2.4700   -1.4208 N.1     1  LIG1       -0.1907
     21 C          -3.4455    1.3254   -1.1881 C.1     1  LIG1        0.1050
     22 O          -5.5699   -0.7722   -1.5815 O.3     1  LIG1       -0.5034
     23 H          -6.0000   -1.5998   -1.8384 H       1  LIG1        0.2923
     24 C          -3.7012   -4.7897   -0.9056 C.ar    1  LIG1        0.1263
     25 C          -4.4279   -3.5936   -0.6291 C.ar    1  LIG1        0.0426
     26 C          -5.7792   -3.7654   -0.3313 C.ar    1  LIG1       -0.0317
     27 C          -6.3786   -5.0378   -0.2716 C.ar    1  LIG1        0.0528
     28 C          -5.5308   -6.1600   -0.4429 C.ar    1  LIG1        0.1057
     29 N          -4.2343   -6.0001   -0.7978 N.ar    1  LIG1       -0.2290
     30 H          -6.3982   -2.8994   -0.1179 H       1  LIG1        0.0638
     31 N          -2.3503   -4.7358   -1.2480 N.pl3   1  LIG1       -0.3426
     32 H          -2.0136   -5.6324   -1.5773 H       1  LIG1        0.1437
     33 H          -2.0998   -3.9684   -1.8599 H       1  LIG1        0.1437
     34 C          -7.7935   -5.1177   -0.1341 C.1     1  LIG1       -0.0674
     35 C          -9.0021   -5.1051   -0.0735 C.1     1  LIG1       -0.1138
     36 H         -10.0635   -5.1440    0.0063 H       1  LIG1        0.1232
     37 C          -5.9489   -7.5549   -0.3339 C.ar    1  LIG1        0.0820
     38 C          -6.8638   -8.2659    0.4639 C.ar    1  LIG1        0.0543
     39 C          -6.7350   -9.6579    0.1306 C.ar    1  LIG1       -0.0171
     40 C          -5.7507   -9.7467   -0.8308 C.ar    1  LIG1        0.0063
     41 N          -5.2862   -8.4880   -1.0940 N.ar    1  LIG1       -0.3582
     42 H          -4.5141   -8.2300   -1.6885 H       1  LIG1        0.1654
     43 H          -5.3579  -10.6112   -1.3459 H       1  LIG1        0.0810
     44 C          -7.6767   -7.7923    1.5226 C.1     1  LIG1       -0.0672
     45 C          -8.3641   -7.4716    2.4672 C.1     1  LIG1       -0.1138
     46 H          -8.9615   -7.1532    3.2891 H       1  LIG1        0.1232
     47 C          -7.5147  -10.7823    0.7392 C.3     1  LIG1       -0.0371
     48 H          -7.1767  -11.7489    0.3549 H       1  LIG1        0.0278
     49 H          -8.5859  -10.6912    0.5266 H       1  LIG1        0.0278
     50 H          -7.4086  -10.7943    1.8296 H       1  LIG1        0.0278
@<TRIPOS>BOND
     1    33    31    1
     2    23    22    1
     3    42    41    1
     4    22    16    1
     5    32    31    1
     6    20    21    3
     7    43    40    1
     8    31    24    1
     9    21    15    1
    10    41    40   ar
    11    41    37   ar
    12    16    15   ar
    13    16    17   ar
    14    24    29   ar
    15    24    25   ar
    16    15    14   ar
    17    40    39   ar
    18    29    28   ar
    19    17    25    1
    20    17    18   ar
    21    25    26   ar
    22    28    37    1
    23    28    27   ar
    24     6     5    1
    25    37    38   ar
    26    14    18   ar
    27    14     4    1
    28    26    27   ar
    29    26    30    1
    30    27    34    1
    31    18    19    1
    32    34    35    3
    33    35    36    1
    34     4     5   ar
    35     4     3   ar
    36    39    38   ar
    37    39    47    1
    38    13    12    1
    39     5     1   ar
    40    48    47    1
    41    38    44    1
    42    49    47    1
    43     3    12    1
    44     3     2   ar
    45     1     7    1
    46     1     2   ar
    47    47    50    1
    48    10     8    1
    49     2     8    1
    50    44    45    3
    51     8    11    1
    52     8     9    1
    53    45    46    1
