@<TRIPOS>MOLECULE
mol_data/opt/b3lyp/geoms/mol2/13ih13ih-4ih13ih.out
 56 59 0 0 0
SMALL
GASTEIGER

@<TRIPOS>ATOM
      1 C           1.4324   -0.4311    0.0914 C.ar    1  LIG1        0.0069
      2 C           1.0175    0.7708    0.6246 C.ar    1  LIG1       -0.0118
      3 C          -0.4121    0.7578    0.5901 C.ar    1  LIG1        0.0546
      4 C          -0.8285   -0.4536    0.0387 C.ar    1  LIG1        0.0844
      5 N           0.3178   -1.1628   -0.2519 N.ar    1  LIG1       -0.3578
      6 H           0.3310   -2.0611   -0.7036 H       1  LIG1        0.1654
      7 H           2.4272   -0.8209   -0.0666 H       1  LIG1        0.0810
      8 C           1.8849    1.8791    1.1419 C.3     1  LIG1       -0.0365
      9 H           1.6743    2.1072    2.1945 H       1  LIG1        0.0279
     10 H           1.7397    2.8113    0.5806 H       1  LIG1        0.0279
     11 H           2.9444    1.6178    1.0696 H       1  LIG1        0.0279
     12 N          -1.3206    1.7796    1.0337 N.pl3   1  LIG1       -0.3561
     13 H          -1.2515    1.9167    2.0408 H       1  LIG1        0.1424
     14 H          -1.0920    2.6750    0.6066 H       1  LIG1        0.1424
     15 C          -2.1650   -0.9411   -0.2188 C.ar    1  LIG1        0.0699
     16 C          -2.6599   -2.1714   -0.6674 C.ar    1  LIG1       -0.0024
     17 C          -4.0754   -2.0441   -0.7152 C.ar    1  LIG1        0.0538
     18 C          -4.4222   -0.7558   -0.2896 C.ar    1  LIG1        0.0685
     19 N          -3.2324   -0.1108   -0.0076 N.ar    1  LIG1       -0.3513
     20 H          -3.0963    0.8003    0.4177 H       1  LIG1        0.1660
     21 C          -1.8885   -3.4120   -1.0153 C.3     1  LIG1       -0.0359
     22 H          -1.1089   -3.6301   -0.2744 H       1  LIG1        0.0279
     23 H          -1.4058   -3.3666   -2.0028 H       1  LIG1        0.0279
     24 H          -2.5505   -4.2836   -1.0227 H       1  LIG1        0.0279
     25 N          -4.9583   -3.0744   -1.1097 N.pl3   1  LIG1       -0.3561
     26 H          -5.8814   -2.7075   -1.3172 H       1  LIG1        0.1424
     27 H          -4.6173   -3.5635   -1.9312 H       1  LIG1        0.1424
     28 C          -6.0295    1.2041   -0.4557 C.ar    1  LIG1       -0.0406
     29 C          -7.3326    1.6648   -0.2642 C.ar    1  LIG1       -0.0473
     30 C          -5.7421   -0.1451   -0.1239 C.ar    1  LIG1        0.0048
     31 C          -8.3877    0.8726    0.2172 C.ar    1  LIG1        0.0195
     32 H          -7.5464    2.7054   -0.4889 H       1  LIG1        0.0627
     33 C          -6.7881   -0.9466    0.3726 C.ar    1  LIG1       -0.0310
     34 C          -8.0922   -0.4752    0.5392 C.ar    1  LIG1        0.0344
     35 H          -6.5643   -1.9677    0.6714 H       1  LIG1        0.0643
     36 C          -4.9929    2.1487   -1.0231 C.3     1  LIG1       -0.0391
     37 H          -5.4784    3.0121   -1.4869 H       1  LIG1        0.0278
     38 H          -4.3726    1.6589   -1.7799 H       1  LIG1        0.0278
     39 H          -4.3100    2.5412   -0.2582 H       1  LIG1        0.0278
     40 N          -9.0784   -1.3197    1.0892 N.pl3   1  LIG1       -0.3574
     41 H         -10.0014   -1.1599    0.7004 H       1  LIG1        0.1423
     42 H          -8.8314   -2.3003    1.0334 H       1  LIG1        0.1423
     43 C          -9.7296    1.4447    0.3911 C.ar    1  LIG1        0.0530
     44 C         -10.4471    2.3625   -0.3784 C.ar    1  LIG1       -0.0045
     45 C         -11.6747    2.6197    0.3078 C.ar    1  LIG1        0.0456
     46 C         -11.6835    1.8590    1.4612 C.ar    1  LIG1        0.0233
     47 N         -10.5078    1.1392    1.4904 N.ar    1  LIG1       -0.3588
     48 H         -10.1900    0.5573    2.2494 H       1  LIG1        0.1654
     49 H         -12.4226    1.7691    2.2430 H       1  LIG1        0.0826
     50 C         -10.0737    2.9466   -1.7090 C.3     1  LIG1       -0.0360
     51 H          -9.7902    4.0052   -1.6392 H       1  LIG1        0.0279
     52 H         -10.9106    2.8928   -2.4192 H       1  LIG1        0.0279
     53 H          -9.2368    2.4081   -2.1602 H       1  LIG1        0.0279
     54 N         -12.6572    3.5388   -0.1169 N.pl3   1  LIG1       -0.3566
     55 H         -12.7300    3.5794   -1.1278 H       1  LIG1        0.1424
     56 H         -13.5722    3.3309    0.2664 H       1  LIG1        0.1424
@<TRIPOS>BOND
     1    52    50    1
     2    53    50    1
     3    23    21    1
     4    27    25    1
     5    38    36    1
     6    50    51    1
     7    50    44    1
     8    37    36    1
     9    26    25    1
    10    55    54    1
    11    25    17    1
    12    36    28    1
    13    36    39    1
    14    24    21    1
    15    21    16    1
    16    21    22    1
    17    17    16   ar
    18    17    18   ar
    19     6     5    1
    20    16    15   ar
    21    32    29    1
    22    28    29   ar
    23    28    30   ar
    24    44    45   ar
    25    44    43   ar
    26    18    30    1
    27    18    19   ar
    28    29    31   ar
    29     5     4   ar
    30     5     1   ar
    31    15    19   ar
    32    15     4    1
    33    30    33   ar
    34    54    56    1
    35    54    45    1
    36     7     1    1
    37    19    20    1
    38     4     3   ar
    39     1     2   ar
    40    31    43    1
    41    31    34   ar
    42    45    46   ar
    43    33    34   ar
    44    33    35    1
    45    43    47   ar
    46    34    40    1
    47    10     8    1
    48     3     2   ar
    49     3    12    1
    50    14    12    1
    51     2     8    1
    52    41    40    1
    53    42    40    1
    54    12    13    1
    55    11     8    1
    56     8     9    1
    57    46    47   ar
    58    46    49    1
    59    47    48    1
