@<TRIPOS>MOLECULE
mol_data/opt/b3lyp/geoms/mol2/13ih13ih.out
 28 29 0 0 0
SMALL
GASTEIGER

@<TRIPOS>ATOM
      1 C           1.1125   -0.2442    0.6930 C.ar    1  LIG1        0.0069
      2 C           0.8376    0.9656    0.0887 C.ar    1  LIG1       -0.0118
      3 C          -0.5405    0.9268   -0.2974 C.ar    1  LIG1        0.0546
      4 C          -1.0659   -0.3002    0.0882 C.ar    1  LIG1        0.0844
      5 N          -0.0206   -1.0176    0.6698 N.ar    1  LIG1       -0.3578
      6 H          -0.1679   -1.8384    1.2350 H       1  LIG1        0.1654
      7 H           2.0324   -0.6068    1.1286 H       1  LIG1        0.0810
      8 C           1.7860    2.1017   -0.1496 C.3     1  LIG1       -0.0365
      9 H           1.4056    3.0379    0.2765 H       1  LIG1        0.0279
     10 H           1.9580    2.2850   -1.2195 H       1  LIG1        0.0279
     11 H           2.7621    1.9020    0.3021 H       1  LIG1        0.0279
     12 N          -1.2293    1.9749   -0.9391 N.pl3   1  LIG1       -0.3561
     13 H          -0.6627    2.4267   -1.6496 H       1  LIG1        0.1424
     14 H          -2.0928    1.6480   -1.3602 H       1  LIG1        0.1424
     15 C          -2.3882   -0.8717   -0.0882 C.ar    1  LIG1        0.0694
     16 C          -3.6557   -0.3418    0.1335 C.ar    1  LIG1       -0.0031
     17 C          -4.6026   -1.3532   -0.2350 C.ar    1  LIG1        0.0457
     18 C          -3.8996   -2.4615   -0.6577 C.ar    1  LIG1        0.0233
     19 N          -2.5500   -2.1738   -0.5278 N.ar    1  LIG1       -0.3576
     20 H          -1.8132   -2.6939   -0.9764 H       1  LIG1        0.1654
     21 H          -4.2416   -3.4312   -0.9876 H       1  LIG1        0.0826
     22 C          -3.9984    0.9785    0.7577 C.3     1  LIG1       -0.0359
     23 H          -4.7143    0.8451    1.5778 H       1  LIG1        0.0279
     24 H          -4.4584    1.6801    0.0471 H       1  LIG1        0.0279
     25 H          -3.1067    1.4677    1.1566 H       1  LIG1        0.0279
     26 N          -5.9962   -1.2319   -0.0526 N.pl3   1  LIG1       -0.3566
     27 H          -6.3414   -0.3238   -0.3444 H       1  LIG1        0.1424
     28 H          -6.5151   -1.9510   -0.5435 H       1  LIG1        0.1424
@<TRIPOS>BOND
     1    13    12    1
     2    14    12    1
     3    10     8    1
     4    21    18    1
     5    20    19    1
     6    12     3    1
     7    18    19   ar
     8    18    17   ar
     9    28    26    1
    10    19    15   ar
    11    27    26    1
    12     3     4   ar
    13     3     2   ar
    14    17    26    1
    15    17    16   ar
    16     8     2    1
    17     8     9    1
    18     8    11    1
    19    15     4    1
    20    15    16   ar
    21    24    22    1
    22     4     5   ar
    23     2     1   ar
    24    16    22    1
    25     5     1   ar
    26     5     6    1
    27     1     7    1
    28    22    25    1
    29    22    23    1
