@<TRIPOS>MOLECULE
mol_data/opt/b3lyp/geoms/mol2/13ih4ff-12fe4id-.out
 51 54 0 0 0
SMALL
GASTEIGER

@<TRIPOS>ATOM
      1 C           1.2241   -0.1257    0.7459 C.ar    1  LIG1        0.0069
      2 C           0.9591    1.1150    0.2102 C.ar    1  LIG1       -0.0119
      3 C          -0.4462    1.1581   -0.0649 C.ar    1  LIG1        0.0532
      4 C          -0.9995   -0.0747    0.3043 C.ar    1  LIG1        0.0713
      5 N           0.0636   -0.8524    0.7734 N.ar    1  LIG1       -0.3588
      6 H          -0.0747   -1.6652    1.3531 H       1  LIG1        0.1654
      7 H           2.1514   -0.5363    1.1194 H       1  LIG1        0.0810
      8 C           1.9261    2.2283   -0.0530 C.3     1  LIG1       -0.0365
      9 H           1.5487    3.1752    0.3497 H       1  LIG1        0.0279
     10 H           2.1008    2.3860   -1.1263 H       1  LIG1        0.0279
     11 H           2.8988    2.0260    0.4050 H       1  LIG1        0.0279
     12 N          -1.0677    2.2845   -0.6119 N.pl3   1  LIG1       -0.3561
     13 H          -0.6385    2.6141   -1.4678 H       1  LIG1        0.1424
     14 H          -2.0715    2.1970   -0.6918 H       1  LIG1        0.1424
     15 C          -3.5383    0.0182    0.2988 C.ar    1  LIG1        0.1269
     16 C          -4.7558   -0.6391    0.2047 C.ar    1  LIG1       -0.0052
     17 C          -2.3176   -0.6829    0.1716 C.ar    1  LIG1        0.0450
     18 C          -4.8539   -2.0270   -0.0179 C.ar    1  LIG1        0.0658
     19 H          -5.6725   -0.0686    0.3199 H       1  LIG1        0.0662
     20 C          -2.4256   -2.0690   -0.0626 C.ar    1  LIG1       -0.0068
     21 C          -3.6423   -2.7390   -0.1608 C.ar    1  LIG1        0.1285
     22 H          -1.5114   -2.6360   -0.2227 H       1  LIG1        0.0662
     23 O          -3.4844    1.3729    0.5489 O.3     1  LIG1       -0.5061
     24 H          -4.3831    1.7006    0.6827 H       1  LIG1        0.2922
     25 O          -3.6907   -4.0818   -0.4275 O.3     1  LIG1       -0.5060
     26 H          -2.7876   -4.4038   -0.5458 H       1  LIG1        0.2922
     27 C          -6.1670   -2.6348   -0.1226 C.ar    1  LIG1        0.1817
     28 C          -7.4232   -2.1145   -0.3349 C.ar    1  LIG1        0.1791
     29 C          -8.3594   -3.2042   -0.3336 C.ar    1  LIG1        0.1124
     30 C          -7.6102   -4.3498   -0.1023 C.ar    1  LIG1        0.1550
     31 O          -6.3046   -3.9967    0.0236 O.2     1  LIG1       -0.4496
     32 O          -7.7345   -0.8077   -0.5355 O.3     1  LIG1       -0.5024
     33 H          -8.6825   -0.7589   -0.7352 H       1  LIG1        0.2923
     34 C          -9.7224   -3.0119   -0.6615 C.1     1  LIG1       -0.0622
     35 C         -10.8579   -2.7135   -0.9651 C.1     1  LIG1       -0.1137
     36 H         -11.8637   -2.4985   -1.2443 H       1  LIG1        0.1232
     37 C          -9.0117   -6.3810    0.5131 C.ar    1  LIG1       -0.0397
     38 C          -9.1417   -7.7761    0.4560 C.ar    1  LIG1       -0.0570
     39 C          -7.8666   -5.7905   -0.0777 C.ar    1  LIG1        0.0227
     40 C          -8.1826   -8.5889   -0.1330 C.ar    1  LIG1       -0.0441
     41 H         -10.0158   -8.2347    0.9093 H       1  LIG1        0.0621
     42 C          -6.8788   -6.6134   -0.6476 C.ar    1  LIG1       -0.0334
     43 C          -7.0293   -8.0024   -0.6795 C.ar    1  LIG1        0.0525
     44 H          -5.9883   -6.1571   -1.0637 H       1  LIG1        0.0637
     45 H          -8.3077   -9.6659   -0.1585 H       1  LIG1        0.0630
     46 C         -10.0601   -5.5797    1.2415 C.3     1  LIG1       -0.0390
     47 H         -10.6101   -6.2169    1.9390 H       1  LIG1        0.0278
     48 H         -10.7832   -5.1328    0.5526 H       1  LIG1        0.0278
     49 H          -9.6123   -4.7565    1.8054 H       1  LIG1        0.0278
     50 N          -5.1848   -9.4875   -1.7475 N.1     1  LIG1       -0.1909
     51 C          -6.0102   -8.8206   -1.2704 C.1     1  LIG1        0.0992
@<TRIPOS>BOND
     1    50    51    3
     2    13    12    1
     3    51    43    1
     4    36    35    1
     5    10     8    1
     6    44    42    1
     7    35    34    3
     8    33    32    1
     9    14    12    1
    10    43    42   ar
    11    43    40   ar
    12    34    29    1
    13    42    39   ar
    14    12     3    1
    15    26    25    1
    16    32    28    1
    17    25    21    1
    18    28    29   ar
    19    28    27   ar
    20    29    30   ar
    21    22    20    1
    22    21    20   ar
    23    21    18   ar
    24    45    40    1
    25    40    38   ar
    26    27    18    1
    27    27    31   ar
    28    30    39    1
    29    30    31   ar
    30    39    37   ar
    31     3     2   ar
    32     3     4   ar
    33    20    17   ar
    34     8     2    1
    35     8     9    1
    36     8    11    1
    37    18    16   ar
    38    17    15   ar
    39    17     4    1
    40    16    15   ar
    41    16    19    1
    42     2     1   ar
    43    15    23    1
    44     4     5   ar
    45    38    37   ar
    46    38    41    1
    47    37    46    1
    48    23    24    1
    49    48    46    1
    50     1     5   ar
    51     1     7    1
    52     5     6    1
    53    46    49    1
    54    46    47    1
