@<TRIPOS>MOLECULE
mol_data/opt/b3lyp/geoms/mol2/13ih13ih13ih-13ih-.out
 54 57 0 0 0
SMALL
GASTEIGER

@<TRIPOS>ATOM
      1 C           1.2235    0.0885    0.6328 C.ar    1  LIG1        0.0069
      2 C           0.8482    1.1910   -0.1073 C.ar    1  LIG1       -0.0118
      3 C          -0.5551    1.0587   -0.3569 C.ar    1  LIG1        0.0546
      4 C          -0.9957   -0.1142    0.2445 C.ar    1  LIG1        0.0844
      5 N           0.1256   -0.7122    0.8217 N.ar    1  LIG1       -0.3578
      6 H           0.0641   -1.4473    1.5078 H       1  LIG1        0.1654
      7 H           2.1920   -0.1827    1.0274 H       1  LIG1        0.0810
      8 C           1.7265    2.3058   -0.5902 C.3     1  LIG1       -0.0365
      9 H           1.3547    3.2832   -0.2597 H       1  LIG1        0.0279
     10 H           1.7898    2.3423   -1.6869 H       1  LIG1        0.0279
     11 H           2.7477    2.1940   -0.2144 H       1  LIG1        0.0279
     12 N          -1.3391    1.9818   -1.0766 N.pl3   1  LIG1       -0.3561
     13 H          -0.8396    2.3693   -1.8704 H       1  LIG1        0.1424
     14 H          -2.2038    1.5612   -1.4015 H       1  LIG1        0.1424
     15 C          -2.3038   -0.7390    0.2774 C.ar    1  LIG1        0.0699
     16 C          -3.5691   -0.2271    0.5469 C.ar    1  LIG1       -0.0024
     17 C          -4.4895   -1.3133    0.4327 C.ar    1  LIG1        0.0552
     18 C          -3.7789   -2.4691    0.1154 C.ar    1  LIG1        0.0849
     19 N          -2.4502   -2.1012    0.0449 N.ar    1  LIG1       -0.3501
     20 H          -1.7244   -2.6751   -0.3521 H       1  LIG1        0.1661
     21 C          -3.9094    1.1715    0.9700 C.3     1  LIG1       -0.0359
     22 H          -4.5209    1.1719    1.8812 H       1  LIG1        0.0279
     23 H          -4.4832    1.7149    0.2071 H       1  LIG1        0.0279
     24 H          -3.0067    1.7529    1.1688 H       1  LIG1        0.0279
     25 N          -5.9107   -1.2937    0.6444 N.pl3   1  LIG1       -0.3561
     26 H          -6.1297   -1.1526    1.6299 H       1  LIG1        0.1424
     27 H          -6.3352   -0.5150    0.1453 H       1  LIG1        0.1424
     28 C          -4.2532   -3.8143   -0.1097 C.ar    1  LIG1        0.0699
     29 C          -3.5930   -5.0380   -0.2695 C.ar    1  LIG1       -0.0024
     30 C          -4.6034   -6.0262   -0.4413 C.ar    1  LIG1        0.0552
     31 C          -5.8481   -5.4022   -0.3600 C.ar    1  LIG1        0.0849
     32 N          -5.6043   -4.0524   -0.1742 N.ar    1  LIG1       -0.3501
     33 H          -6.2710   -3.3247    0.0651 H       1  LIG1        0.1661
     34 C          -2.1166   -5.3093   -0.2520 C.3     1  LIG1       -0.0359
     35 H          -1.6054   -4.7358    0.5303 H       1  LIG1        0.0279
     36 H          -1.6174   -5.0840   -1.2066 H       1  LIG1        0.0279
     37 H          -1.9309   -6.3664   -0.0366 H       1  LIG1        0.0279
     38 N          -4.3634   -7.4049   -0.6330 N.pl3   1  LIG1       -0.3561
     39 H          -5.2165   -7.8847   -0.9015 H       1  LIG1        0.1424
     40 H          -3.6638   -7.5695   -1.3503 H       1  LIG1        0.1424
     41 C          -7.1884   -5.9387   -0.5005 C.ar    1  LIG1        0.0695
     42 C          -7.7874   -7.0759    0.0368 C.ar    1  LIG1       -0.0031
     43 C          -9.1295   -7.1173   -0.4631 C.ar    1  LIG1        0.0457
     44 C          -9.3172   -6.0168   -1.2732 C.ar    1  LIG1        0.0233
     45 N          -8.1409   -5.2867   -1.2612 N.ar    1  LIG1       -0.3576
     46 H          -7.9169   -4.5499   -1.9098 H       1  LIG1        0.1654
     47 H         -10.1889   -5.6766   -1.8121 H       1  LIG1        0.0826
     48 C          -7.2173   -8.0175    1.0565 C.3     1  LIG1       -0.0359
     49 H          -6.2811   -7.6323    1.4679 H       1  LIG1        0.0279
     50 H          -7.0031   -9.0161    0.6485 H       1  LIG1        0.0279
     51 H          -7.9226   -8.1614    1.8841 H       1  LIG1        0.0279
     52 N         -10.0921   -8.0685   -0.0612 N.pl3   1  LIG1       -0.3566
     53 H         -10.9218   -8.0463   -0.6432 H       1  LIG1        0.1424
     54 H          -9.7193   -9.0122   -0.0638 H       1  LIG1        0.1424
@<TRIPOS>BOND
     1    46    45    1
     2    13    12    1
     3    47    44    1
     4    10     8    1
     5    14    12    1
     6    40    38    1
     7    44    45   ar
     8    44    43   ar
     9    45    41   ar
    10    36    34    1
    11    12     3    1
    12    39    38    1
    13    53    52    1
    14    38    30    1
    15     8     9    1
    16     8    11    1
    17     8     2    1
    18    41    31    1
    19    41    42   ar
    20    43    52    1
    21    43    42   ar
    22    30    31   ar
    23    30    29   ar
    24    31    32   ar
    25     3     2   ar
    26     3     4   ar
    27    20    19    1
    28    29    34    1
    29    29    28   ar
    30    34    37    1
    31    34    35    1
    32    32    28   ar
    33    32    33    1
    34    28    18    1
    35     2     1   ar
    36    54    52    1
    37    42    48    1
    38    19    18   ar
    39    19    15   ar
    40    18    17   ar
    41    27    25    1
    42    23    21    1
    43     4    15    1
    44     4     5   ar
    45    15    16   ar
    46    17    16   ar
    47    17    25    1
    48    16    21    1
    49     1     5   ar
    50     1     7    1
    51    25    26    1
    52    50    48    1
    53     5     6    1
    54    21    24    1
    55    21    22    1
    56    48    49    1
    57    48    51    1
