@<TRIPOS>MOLECULE
mol_data/opt/b3lyp/geoms/mol2/13ii.out
 16 16 0 0 0
SMALL
GASTEIGER

@<TRIPOS>ATOM
      1 C           1.1216   -0.4437    0.0591 C.ar    1  LIG1        0.0048
      2 C           0.7195    0.8740    0.0007 C.ar    1  LIG1       -0.0303
      3 C          -0.7166    0.8763    0.0010 C.ar    1  LIG1       -0.0303
      4 C          -1.1229   -0.4401    0.0597 C.ar    1  LIG1        0.0048
      5 N          -0.0019   -1.2361    0.0946 N.ar    1  LIG1       -0.3665
      6 H          -0.0035   -2.2412    0.1395 H       1  LIG1        0.1648
      7 H          -2.1155   -0.8666    0.0789 H       1  LIG1        0.0809
      8 H           2.1128   -0.8734    0.0778 H       1  LIG1        0.0809
      9 C           1.6107    2.0800   -0.0530 C.3     1  LIG1       -0.0381
     10 H           1.4426    2.7509    0.7989 H       1  LIG1        0.0278
     11 H           1.4417    2.6733   -0.9605 H       1  LIG1        0.0278
     12 H           2.6666    1.7933   -0.0409 H       1  LIG1        0.0278
     13 C          -1.6041    2.0852   -0.0523 C.3     1  LIG1       -0.0381
     14 H          -2.6609    1.8018   -0.0397 H       1  LIG1        0.0278
     15 H          -1.4335    2.6779   -0.9598 H       1  LIG1        0.0278
     16 H          -1.4334    2.7555    0.7996 H       1  LIG1        0.0278
@<TRIPOS>BOND
     1    11     9    1
     2    15    13    1
     3     9    12    1
     4     9     2    1
     5     9    10    1
     6    13    14    1
     7    13     3    1
     8    13    16    1
     9     2     3   ar
    10     2     1   ar
    11     3     4   ar
    12     1     8    1
    13     1     5   ar
    14     4     7    1
    15     4     5   ar
    16     5     6    1
