@<TRIPOS>MOLECULE
mol_data/opt/b3lyp/geoms/mol2/13ii13ii.out
 30 31 0 0 0
SMALL
GASTEIGER

@<TRIPOS>ATOM
      1 C           1.1020   -0.3155   -0.7073 C.ar    1  LIG1        0.0054
      2 C           0.8526    0.9414   -0.1993 C.ar    1  LIG1       -0.0296
      3 C          -0.5211    0.9675    0.2119 C.ar    1  LIG1       -0.0209
      4 C          -1.0651   -0.2793   -0.0704 C.ar    1  LIG1        0.0663
      5 N          -0.0511   -1.0569   -0.6102 N.ar    1  LIG1       -0.3590
      6 H          -0.2055   -1.9540   -1.0415 H       1  LIG1        0.1654
      7 H           2.0086   -0.7366   -1.1177 H       1  LIG1        0.0810
      8 C           1.8386    2.0648   -0.0719 C.3     1  LIG1       -0.0380
      9 H           1.9680    2.3795    0.9714 H       1  LIG1        0.0278
     10 H           1.5200    2.9525   -0.6322 H       1  LIG1        0.0278
     11 H           2.8227    1.7722   -0.4504 H       1  LIG1        0.0278
     12 C          -1.2166    2.1125    0.8871 C.3     1  LIG1       -0.0374
     13 H          -2.1846    1.8000    1.2875 H       1  LIG1        0.0278
     14 H          -1.3975    2.9516    0.2028 H       1  LIG1        0.0278
     15 H          -0.6204    2.5067    1.7190 H       1  LIG1        0.0278
     16 C          -2.3976   -0.8302    0.1410 C.ar    1  LIG1        0.0663
     17 C          -3.6577   -0.3800   -0.2327 C.ar    1  LIG1       -0.0209
     18 C          -4.6144   -1.3423    0.2317 C.ar    1  LIG1       -0.0296
     19 C          -3.9099   -2.3460    0.8613 C.ar    1  LIG1        0.0054
     20 N          -2.5710   -2.0451    0.7879 N.ar    1  LIG1       -0.3590
     21 H          -1.8389   -2.5172    1.2936 H       1  LIG1        0.1654
     22 H          -4.2581   -3.2485    1.3429 H       1  LIG1        0.0810
     23 C          -3.9643    0.8496   -1.0354 C.3     1  LIG1       -0.0374
     24 H          -4.6303    0.6212   -1.8765 H       1  LIG1        0.0278
     25 H          -3.0495    1.2883   -1.4425 H       1  LIG1        0.0278
     26 H          -4.4641    1.6231   -0.4379 H       1  LIG1        0.0278
     27 C          -6.1009   -1.2796    0.0400 C.3     1  LIG1       -0.0380
     28 H          -6.5939   -2.1507    0.4821 H       1  LIG1        0.0278
     29 H          -6.3758   -1.2501   -1.0220 H       1  LIG1        0.0278
     30 H          -6.5344   -0.3846    0.5032 H       1  LIG1        0.0278
@<TRIPOS>BOND
     1    24    23    1
     2    25    23    1
     3     7     1    1
     4     6     5    1
     5    23    26    1
     6    23    17    1
     7    29    27    1
     8     1     5   ar
     9     1     2   ar
    10    10     8    1
    11     5     4   ar
    12    11     8    1
    13    17    16   ar
    14    17    18   ar
    15     2     8    1
    16     2     3   ar
    17     8     9    1
    18     4    16    1
    19     4     3   ar
    20    27    18    1
    21    27    28    1
    22    27    30    1
    23    16    20   ar
    24    14    12    1
    25     3    12    1
    26    18    19   ar
    27    20    19   ar
    28    20    21    1
    29    19    22    1
    30    12    13    1
    31    12    15    1
