@<TRIPOS>MOLECULE
mol_data/opt/b3lyp/geoms/mol2/13ii13ii13ii.out
 44 46 0 0 0
SMALL
GASTEIGER

@<TRIPOS>ATOM
      1 C           1.1630   -0.0847    0.6887 C.ar    1  LIG1        0.0054
      2 C           0.8592    0.9503   -0.1694 C.ar    1  LIG1       -0.0296
      3 C          -0.5508    0.8909   -0.4239 C.ar    1  LIG1       -0.0209
      4 C          -1.0608   -0.1796    0.3018 C.ar    1  LIG1        0.0663
      5 N           0.0066   -0.7779    0.9550 N.ar    1  LIG1       -0.3590
      6 H          -0.0989   -1.4859    1.6632 H       1  LIG1        0.1654
      7 H           2.1090   -0.3827    1.1175 H       1  LIG1        0.0810
      8 C           1.8261    1.9370   -0.7543 C.3     1  LIG1       -0.0380
      9 H           1.5724    2.9685   -0.4805 H       1  LIG1        0.0278
     10 H           1.8398    1.8952   -1.8508 H       1  LIG1        0.0278
     11 H           2.8456    1.7452   -0.4064 H       1  LIG1        0.0278
     12 C          -1.3123    1.7796   -1.3627 C.3     1  LIG1       -0.0374
     13 H          -1.4501    2.7917   -0.9605 H       1  LIG1        0.0278
     14 H          -2.3048    1.3710   -1.5703 H       1  LIG1        0.0278
     15 H          -0.7877    1.8891   -2.3194 H       1  LIG1        0.0278
     16 C          -2.4045   -0.7266    0.4174 C.ar    1  LIG1        0.0668
     17 C          -3.6279   -0.1322    0.6948 C.ar    1  LIG1       -0.0202
     18 C          -4.6223   -1.1647    0.6948 C.ar    1  LIG1       -0.0202
     19 C          -3.9822   -2.3649    0.4174 C.ar    1  LIG1        0.0668
     20 N          -2.6267   -2.0915    0.2915 N.ar    1  LIG1       -0.3514
     21 H          -1.9859   -2.7085   -0.1846 H       1  LIG1        0.1660
     22 C          -3.8617    1.3095    1.0362 C.3     1  LIG1       -0.0374
     23 H          -4.4610    1.4101    1.9492 H       1  LIG1        0.0278
     24 H          -4.4028    1.8420    0.2436 H       1  LIG1        0.0278
     25 H          -2.9147    1.8306    1.1978 H       1  LIG1        0.0278
     26 C          -6.0716   -0.9853    1.0366 C.3     1  LIG1       -0.0374
     27 H          -6.5568   -1.9512    1.1981 H       1  LIG1        0.0278
     28 H          -6.6243   -0.4643    0.2444 H       1  LIG1        0.0278
     29 H          -6.1944   -0.3905    1.9499 H       1  LIG1        0.0278
     30 C          -4.4784   -3.7282    0.3019 C.ar    1  LIG1        0.0663
     31 C          -5.5293   -4.2781   -0.4233 C.ar    1  LIG1       -0.0209
     32 C          -5.5356   -5.6893   -0.1686 C.ar    1  LIG1       -0.0296
     33 C          -4.4896   -5.9540    0.6892 C.ar    1  LIG1        0.0054
     34 N          -3.8404   -4.7723    0.9551 N.ar    1  LIG1       -0.3590
     35 H          -3.1356   -4.6403    1.6623 H       1  LIG1        0.1654
     36 H          -4.1563   -6.8880    1.1182 H       1  LIG1        0.0810
     37 C          -6.4464   -3.5507   -1.3617 C.3     1  LIG1       -0.0374
     38 H          -6.5348   -4.0781   -2.3192 H       1  LIG1        0.0278
     39 H          -6.0768   -2.5428   -1.5679 H       1  LIG1        0.0278
     40 H          -7.4634   -3.4531   -0.9600 H       1  LIG1        0.0278
     41 C          -6.4856   -6.6926   -0.7528 C.3     1  LIG1       -0.0380
     42 H          -6.2566   -7.7039   -0.4036 H       1  LIG1        0.0278
     43 H          -6.4427   -6.7061   -1.8493 H       1  LIG1        0.0278
     44 H          -7.5260   -6.4768   -0.4800 H       1  LIG1        0.0278
@<TRIPOS>BOND
     1    15    12    1
     2    38    37    1
     3    10     8    1
     4    43    41    1
     5    14    12    1
     6    39    37    1
     7    12    13    1
     8    12     3    1
     9    37    40    1
    10    37    31    1
    11     8     9    1
    12     8    11    1
    13     8     2    1
    14    41    44    1
    15    41    42    1
    16    41    32    1
    17     3     2   ar
    18     3     4   ar
    19    31    32   ar
    20    31    30   ar
    21    21    20    1
    22     2     1   ar
    23    32    33   ar
    24    24    22    1
    25    28    26    1
    26    20    19   ar
    27    20    16   ar
    28     4    16    1
    29     4     5   ar
    30    30    19    1
    31    30    34   ar
    32    19    18   ar
    33    16    17   ar
    34     1     5   ar
    35     1     7    1
    36    33    34   ar
    37    33    36    1
    38    17    18   ar
    39    17    22    1
    40    18    26    1
    41     5     6    1
    42    34    35    1
    43    22    25    1
    44    22    23    1
    45    26    27    1
    46    26    29    1
