@<TRIPOS>MOLECULE
mol_data/opt/b3lyp/geoms/mol2/13ii4hh13il12ii-.out
 58 61 0 0 0
SMALL
GASTEIGER

@<TRIPOS>ATOM
      1 C           1.0281    0.5646   -1.3349 C.ar    1  LIG1        0.0053
      2 C           1.0777    1.0414   -0.0426 C.ar    1  LIG1       -0.0297
      3 C          -0.1840    0.7394    0.5699 C.ar    1  LIG1       -0.0223
      4 C          -0.9657    0.0886   -0.3814 C.ar    1  LIG1        0.0515
      5 N          -0.1976   -0.0230   -1.5282 N.ar    1  LIG1       -0.3601
      6 H          -0.5528   -0.3672   -2.4055 H       1  LIG1        0.1654
      7 H           1.7667    0.5986   -2.1230 H       1  LIG1        0.0810
      8 C           2.2422    1.7207    0.6153 C.3     1  LIG1       -0.0380
      9 H           2.5993    1.1623    1.4898 H       1  LIG1        0.0278
     10 H           1.9834    2.7268    0.9681 H       1  LIG1        0.0278
     11 H           3.0842    1.8205   -0.0763 H       1  LIG1        0.0278
     12 C          -0.5312    0.9908    2.0096 C.3     1  LIG1       -0.0375
     13 H          -1.4887    0.5397    2.2756 H       1  LIG1        0.0278
     14 H          -0.6012    2.0620    2.2390 H       1  LIG1        0.0278
     15 H           0.2359    0.5754    2.6746 H       1  LIG1        0.0278
     16 C          -3.4471    0.2619    0.0620 C.ar    1  LIG1        0.0345
     17 C          -4.7062   -0.3500    0.0432 C.ar    1  LIG1       -0.0295
     18 C          -2.3187   -0.4909   -0.3380 C.ar    1  LIG1        0.0209
     19 C          -4.9120   -1.6721   -0.3782 C.ar    1  LIG1        0.0211
     20 H          -5.5572    0.2193    0.4009 H       1  LIG1        0.0643
     21 C          -2.5257   -1.8115   -0.7705 C.ar    1  LIG1       -0.0295
     22 C          -3.7803   -2.4155   -0.8065 C.ar    1  LIG1        0.0345
     23 H          -1.6579   -2.3914   -1.0785 H       1  LIG1        0.0643
     24 N          -3.3187    1.5813    0.5154 N.pl3   1  LIG1       -0.3574
     25 H          -2.4668    2.0322    0.2036 H       1  LIG1        0.1423
     26 H          -4.1339    2.1561    0.3480 H       1  LIG1        0.1423
     27 N          -3.9094   -3.7762   -1.2027 N.pl3   1  LIG1       -0.3574
     28 H          -4.6411   -3.9109   -1.8953 H       1  LIG1        0.1423
     29 H          -3.0377   -4.1419   -1.5693 H       1  LIG1        0.1423
     30 C          -6.2606   -2.2473   -0.3452 C.ar    1  LIG1        0.0553
     31 C          -7.5223   -1.6561   -0.4847 C.ar    1  LIG1        0.0173
     32 C          -8.4750   -2.6936   -0.3190 C.ar    1  LIG1        0.1518
     33 C          -7.8073   -3.8951   -0.0717 C.ar    1  LIG1        0.1252
     34 N          -6.4662   -3.5917   -0.1119 N.ar    1  LIG1       -0.3485
     35 H          -5.7166   -4.2550    0.0309 H       1  LIG1        0.1661
     36 C          -7.8741   -0.2306   -0.7910 C.3     1  LIG1       -0.0342
     37 H          -8.8669   -0.1813   -1.2467 H       1  LIG1        0.0279
     38 H          -7.1542    0.2278   -1.4758 H       1  LIG1        0.0279
     39 H          -7.9125    0.3938    0.1113 H       1  LIG1        0.0279
     40 O          -9.8351   -2.5027   -0.4097 O.3     1  LIG1       -0.4926
     41 C         -10.4204   -3.0215   -1.6069 C.3     1  LIG1        0.0789
     42 H         -11.4801   -2.7578   -1.5753 H       1  LIG1        0.0660
     43 H          -9.9590   -2.5741   -2.4960 H       1  LIG1        0.0660
     44 H         -10.3188   -4.1116   -1.6629 H       1  LIG1        0.0660
     45 C          -8.2448   -5.2516    0.1686 C.ar    1  LIG1        0.1576
     46 C          -9.3681   -5.8421    0.6997 C.ar    1  LIG1       -0.0003
     47 C          -9.1213   -7.2653    0.6774 C.ar    1  LIG1       -0.0092
     48 C          -7.8753   -7.4271    0.1565 C.ar    1  LIG1        0.0958
     49 O          -7.3208   -6.2212   -0.1646 O.2     1  LIG1       -0.4608
     50 H          -7.2659   -8.2955   -0.0424 H       1  LIG1        0.1032
     51 C         -10.5888   -5.1830    1.2682 C.3     1  LIG1       -0.0358
     52 H         -10.6938   -5.4087    2.3369 H       1  LIG1        0.0279
     53 H         -11.5020   -5.5446    0.7789 H       1  LIG1        0.0279
     54 H         -10.5513   -4.0995    1.1495 H       1  LIG1        0.0279
     55 C         -10.0513   -8.3377    1.1567 C.3     1  LIG1       -0.0365
     56 H          -9.6073   -9.3299    1.0364 H       1  LIG1        0.0279
     57 H         -10.9984   -8.3269    0.6043 H       1  LIG1        0.0279
     58 H         -10.2992   -8.2104    2.2171 H       1  LIG1        0.0279
@<TRIPOS>BOND
     1    43    41    1
     2     6     5    1
     3     7     1    1
     4    28    27    1
     5    44    41    1
     6    41    42    1
     7    41    40    1
     8    29    27    1
     9     5     1   ar
    10     5     4   ar
    11    38    36    1
    12     1     2   ar
    13    37    36    1
    14    27    22    1
    15    23    21    1
    16    22    21   ar
    17    22    19   ar
    18    36    31    1
    19    36    39    1
    20    21    18   ar
    21    31    30   ar
    22    31    32   ar
    23    40    32    1
    24     4    18    1
    25     4     3   ar
    26    19    30    1
    27    19    17   ar
    28    30    34   ar
    29    18    16   ar
    30    32    33   ar
    31    49    48   ar
    32    49    45   ar
    33    34    33   ar
    34    34    35    1
    35    11     8    1
    36    33    45    1
    37     2     3   ar
    38     2     8    1
    39    50    48    1
    40    17    16   ar
    41    17    20    1
    42    16    24    1
    43    48    47   ar
    44    45    46   ar
    45    25    24    1
    46    26    24    1
    47     3    12    1
    48    57    55    1
    49     8    10    1
    50     8     9    1
    51    47    46   ar
    52    47    55    1
    53    46    51    1
    54    53    51    1
    55    56    55    1
    56    54    51    1
    57    55    58    1
    58    51    52    1
    59    12    14    1
    60    12    13    1
    61    12    15    1
