@<TRIPOS>MOLECULE
mol_data/opt/b3lyp/geoms/mol2/13ii13ii-13ii-13ii-.out
 58 61 0 0 0
SMALL
GASTEIGER

@<TRIPOS>ATOM
      1 C           1.2370   -0.5142   -0.8045 C.ar    1  LIG1        0.0054
      2 C           0.9784    0.8130   -0.5336 C.ar    1  LIG1       -0.0296
      3 C          -0.3946    0.9041   -0.1350 C.ar    1  LIG1       -0.0209
      4 C          -0.9291   -0.3818   -0.1805 C.ar    1  LIG1        0.0663
      5 N           0.0872   -1.2303   -0.5811 N.ar    1  LIG1       -0.3590
      6 H          -0.0473   -2.2057   -0.7901 H       1  LIG1        0.1654
      7 H           2.1469   -0.9980   -1.1284 H       1  LIG1        0.0810
      8 C           1.9573    1.9468   -0.6166 C.3     1  LIG1       -0.0380
      9 H           2.0852    2.4490    0.3507 H       1  LIG1        0.0278
     10 H           1.6356    2.7145   -1.3314 H       1  LIG1        0.0278
     11 H           2.9431    1.5944   -0.9346 H       1  LIG1        0.0278
     12 C          -1.0927    2.1589    0.3040 C.3     1  LIG1       -0.0374
     13 H          -2.0448    1.9346    0.7929 H       1  LIG1        0.0278
     14 H          -1.3000    2.8388   -0.5342 H       1  LIG1        0.0278
     15 H          -0.4820    2.7244    1.0177 H       1  LIG1        0.0278
     16 C          -2.2636   -0.8870    0.0987 C.ar    1  LIG1        0.0668
     17 C          -2.7025   -2.0491    0.7271 C.ar    1  LIG1       -0.0202
     18 C          -4.1333   -2.0453    0.6952 C.ar    1  LIG1       -0.0202
     19 C          -4.5363   -0.8856    0.0431 C.ar    1  LIG1        0.0668
     20 N          -3.3892   -0.1814   -0.2853 N.ar    1  LIG1       -0.3514
     21 H          -3.3696    0.5808   -0.9441 H       1  LIG1        0.1660
     22 C          -1.8504   -3.0864    1.3999 C.3     1  LIG1       -0.0374
     23 H          -0.8214   -2.7379    1.5249 H       1  LIG1        0.0278
     24 H          -1.8193   -4.0309    0.8396 H       1  LIG1        0.0278
     25 H          -2.2362   -3.3311    2.3966 H       1  LIG1        0.0278
     26 C          -5.0279   -3.0616    1.3410 C.3     1  LIG1       -0.0374
     27 H          -4.6938   -3.2955    2.3590 H       1  LIG1        0.0278
     28 H          -5.0491   -4.0106    0.7898 H       1  LIG1        0.0278
     29 H          -6.0551   -2.6936    1.4030 H       1  LIG1        0.0278
     30 C          -5.8519   -0.3432   -0.2545 C.ar    1  LIG1        0.0668
     31 C          -6.9842   -0.9105   -0.8250 C.ar    1  LIG1       -0.0202
     32 C          -7.9950    0.1038   -0.8825 C.ar    1  LIG1       -0.0202
     33 C          -7.4560    1.2659   -0.3475 C.ar    1  LIG1        0.0668
     34 N          -6.1382    0.9925   -0.0078 N.ar    1  LIG1       -0.3514
     35 H          -5.6113    1.5555    0.6429 H       1  LIG1        0.1660
     36 C          -7.1035   -2.2991   -1.3796 C.3     1  LIG1       -0.0374
     37 H          -7.7553   -2.9375   -0.7695 H       1  LIG1        0.0278
     38 H          -6.1252   -2.7832   -1.4347 H       1  LIG1        0.0278
     39 H          -7.5297   -2.2888   -2.3902 H       1  LIG1        0.0278
     40 C          -9.3526   -0.0445   -1.5025 C.3     1  LIG1       -0.0374
     41 H         -10.0183   -0.6749   -0.8993 H       1  LIG1        0.0278
     42 H          -9.2898   -0.5101   -2.4936 H       1  LIG1        0.0278
     43 H          -9.8357    0.9288   -1.6203 H       1  LIG1        0.0278
     44 C          -8.0112    2.5977   -0.1574 C.ar    1  LIG1        0.0663
     45 C          -9.1922    3.0370    0.4300 C.ar    1  LIG1       -0.0209
     46 C          -9.2030    4.4689    0.3551 C.ar    1  LIG1       -0.0296
     47 C          -8.0322    4.8541   -0.2622 C.ar    1  LIG1        0.0054
     48 N          -7.3051    3.7245   -0.5516 N.ar    1  LIG1       -0.3590
     49 H          -6.4824    3.6932   -1.1316 H       1  LIG1        0.1654
     50 H          -7.6615    5.8393   -0.5058 H       1  LIG1        0.0810
     51 C         -10.2331    2.1837    1.0925 C.3     1  LIG1       -0.0374
     52 H          -9.8734    1.1599    1.2252 H       1  LIG1        0.0278
     53 H         -11.1637    2.1337    0.5123 H       1  LIG1        0.0278
     54 H         -10.4986    2.5765    2.0814 H       1  LIG1        0.0278
     55 C         -10.2755    5.3774    0.8796 C.3     1  LIG1       -0.0380
     56 H         -10.4251    5.2528    1.9596 H       1  LIG1        0.0278
     57 H         -11.2441    5.1839    0.4022 H       1  LIG1        0.0278
     58 H         -10.0254    6.4278    0.7028 H       1  LIG1        0.0278
@<TRIPOS>BOND
     1    42    40    1
     2    39    36    1
     3    43    40    1
     4    40    41    1
     5    40    32    1
     6    38    36    1
     7    36    31    1
     8    36    37    1
     9    10     8    1
    10    49    48    1
    11     7     1    1
    12    21    20    1
    13    11     8    1
    14    32    31   ar
    15    32    33   ar
    16    31    30   ar
    17     1     5   ar
    18     1     2   ar
    19     6     5    1
    20     8     2    1
    21     8     9    1
    22     5     4   ar
    23    48    47   ar
    24    48    44   ar
    25    14    12    1
    26     2     3   ar
    27    50    47    1
    28    33    44    1
    29    33    34   ar
    30    20    19   ar
    31    20    16   ar
    32    47    46   ar
    33    30    34   ar
    34    30    19    1
    35     4     3   ar
    36     4    16    1
    37    44    45   ar
    38     3    12    1
    39    34    35    1
    40    19    18   ar
    41    16    17   ar
    42    12    13    1
    43    12    15    1
    44    46    45   ar
    45    46    55    1
    46    57    55    1
    47    45    51    1
    48    53    51    1
    49    18    17   ar
    50    18    26    1
    51    58    55    1
    52    17    22    1
    53    28    26    1
    54    24    22    1
    55    55    56    1
    56    51    52    1
    57    51    54    1
    58    26    29    1
    59    26    27    1
    60    22    23    1
    61    22    25    1
