@<TRIPOS>MOLECULE
mol_data/opt/b3lyp/geoms/mol2/13ii13ii-4ii13ii.out
 60 63 0 0 0
SMALL
GASTEIGER

@<TRIPOS>ATOM
      1 C           1.1803   -0.8060   -1.3237 C.ar    1  LIG1        0.0054
      2 C           1.0743    0.5446   -1.0657 C.ar    1  LIG1       -0.0296
      3 C          -0.2183    0.7654   -0.4889 C.ar    1  LIG1       -0.0209
      4 C          -0.8609   -0.4686   -0.4191 C.ar    1  LIG1        0.0663
      5 N           0.0155   -1.4124   -0.9244 N.ar    1  LIG1       -0.3590
      6 H          -0.2282   -2.3769   -1.0774 H       1  LIG1        0.1654
      7 H           1.9935   -1.3753   -1.7502 H       1  LIG1        0.0810
      8 C           2.1245    1.5858   -1.3181 C.3     1  LIG1       -0.0380
      9 H           2.4212    2.0997   -0.3951 H       1  LIG1        0.0278
     10 H           1.7751    2.3598   -2.0127 H       1  LIG1        0.0278
     11 H           3.0264    1.1405   -1.7487 H       1  LIG1        0.0278
     12 C          -0.7408    2.0858   -0.0012 C.3     1  LIG1       -0.0374
     13 H          -1.6335    1.9579    0.6170 H       1  LIG1        0.0278
     14 H          -1.0003    2.7646   -0.8254 H       1  LIG1        0.0278
     15 H           0.0075    2.6084    0.6065 H       1  LIG1        0.0278
     16 C          -2.1824   -0.8513    0.0529 C.ar    1  LIG1        0.0668
     17 C          -2.6199   -1.9478    0.7911 C.ar    1  LIG1       -0.0203
     18 C          -4.0394   -1.8393    0.9243 C.ar    1  LIG1       -0.0216
     19 C          -4.4376   -0.6745    0.2750 C.ar    1  LIG1        0.0504
     20 N          -3.2943   -0.0813   -0.2263 N.ar    1  LIG1       -0.3526
     21 H          -3.2915    0.6808   -0.8847 H       1  LIG1        0.1660
     22 C          -1.7666   -3.0192    1.4066 C.3     1  LIG1       -0.0374
     23 H          -0.7054   -2.7592    1.3624 H       1  LIG1        0.0278
     24 H          -1.8941   -3.9921    0.9123 H       1  LIG1        0.0278
     25 H          -2.0221   -3.1731    2.4619 H       1  LIG1        0.0278
     26 C          -4.9104   -2.7824    1.7020 C.3     1  LIG1       -0.0374
     27 H          -4.5119   -2.9535    2.7096 H       1  LIG1        0.0278
     28 H          -4.9835   -3.7673    1.2224 H       1  LIG1        0.0278
     29 H          -5.9251   -2.3916    1.8090 H       1  LIG1        0.0278
     30 C          -6.0810    1.2561    0.3647 C.ar    1  LIG1       -0.0407
     31 C          -7.3813    1.7053    0.1272 C.ar    1  LIG1       -0.0488
     32 C          -5.7754   -0.0936    0.0706 C.ar    1  LIG1        0.0018
     33 C          -8.4073    0.8825   -0.3665 C.ar    1  LIG1        0.0017
     34 H          -7.6177    2.7455    0.3326 H       1  LIG1        0.0627
     35 C          -6.8013   -0.9168   -0.4235 C.ar    1  LIG1       -0.0488
     36 C          -8.1073   -0.4730   -0.6389 C.ar    1  LIG1       -0.0407
     37 H          -6.5598   -1.9518   -0.6487 H       1  LIG1        0.0627
     38 C          -5.0629    2.2102    0.9484 C.3     1  LIG1       -0.0391
     39 H          -5.5617    3.0578    1.4264 H       1  LIG1        0.0278
     40 H          -4.3904    2.6254    0.1873 H       1  LIG1        0.0278
     41 H          -4.4343    1.7150    1.6940 H       1  LIG1        0.0278
     42 C          -9.1503   -1.4530   -1.1297 C.3     1  LIG1       -0.0391
     43 H          -8.8372   -2.4806   -0.9252 H       1  LIG1        0.0278
     44 H          -9.3165   -1.3832   -2.2127 H       1  LIG1        0.0278
     45 H         -10.1167   -1.2837   -0.6468 H       1  LIG1        0.0278
     46 C          -9.7499    1.4584   -0.5592 C.ar    1  LIG1        0.0499
     47 C         -10.5485    2.2186    0.2899 C.ar    1  LIG1       -0.0223
     48 C         -11.7504    2.5413   -0.4210 C.ar    1  LIG1       -0.0297
     49 C         -11.6458    1.9754   -1.6737 C.ar    1  LIG1        0.0053
     50 N         -10.4478    1.3097   -1.7450 N.ar    1  LIG1       -0.3602
     51 H         -10.0665    0.8879   -2.5754 H       1  LIG1        0.1654
     52 H         -12.3302    1.9927   -2.5098 H       1  LIG1        0.0810
     53 C         -10.2590    2.5948    1.7141 C.3     1  LIG1       -0.0375
     54 H         -11.0916    2.3225    2.3743 H       1  LIG1        0.0278
     55 H         -10.1061    3.6757    1.8320 H       1  LIG1        0.0278
     56 H          -9.3629    2.0929    2.0869 H       1  LIG1        0.0278
     57 C         -12.9104    3.3310    0.1095 C.3     1  LIG1       -0.0380
     58 H         -13.6940    3.4392   -0.6465 H       1  LIG1        0.0278
     59 H         -12.6097    4.3394    0.4199 H       1  LIG1        0.0278
     60 H         -13.3643    2.8529    0.9868 H       1  LIG1        0.0278
@<TRIPOS>BOND
     1    51    50    1
     2    52    49    1
     3    44    42    1
     4    10     8    1
     5     7     1    1
     6    11     8    1
     7    50    49   ar
     8    50    46   ar
     9    49    48   ar
    10     1     2   ar
    11     1     5   ar
    12     8     2    1
    13     8     9    1
    14    42    43    1
    15    42    45    1
    16    42    36    1
    17     6     5    1
    18     2     3   ar
    19     5     4   ar
    20    21    20    1
    21    14    12    1
    22    37    35    1
    23    58    57    1
    24    36    35   ar
    25    36    33   ar
    26    46    33    1
    27    46    47   ar
    28     3     4   ar
    29     3    12    1
    30    35    32   ar
    31    48    57    1
    32    48    47   ar
    33     4    16    1
    34    33    31   ar
    35    20    16   ar
    36    20    19   ar
    37    12    15    1
    38    12    13    1
    39    16    17   ar
    40    32    19    1
    41    32    30   ar
    42    57    59    1
    43    57    60    1
    44    31    34    1
    45    31    30   ar
    46    40    38    1
    47    19    18   ar
    48    47    53    1
    49    30    38    1
    50    17    18   ar
    51    17    22    1
    52    24    22    1
    53    18    26    1
    54    38    39    1
    55    38    41    1
    56    28    26    1
    57    23    22    1
    58    22    25    1
    59    26    29    1
    60    26    27    1
    61    53    55    1
    62    53    56    1
    63    53    54    1
