@<TRIPOS>MOLECULE
mol_data/opt/b3lyp/geoms/mol2/13ii6de6lh-13ea-.out
 53 56 0 0 0
SMALL
GASTEIGER

@<TRIPOS>ATOM
      1 C           1.4346   -0.2328    0.2324 C.ar    1  LIG1        0.0053
      2 C           0.9957    1.0764    0.1534 C.ar    1  LIG1       -0.0297
      3 C          -0.4269    1.0360    0.0844 C.ar    1  LIG1       -0.0222
      4 C          -0.8121   -0.3136    0.1215 C.ar    1  LIG1        0.0524
      5 N           0.3517   -1.0587    0.2158 N.ar    1  LIG1       -0.3601
      6 H           0.3932   -2.0617    0.3100 H       1  LIG1        0.1654
      7 H           2.4374   -0.6291    0.3005 H       1  LIG1        0.0810
      8 C           1.8624    2.3015    0.1531 C.3     1  LIG1       -0.0380
      9 H           1.6290    2.9687    0.9918 H       1  LIG1        0.0278
     10 H           1.7445    2.8884   -0.7655 H       1  LIG1        0.0278
     11 H           2.9190    2.0316    0.2368 H       1  LIG1        0.0278
     12 C          -1.3046    2.2548    0.0442 C.3     1  LIG1       -0.0375
     13 H          -2.2410    2.1083    0.5906 H       1  LIG1        0.0278
     14 H          -1.5652    2.5553   -0.9797 H       1  LIG1        0.0278
     15 H          -0.7912    3.1070    0.4994 H       1  LIG1        0.0278
     16 C          -2.4878   -2.1859    0.6108 C.ar    1  LIG1        0.1499
     17 C          -2.1389   -0.9153    0.0738 C.ar    1  LIG1        0.0356
     18 C          -3.2039   -0.2442   -0.5524 C.ar    1  LIG1       -0.0324
     19 C          -4.4945   -0.7791   -0.5936 C.ar    1  LIG1        0.0515
     20 C          -4.7213   -2.0475    0.0132 C.ar    1  LIG1        0.0930
     21 N          -3.7170   -2.7161    0.5791 N.ar    1  LIG1       -0.2343
     22 H          -3.0236    0.6975   -1.0526 H       1  LIG1        0.0638
     23 N          -0.6951   -3.7115    1.7290 N.1     1  LIG1       -0.1893
     24 C          -1.5081   -3.0323    1.2465 C.1     1  LIG1        0.1198
     25 C          -5.5184   -0.0613   -1.2829 C.1     1  LIG1       -0.0675
     26 C          -6.3511    0.5787   -1.8839 C.1     1  LIG1       -0.1138
     27 H          -7.0956    1.1238   -2.4172 H       1  LIG1        0.1232
     28 C          -6.2920   -4.0092   -0.3764 C.ar    1  LIG1        0.2246
     29 C          -6.0626   -2.6806    0.0624 C.ar    1  LIG1        0.0648
     30 C          -7.1612   -2.0102    0.5794 C.ar    1  LIG1       -0.0246
     31 C          -8.4336   -2.6052    0.6815 C.ar    1  LIG1        0.0532
     32 C          -8.5539   -3.9225    0.1841 C.ar    1  LIG1        0.1127
     33 N          -7.4749   -4.5830   -0.3124 N.ar    1  LIG1       -0.2090
     34 H          -7.0322   -0.9988    0.9542 H       1  LIG1        0.0645
     35 O          -5.2472   -4.6782   -0.9213 O.3     1  LIG1       -0.4792
     36 C          -5.4827   -6.0117   -1.3625 C.3     1  LIG1        0.0804
     37 H          -4.5389   -6.3443   -1.7966 H       1  LIG1        0.0660
     38 H          -5.7542   -6.6645   -0.5257 H       1  LIG1        0.0660
     39 H          -6.2802   -6.0510   -2.1110 H       1  LIG1        0.0660
     40 N          -9.4436   -1.9307    1.3557 N.pl3   1  LIG1       -0.3563
     41 H          -9.2796   -0.9385    1.4571 H       1  LIG1        0.1424
     42 H         -10.3976   -2.1255    1.0775 H       1  LIG1        0.1424
     43 C          -9.7695   -4.7454    0.2106 C.ar    1  LIG1        0.0824
     44 C         -11.1615   -4.5267    0.1828 C.ar    1  LIG1        0.0514
     45 C         -11.7932   -5.8127    0.1953 C.ar    1  LIG1       -0.0283
     46 C         -10.8001   -6.7616    0.2151 C.ar    1  LIG1        0.0034
     47 N          -9.5991   -6.1071    0.2231 N.ar    1  LIG1       -0.3584
     48 H          -8.6738   -6.5072    0.1708 H       1  LIG1        0.1654
     49 H         -10.8537   -7.8396    0.2298 H       1  LIG1        0.0807
     50 C         -11.8717   -3.3081    0.0482 C.1     1  LIG1       -0.0675
     51 C         -12.5188   -2.2886   -0.0716 C.1     1  LIG1       -0.1138
     52 H         -13.0892   -1.3996   -0.2086 H       1  LIG1        0.1232
     53 H         -12.8585   -5.9877    0.1780 H       1  LIG1        0.0645
@<TRIPOS>BOND
     1    27    26    1
     2    39    36    1
     3    26    25    3
     4    37    36    1
     5    36    35    1
     6    36    38    1
     7    25    19    1
     8    22    18    1
     9    14    12    1
    10    35    28    1
    11    10     8    1
    12    19    18   ar
    13    19    20   ar
    14    18    17   ar
    15    28    33   ar
    16    28    29   ar
    17    33    32   ar
    18    52    51    1
    19    51    50    3
    20    20    29    1
    21    20    21   ar
    22    12     3    1
    23    12    15    1
    24    12    13    1
    25    50    44    1
    26    29    30   ar
    27    17     4    1
    28    17    16   ar
    29     3     4   ar
    30     3     2   ar
    31     4     5   ar
    32     8     2    1
    33     8    11    1
    34     8     9    1
    35     2     1   ar
    36    48    47    1
    37    53    45    1
    38    44    45   ar
    39    44    43   ar
    40    32    43    1
    41    32    31   ar
    42    45    46   ar
    43    43    47   ar
    44    46    47   ar
    45    46    49    1
    46     5     1   ar
    47     5     6    1
    48     1     7    1
    49    21    16   ar
    50    30    31   ar
    51    30    34    1
    52    16    24    1
    53    31    40    1
    54    42    40    1
    55    24    23    3
    56    40    41    1
