@<TRIPOS>MOLECULE
mol_data/opt/b3lyp/geoms/mol2/13ii13ii13ii-13ii-.out
 58 61 0 0 0
SMALL
GASTEIGER

@<TRIPOS>ATOM
      1 C           1.2193   -0.0337    0.0453 C.ar    1  LIG1        0.0054
      2 C           0.7703    0.9381   -0.8235 C.ar    1  LIG1       -0.0296
      3 C          -0.6604    0.8500   -0.8555 C.ar    1  LIG1       -0.0209
      4 C          -1.0345   -0.1727    0.0088 C.ar    1  LIG1        0.0663
      5 N           0.1298   -0.7156    0.5310 N.ar    1  LIG1       -0.3590
      6 H           0.1463   -1.3773    1.2902 H       1  LIG1        0.1654
      7 H           2.2244   -0.2940    0.3443 H       1  LIG1        0.0810
      8 C           1.6195    1.8907   -1.6122 C.3     1  LIG1       -0.0380
      9 H           1.3854    2.9364   -1.3774 H       1  LIG1        0.0278
     10 H           1.4748    1.7697   -2.6933 H       1  LIG1        0.0278
     11 H           2.6827    1.7366   -1.4049 H       1  LIG1        0.0278
     12 C          -1.5736    1.6651   -1.7227 C.3     1  LIG1       -0.0374
     13 H          -2.5812    1.2412   -1.7350 H       1  LIG1        0.0278
     14 H          -1.2123    1.7016   -2.7576 H       1  LIG1        0.0278
     15 H          -1.6572    2.7049   -1.3806 H       1  LIG1        0.0278
     16 C          -2.3362   -0.7202    0.3613 C.ar    1  LIG1        0.0668
     17 C          -3.5090   -0.1186    0.8004 C.ar    1  LIG1       -0.0202
     18 C          -4.4741   -1.1537    1.0132 C.ar    1  LIG1       -0.0202
     19 C          -3.8647   -2.3676    0.7050 C.ar    1  LIG1        0.0668
     20 N          -2.5612   -2.0873    0.3370 N.ar    1  LIG1       -0.3514
     21 H          -1.9673   -2.7429   -0.1462 H       1  LIG1        0.1660
     22 C          -3.7042    1.3400    1.0903 C.3     1  LIG1       -0.0374
     23 H          -4.1492    1.4944    2.0809 H       1  LIG1        0.0278
     24 H          -4.3712    1.8240    0.3653 H       1  LIG1        0.0278
     25 H          -2.7496    1.8719    1.0664 H       1  LIG1        0.0278
     26 C          -5.8610   -0.9515    1.5514 C.3     1  LIG1       -0.0374
     27 H          -6.3020   -1.8966    1.8799 H       1  LIG1        0.0278
     28 H          -6.5377   -0.5070    0.8086 H       1  LIG1        0.0278
     29 H          -5.8583   -0.2729    2.4126 H       1  LIG1        0.0278
     30 C          -4.3663   -3.7307    0.7076 C.ar    1  LIG1        0.0668
     31 C          -3.7637   -4.9409    1.0426 C.ar    1  LIG1       -0.0202
     32 C          -4.7242   -5.9785    0.8214 C.ar    1  LIG1       -0.0202
     33 C          -5.8874   -5.3821    0.3506 C.ar    1  LIG1        0.0668
     34 N          -5.6617   -4.0153    0.3153 N.ar    1  LIG1       -0.3514
     35 H          -6.2451   -3.3656   -0.1881 H       1  LIG1        0.1660
     36 C          -2.3886   -5.1367    1.6125 C.3     1  LIG1       -0.0374
     37 H          -1.9544   -4.1878    1.9392 H       1  LIG1        0.0278
     38 H          -1.6964   -5.5898    0.8894 H       1  LIG1        0.0278
     39 H          -2.4097   -5.8051    2.4813 H       1  LIG1        0.0278
     40 C          -4.5353   -7.4336    1.1321 C.3     1  LIG1       -0.0374
     41 H          -4.1122   -7.5765    2.1340 H       1  LIG1        0.0278
     42 H          -3.8524   -7.9255    0.4276 H       1  LIG1        0.0278
     43 H          -5.4890   -7.9661    1.0932 H       1  LIG1        0.0278
     44 C          -7.1815   -5.9338   -0.0230 C.ar    1  LIG1        0.0663
     45 C          -7.5377   -6.9659   -0.8835 C.ar    1  LIG1       -0.0209
     46 C          -8.9688   -7.0538   -0.8801 C.ar    1  LIG1       -0.0296
     47 C          -9.4356   -6.0727   -0.0315 C.ar    1  LIG1        0.0054
     48 N          -8.3564   -5.3855    0.4692 N.ar    1  LIG1       -0.3590
     49 H          -8.3885   -4.7146    1.2198 H       1  LIG1        0.1654
     50 H         -10.4467   -5.8093    0.2437 H       1  LIG1        0.0810
     51 C          -6.6068   -7.7905   -1.7226 C.3     1  LIG1       -0.0374
     52 H          -5.5990   -7.3671   -1.7180 H       1  LIG1        0.0278
     53 H          -6.9463   -7.8377   -2.7644 H       1  LIG1        0.0278
     54 H          -6.5312   -8.8266   -1.3678 H       1  LIG1        0.0278
     55 C          -9.8015   -8.0156   -1.6753 C.3     1  LIG1       -0.0380
     56 H          -9.5776   -9.0584   -1.4185 H       1  LIG1        0.0278
     57 H          -9.6289   -7.9119   -2.7540 H       1  LIG1        0.0278
     58 H         -10.8690   -7.8546   -1.4975 H       1  LIG1        0.0278
@<TRIPOS>BOND
     1    53    51    1
     2    14    12    1
     3    57    55    1
     4    10     8    1
     5    13    12    1
     6    12    15    1
     7    12     3    1
     8    51    52    1
     9    51    54    1
    10    51    45    1
    11    55    58    1
    12    55    56    1
    13    55    46    1
    14     8    11    1
    15     8     9    1
    16     8     2    1
    17    45    46   ar
    18    45    44   ar
    19    46    47   ar
    20     3     2   ar
    21     3     4   ar
    22     2     1   ar
    23    35    34    1
    24    21    20    1
    25    47    50    1
    26    47    48   ar
    27    44    33    1
    28    44    48   ar
    29     4    16    1
    30     4     5   ar
    31     1     7    1
    32     1     5   ar
    33    34    33   ar
    34    34    30   ar
    35    20    16   ar
    36    20    19   ar
    37    33    32   ar
    38    16    17   ar
    39    24    22    1
    40    42    40    1
    41    48    49    1
    42     5     6    1
    43    19    30    1
    44    19    18   ar
    45    30    31   ar
    46    17    18   ar
    47    17    22    1
    48    28    26    1
    49    32    31   ar
    50    32    40    1
    51    38    36    1
    52    18    26    1
    53    31    36    1
    54    25    22    1
    55    22    23    1
    56    43    40    1
    57    40    41    1
    58    26    27    1
    59    26    29    1
    60    36    37    1
    61    36    39    1
