@<TRIPOS>MOLECULE
mol_data/opt/b3lyp/geoms/mol2/13ii13ii13ii13ii-.out
 58 61 0 0 0
SMALL
GASTEIGER

@<TRIPOS>ATOM
      1 C           0.1315    0.7500   -2.6348 C.ar    1  LIG1        0.0054
      2 C           0.5739    1.2764   -1.4402 C.ar    1  LIG1       -0.0296
      3 C          -0.3580    0.8716   -0.4280 C.ar    1  LIG1       -0.0209
      4 C          -1.3448    0.1150   -1.0472 C.ar    1  LIG1        0.0663
      5 N          -1.0148    0.0317   -2.3926 N.ar    1  LIG1       -0.3590
      6 H          -1.6375   -0.3239   -3.1001 H       1  LIG1        0.1654
      7 H           0.5488    0.8245   -3.6288 H       1  LIG1        0.0810
      8 C           1.8136    2.0944   -1.2291 C.3     1  LIG1       -0.0380
      9 H           2.5066    1.6129   -0.5275 H       1  LIG1        0.0278
     10 H           1.5836    3.0845   -0.8163 H       1  LIG1        0.0278
     11 H           2.3521    2.2467   -2.1693 H       1  LIG1        0.0278
     12 C          -0.2423    1.1576    1.0399 C.3     1  LIG1       -0.0374
     13 H          -0.9685    0.5728    1.6105 H       1  LIG1        0.0278
     14 H          -0.4151    2.2165    1.2717 H       1  LIG1        0.0278
     15 H           0.7577    0.9110    1.4173 H       1  LIG1        0.0278
     16 C          -2.5219   -0.5643   -0.5203 C.ar    1  LIG1        0.0668
     17 C          -3.5962   -0.1065    0.2345 C.ar    1  LIG1       -0.0202
     18 C          -4.4785   -1.2112    0.4487 C.ar    1  LIG1       -0.0202
     19 C          -3.9348   -2.3170   -0.1963 C.ar    1  LIG1        0.0668
     20 N          -2.7468   -1.9055   -0.7746 N.ar    1  LIG1       -0.3514
     21 H          -2.1296   -2.4982   -1.3068 H       1  LIG1        0.1660
     22 C          -3.8154    1.2993    0.7097 C.3     1  LIG1       -0.0374
     23 H          -3.7085    1.3923    1.7983 H       1  LIG1        0.0278
     24 H          -4.8234    1.6513    0.4602 H       1  LIG1        0.0278
     25 H          -3.0972    1.9827    0.2490 H       1  LIG1        0.0278
     26 C          -5.7391   -1.1837    1.2613 C.3     1  LIG1       -0.0374
     27 H          -6.1197   -2.1952    1.4254 H       1  LIG1        0.0278
     28 H          -6.5354   -0.6049    0.7753 H       1  LIG1        0.0278
     29 H          -5.5696   -0.7249    2.2427 H       1  LIG1        0.0278
     30 C          -4.3807   -3.7011   -0.2914 C.ar    1  LIG1        0.0668
     31 C          -5.5801   -4.2616   -0.7163 C.ar    1  LIG1       -0.0202
     32 C          -5.4584   -5.6815   -0.6074 C.ar    1  LIG1       -0.0202
     33 C          -4.1787   -5.9604   -0.1325 C.ar    1  LIG1        0.0668
     34 N          -3.5403   -4.7484    0.0429 N.ar    1  LIG1       -0.3514
     35 H          -2.6201   -4.6430    0.4386 H       1  LIG1        0.1660
     36 C          -6.7749   -3.5197   -1.2383 C.3     1  LIG1       -0.0374
     37 H          -7.1103   -3.9279   -2.1994 H       1  LIG1        0.0278
     38 H          -6.5428   -2.4618   -1.3860 H       1  LIG1        0.0278
     39 H          -7.6318   -3.5773   -0.5545 H       1  LIG1        0.0278
     40 C          -6.5400   -6.6736   -0.9253 C.3     1  LIG1       -0.0374
     41 H          -6.3005   -7.6653   -0.5315 H       1  LIG1        0.0278
     42 H          -6.7129   -6.7758   -2.0058 H       1  LIG1        0.0278
     43 H          -7.4968   -6.3688   -0.4859 H       1  LIG1        0.0278
     44 C          -3.5075   -7.2178    0.1626 C.ar    1  LIG1        0.0663
     45 C          -2.6785   -7.6019    1.2137 C.ar    1  LIG1       -0.0209
     46 C          -2.2891   -8.9606    0.9797 C.ar    1  LIG1       -0.0296
     47 C          -2.8920   -9.3608   -0.1943 C.ar    1  LIG1        0.0054
     48 N          -3.6310   -8.3099   -0.6776 N.ar    1  LIG1       -0.3590
     49 H          -4.1070   -8.2843   -1.5641 H       1  LIG1        0.1654
     50 H          -2.8570  -10.3087   -0.7114 H       1  LIG1        0.0810
     51 C          -2.2963   -6.7797    2.4109 C.3     1  LIG1       -0.0374
     52 H          -2.9287   -5.8922    2.5062 H       1  LIG1        0.0278
     53 H          -1.2510   -6.4429    2.3740 H       1  LIG1        0.0278
     54 H          -2.4033   -7.3557    3.3374 H       1  LIG1        0.0278
     55 C          -1.4100   -9.7985    1.8607 C.3     1  LIG1       -0.0380
     56 H          -1.8191   -9.8937    2.8745 H       1  LIG1        0.0278
     57 H          -0.4054   -9.3699    1.9640 H       1  LIG1        0.0278
     58 H          -1.2964  -10.8093    1.4577 H       1  LIG1        0.0278
@<TRIPOS>BOND
     1     7     1    1
     2     6     5    1
     3     1     5   ar
     4     1     2   ar
     5     5     4   ar
     6    37    36    1
     7    11     8    1
     8    42    40    1
     9    49    48    1
    10     2     8    1
    11     2     3   ar
    12    38    36    1
    13    21    20    1
    14    36    31    1
    15    36    39    1
    16     8    10    1
    17     8     9    1
    18     4    16    1
    19     4     3   ar
    20    40    32    1
    21    40    41    1
    22    40    43    1
    23    20    16   ar
    24    20    19   ar
    25    31    32   ar
    26    31    30   ar
    27    50    47    1
    28    48    47   ar
    29    48    44   ar
    30    32    33   ar
    31    16    17   ar
    32     3    12    1
    33    30    19    1
    34    30    34   ar
    35    19    18   ar
    36    47    46   ar
    37    33    34   ar
    38    33    44    1
    39    34    35    1
    40    44    45   ar
    41    17    18   ar
    42    17    22    1
    43    25    22    1
    44    18    26    1
    45    24    22    1
    46    22    23    1
    47    28    26    1
    48    46    45   ar
    49    46    55    1
    50    12    14    1
    51    12    15    1
    52    12    13    1
    53    45    51    1
    54    26    27    1
    55    26    29    1
    56    58    55    1
    57    55    57    1
    58    55    56    1
    59    53    51    1
    60    51    52    1
    61    51    54    1
