@<TRIPOS>MOLECULE
mol_data/opt/b3lyp/geoms/mol2/13ii13ii-13ii13ii-.out
 58 61 0 0 0
SMALL
GASTEIGER

@<TRIPOS>ATOM
      1 C           1.0354   -0.2390   -1.5201 C.ar    1  LIG1        0.0054
      2 C           0.8810    0.9907   -0.9154 C.ar    1  LIG1       -0.0296
      3 C          -0.3877    0.9795   -0.2500 C.ar    1  LIG1       -0.0209
      4 C          -0.9680   -0.2658   -0.4787 C.ar    1  LIG1        0.0663
      5 N          -0.0771   -0.9952   -1.2460 N.ar    1  LIG1       -0.3590
      6 H          -0.2844   -1.8995   -1.6365 H       1  LIG1        0.1654
      7 H           1.8500   -0.6306   -2.1119 H       1  LIG1        0.0810
      8 C           1.8673    2.1210   -0.9293 C.3     1  LIG1       -0.0380
      9 H           2.1937    2.3916    0.0828 H       1  LIG1        0.0278
     10 H           1.4440    3.0283   -1.3780 H       1  LIG1        0.0278
     11 H           2.7617    1.8576   -1.5019 H       1  LIG1        0.0278
     12 C          -0.9438    2.0950    0.5871 C.3     1  LIG1       -0.0374
     13 H          -1.7928    1.7571    1.1876 H       1  LIG1        0.0278
     14 H          -1.2823    2.9466   -0.0190 H       1  LIG1        0.0278
     15 H          -0.1883    2.4866    1.2785 H       1  LIG1        0.0278
     16 C          -2.2441   -0.8320   -0.0698 C.ar    1  LIG1        0.0668
     17 C          -2.5883   -2.0975    0.3985 C.ar    1  LIG1       -0.0202
     18 C          -3.9999   -2.1067    0.6238 C.ar    1  LIG1       -0.0202
     19 C          -4.4883   -0.8454    0.2880 C.ar    1  LIG1        0.0668
     20 N          -3.4060   -0.0865   -0.1140 N.ar    1  LIG1       -0.3514
     21 H          -3.4817    0.8104   -0.5658 H       1  LIG1        0.1660
     22 C          -1.6510   -3.2322    0.6957 C.3     1  LIG1       -0.0374
     23 H          -0.6083   -2.9038    0.6722 H       1  LIG1        0.0278
     24 H          -1.7573   -4.0614   -0.0172 H       1  LIG1        0.0278
     25 H          -1.8396   -3.6534    1.6904 H       1  LIG1        0.0278
     26 C          -4.7822   -3.2541    1.1945 C.3     1  LIG1       -0.0374
     27 H          -4.2684   -3.6940    2.0574 H       1  LIG1        0.0278
     28 H          -4.9239   -4.0677    0.4697 H       1  LIG1        0.0278
     29 H          -5.7713   -2.9335    1.5320 H       1  LIG1        0.0278
     30 C          -5.8335   -0.2960    0.2890 C.ar    1  LIG1        0.0668
     31 C          -6.3214    0.9652    0.6256 C.ar    1  LIG1       -0.0202
     32 C          -7.7332    0.9561    0.4021 C.ar    1  LIG1       -0.0202
     33 C          -8.0780   -0.3094   -0.0660 C.ar    1  LIG1        0.0668
     34 N          -6.9163   -1.0549   -0.1117 N.ar    1  LIG1       -0.3514
     35 H          -6.8411   -1.9517   -0.5637 H       1  LIG1        0.1660
     36 C          -5.5384    2.1126    1.1955 C.3     1  LIG1       -0.0374
     37 H          -6.0511    2.5523    2.0592 H       1  LIG1        0.0278
     38 H          -5.3976    2.9262    0.4707 H       1  LIG1        0.0278
     39 H          -4.5489    1.7919    1.5317 H       1  LIG1        0.0278
     40 C          -8.6702    2.0907    0.7006 C.3     1  LIG1       -0.0374
     41 H          -9.7129    1.7624    0.6783 H       1  LIG1        0.0278
     42 H          -8.5648    2.9200   -0.0123 H       1  LIG1        0.0278
     43 H          -8.4804    2.5117    1.6952 H       1  LIG1        0.0278
     44 C          -9.3546   -0.8755   -0.4735 C.ar    1  LIG1        0.0663
     45 C          -9.9347   -2.1208   -0.2443 C.ar    1  LIG1       -0.0209
     46 C         -11.2042   -2.1319   -0.9082 C.ar    1  LIG1       -0.0296
     47 C         -11.3593   -0.9021   -1.5125 C.ar    1  LIG1        0.0054
     48 N         -10.2464   -0.1460   -1.2398 N.ar    1  LIG1       -0.3590
     49 H         -10.0395    0.7583   -1.6304 H       1  LIG1        0.1654
     50 H         -12.1746   -0.5104   -2.1034 H       1  LIG1        0.0810
     51 C          -9.3776   -3.2364    0.5920 C.3     1  LIG1       -0.0374
     52 H          -8.5278   -2.8986    1.1914 H       1  LIG1        0.0278
     53 H          -9.0400   -4.0879   -0.0146 H       1  LIG1        0.0278
     54 H         -10.1323   -3.6280    1.2843 H       1  LIG1        0.0278
     55 C         -12.1906   -3.2621   -0.9210 C.3     1  LIG1       -0.0380
     56 H         -12.5158   -3.5328    0.0915 H       1  LIG1        0.0278
     57 H         -11.7679   -4.1694   -1.3703 H       1  LIG1        0.0278
     58 H         -13.0856   -2.9986   -1.4925 H       1  LIG1        0.0278
@<TRIPOS>BOND
     1     7     1    1
     2    50    47    1
     3     6     5    1
     4    49    48    1
     5     1     5   ar
     6     1     2   ar
     7    47    48   ar
     8    47    46   ar
     9    11     8    1
    10    58    55    1
    11    10     8    1
    12    57    55    1
    13     5     4   ar
    14    48    44   ar
    15     8     2    1
    16     8     9    1
    17    55    46    1
    18    55    56    1
    19     2     3   ar
    20    46    45   ar
    21    21    20    1
    22    35    34    1
    23     4     3   ar
    24     4    16    1
    25    44    45   ar
    26    44    33    1
    27     3    12    1
    28    45    51    1
    29    20    16   ar
    30    20    19   ar
    31    34    33   ar
    32    34    30   ar
    33    16    17   ar
    34    33    32   ar
    35    14    12    1
    36    24    22    1
    37    53    51    1
    38    42    40    1
    39    19    30    1
    40    19    18   ar
    41    30    31   ar
    42    17    18   ar
    43    17    22    1
    44    32    31   ar
    45    32    40    1
    46    28    26    1
    47    38    36    1
    48    12    13    1
    49    12    15    1
    50    51    52    1
    51    51    54    1
    52    18    26    1
    53    31    36    1
    54    23    22    1
    55    41    40    1
    56    22    25    1
    57    40    43    1
    58    26    29    1
    59    26    27    1
    60    36    39    1
    61    36    37    1
