@<TRIPOS>MOLECULE
mol_data/opt/b3lyp/geoms/mol2/13ii6fa-13ia-12fh-12fl-6ea-4ei-6lf-.out
 99 106 0 0 0
SMALL
GASTEIGER

@<TRIPOS>ATOM
      1 C          -0.0990    1.2254   -1.2865 C.ar    1  LIG1        0.0053
      2 C          -0.1359    1.9837   -0.1394 C.ar    1  LIG1       -0.0297
      3 C          -1.3570    1.6630    0.5450 C.ar    1  LIG1       -0.0221
      4 C          -2.0288    0.7169   -0.2170 C.ar    1  LIG1        0.0548
      5 N          -1.2219    0.4271   -1.3180 N.ar    1  LIG1       -0.3600
      6 H          -1.5681   -0.0280   -2.1500 H       1  LIG1        0.1654
      7 H           0.6445    1.1749   -2.0688 H       1  LIG1        0.0810
      8 C           0.9159    2.9437    0.3318 C.3     1  LIG1       -0.0380
      9 H           1.3374    2.6440    1.2994 H       1  LIG1        0.0278
     10 H           0.5128    3.9553    0.4611 H       1  LIG1        0.0278
     11 H           1.7428    3.0057   -0.3816 H       1  LIG1        0.0278
     12 C          -1.7740    2.2152    1.8766 C.3     1  LIG1       -0.0375
     13 H          -2.6053    1.6482    2.3030 H       1  LIG1        0.0278
     14 H          -2.0899    3.2643    1.8072 H       1  LIG1        0.0278
     15 H          -0.9467    2.1827    2.5950 H       1  LIG1        0.0278
     16 C          -3.4569   -1.3643   -0.2019 C.ar    1  LIG1        0.2222
     17 C          -3.3118    0.0362   -0.0179 C.ar    1  LIG1        0.0599
     18 C          -4.4740    0.7107    0.3794 C.ar    1  LIG1       -0.0454
     19 C          -5.6717    0.0324    0.5639 C.ar    1  LIG1       -0.0334
     20 C          -5.7075   -1.3535    0.3280 C.ar    1  LIG1        0.0912
     21 N          -4.5893   -2.0252   -0.0475 N.ar    1  LIG1       -0.2110
     22 H          -4.4329    1.7857    0.5245 H       1  LIG1        0.0626
     23 O          -2.4063   -2.1447   -0.5757 O.3     1  LIG1       -0.4919
     24 H          -1.5897   -1.6246   -0.5112 H       1  LIG1        0.2937
     25 H          -6.5589    0.5668    0.8734 H       1  LIG1        0.0640
     26 C          -6.9012   -2.1662    0.4625 C.ar    1  LIG1        0.0685
     27 C          -8.2545   -1.8853    0.7284 C.ar    1  LIG1       -0.0230
     28 C          -8.9434   -3.1157    0.6960 C.ar    1  LIG1       -0.0297
     29 C          -8.0171   -4.1251    0.4177 C.ar    1  LIG1        0.0866
     30 N          -6.7973   -3.5276    0.2819 N.ar    1  LIG1       -0.3503
     31 H          -5.9231   -3.9885    0.0743 H       1  LIG1        0.1660
     32 C          -8.8964   -0.5528    0.9885 C.3     1  LIG1       -0.0376
     33 H          -9.9784   -0.6702    1.0923 H       1  LIG1        0.0278
     34 H          -8.7203    0.1579    0.1725 H       1  LIG1        0.0278
     35 H          -8.5294   -0.0871    1.9114 H       1  LIG1        0.0278
     36 H         -10.0015   -3.2682    0.8526 H       1  LIG1        0.0643
     37 C          -8.1822   -5.5371    0.2658 C.ar    1  LIG1        0.1950
     38 C          -9.2713   -6.3773    0.2777 C.ar    1  LIG1        0.1861
     39 C          -8.8060   -7.6993    0.0254 C.ar    1  LIG1        0.1170
     40 C          -7.4322   -7.5978   -0.1149 C.ar    1  LIG1        0.1987
     41 O          -7.0536   -6.2846    0.0296 O.2     1  LIG1       -0.4444
     42 O         -10.5712   -6.0246    0.4877 O.3     1  LIG1       -0.5019
     43 H         -11.0154   -6.8021    0.8607 H       1  LIG1        0.2924
     44 N          -9.6675   -8.8100    0.0283 N.pl3   1  LIG1       -0.3521
     45 H         -10.3741   -8.7291   -0.6989 H       1  LIG1        0.1425
     46 H          -9.1692   -9.6850   -0.1057 H       1  LIG1        0.1425
     47 C          -6.4002   -8.5593   -0.3429 C.ar    1  LIG1        0.2175
     48 C          -6.4131   -9.8899   -0.7039 C.ar    1  LIG1        0.2092
     49 C          -5.0654  -10.3154   -0.7714 C.ar    1  LIG1        0.2085
     50 C          -4.2669   -9.2318   -0.4451 C.ar    1  LIG1        0.1837
     51 O          -5.0927   -8.1666   -0.1969 O.2     1  LIG1       -0.4439
     52 O          -7.5029  -10.6747   -0.9587 O.3     1  LIG1       -0.5007
     53 H          -7.1786  -11.5873   -1.0119 H       1  LIG1        0.2924
     54 O          -4.7333  -11.6067   -1.1008 O.3     1  LIG1       -0.4884
     55 C          -4.2648  -11.7672   -2.4523 C.3     1  LIG1        0.0791
     56 H          -4.1210  -12.8389   -2.6011 H       1  LIG1        0.0660
     57 H          -5.0020  -11.3880   -3.1686 H       1  LIG1        0.0660
     58 H          -3.3140  -11.2455   -2.6012 H       1  LIG1        0.0660
     59 C          -2.1110   -7.8736   -0.2499 C.ar    1  LIG1        0.1246
     60 C          -2.8331   -9.1020   -0.2876 C.ar    1  LIG1        0.0549
     61 C          -2.0646  -10.2774   -0.1651 C.ar    1  LIG1       -0.0463
     62 C          -0.6907  -10.2204   -0.0191 C.ar    1  LIG1       -0.0349
     63 C          -0.0625   -8.9629    0.0207 C.ar    1  LIG1        0.0736
     64 N          -0.7749   -7.8343   -0.1020 N.ar    1  LIG1       -0.2377
     65 H          -2.5675  -11.2380   -0.1727 H       1  LIG1        0.0626
     66 C          -2.7209   -6.5819   -0.3742 C.1     1  LIG1       -0.0491
     67 C          -3.1265   -5.4457   -0.4718 C.1     1  LIG1       -0.1124
     68 H          -3.4440   -4.4258   -0.5391 H       1  LIG1        0.1232
     69 H          -0.1146  -11.1316    0.0665 H       1  LIG1        0.0639
     70 C           2.2745   -9.6761    0.8241 C.ar    1  LIG1        0.0344
     71 C           3.6556   -9.4049    0.8361 C.ar    1  LIG1       -0.0376
     72 C           1.4115   -8.7882    0.1345 C.ar    1  LIG1        0.0160
     73 C           4.2100   -8.2968    0.1956 C.ar    1  LIG1       -0.0086
     74 H           4.3077  -10.0915    1.3656 H       1  LIG1        0.0636
     75 C           1.9834   -7.6610   -0.4738 C.ar    1  LIG1       -0.0479
     76 C           3.3508   -7.3898   -0.4662 C.ar    1  LIG1       -0.0419
     77 H           1.3067   -6.9670   -0.9602 H       1  LIG1        0.0627
     78 C           1.8341  -10.8162    1.5680 C.1     1  LIG1       -0.0690
     79 C           1.5411  -11.7888    2.2278 C.1     1  LIG1       -0.1139
     80 H           1.2602  -12.6334    2.8130 H       1  LIG1        0.1232
     81 C           3.8716   -6.1434   -1.1372 C.3     1  LIG1       -0.0391
     82 H           3.0494   -5.4779   -1.4112 H       1  LIG1        0.0278
     83 H           4.4305   -6.3952   -2.0439 H       1  LIG1        0.0278
     84 H           4.5537   -5.5921   -0.4813 H       1  LIG1        0.0278
     85 C           6.5416   -8.1177   -0.8404 C.ar    1  LIG1        0.2226
     86 C           5.6832   -8.0886    0.2900 C.ar    1  LIG1        0.0474
     87 C           6.2943   -7.9059    1.5263 C.ar    1  LIG1       -0.0059
     88 C           7.6838   -7.7429    1.6116 C.ar    1  LIG1        0.1357
     89 C           8.4184   -7.7755    0.4325 C.ar    1  LIG1        0.0728
     90 N           7.8538   -7.9640   -0.7704 N.ar    1  LIG1       -0.2172
     91 H           5.6990   -7.8768    2.4330 H       1  LIG1        0.0662
     92 H           9.5017   -7.6500    0.4472 H       1  LIG1        0.0868
     93 O           5.9644   -8.3340   -2.0512 O.3     1  LIG1       -0.4792
     94 C           6.8391   -8.4128   -3.1783 C.3     1  LIG1        0.0804
     95 H           6.1897   -8.5993   -4.0347 H       1  LIG1        0.0660
     96 H           7.3943   -7.4804   -3.3169 H       1  LIG1        0.0660
     97 H           7.5587   -9.2285   -3.0625 H       1  LIG1        0.0660
     98 O           8.2371   -7.5573    2.8486 O.3     1  LIG1       -0.5052
     99 H           9.1938   -7.4566    2.7544 H       1  LIG1        0.2922
@<TRIPOS>BOND
     1    95    94    1
     2    96    94    1
     3    94    97    1
     4    94    93    1
     5    57    55    1
     6    58    55    1
     7    56    55    1
     8    55    54    1
     9     6     5    1
    10     7     1    1
    11    93    85    1
    12    83    81    1
    13    82    81    1
    14     5     1   ar
    15     5     4   ar
    16     1     2   ar
    17    81    84    1
    18    81    76    1
    19    54    49    1
    20    53    52    1
    21    77    75    1
    22    52    48    1
    23    85    90   ar
    24    85    86   ar
    25    49    48   ar
    26    49    50   ar
    27    90    89   ar
    28    48    47   ar
    29    45    44    1
    30    23    24    1
    31    23    16    1
    32    68    67    1
    33    75    76   ar
    34    75    72   ar
    35    67    66    3
    36    76    73   ar
    37    50    60    1
    38    50    51   ar
    39    11     8    1
    40    66    59    1
    41    47    51   ar
    42    47    40    1
    43    60    59   ar
    44    60    61   ar
    45    59    64   ar
    46     4    17    1
    47     4     3   ar
    48    16    21   ar
    49    16    17   ar
    50    65    61    1
    51    61    62   ar
    52     2     8    1
    53     2     3   ar
    54    40    39   ar
    55    40    41   ar
    56    46    44    1
    57    64    63   ar
    58    21    20   ar
    59    62    63   ar
    60    62    69    1
    61    17    18   ar
    62    63    72    1
    63    39    44    1
    64    39    38   ar
    65    41    37   ar
    66    31    30    1
    67    72    70   ar
    68    34    32    1
    69    73    86    1
    70    73    71   ar
    71    37    38   ar
    72    37    29    1
    73    38    42    1
    74    30    29   ar
    75    30    26   ar
    76    86    87   ar
    77    20    26    1
    78    20    19   ar
    79     8    10    1
    80     8     9    1
    81    18    22    1
    82    18    19   ar
    83    29    28   ar
    84    89    92    1
    85    89    88   ar
    86    26    27   ar
    87    42    43    1
    88     3    12    1
    89    19    25    1
    90    28    27   ar
    91    28    36    1
    92    27    32    1
    93    70    71   ar
    94    70    78    1
    95    71    74    1
    96    32    33    1
    97    32    35    1
    98    87    88   ar
    99    87    91    1
   100    78    79    3
   101    88    98    1
   102    14    12    1
   103    12    13    1
   104    12    15    1
   105    79    80    1
   106    99    98    1
