@<TRIPOS>MOLECULE
mol_data/opt/b3lyp/geoms/mol2/13ii13ii-13ii.out
 44 46 0 0 0
SMALL
GASTEIGER

@<TRIPOS>ATOM
      1 C           1.1669   -0.3062   -1.0157 C.ar    1  LIG1        0.0054
      2 C           0.9300    0.9262   -0.4443 C.ar    1  LIG1       -0.0296
      3 C          -0.4281    0.9277    0.0124 C.ar    1  LIG1       -0.0209
      4 C          -0.9760   -0.3132   -0.3032 C.ar    1  LIG1        0.0663
      5 N           0.0184   -1.0522   -0.9194 N.ar    1  LIG1       -0.3590
      6 H          -0.1329   -1.9552   -1.3375 H       1  LIG1        0.1654
      7 H           2.0612   -0.7065   -1.4710 H       1  LIG1        0.0810
      8 C           1.9159    2.0482   -0.3039 C.3     1  LIG1       -0.0380
      9 H           2.0849    2.3155    0.7469 H       1  LIG1        0.0278
     10 H           1.5741    2.9593   -0.8107 H       1  LIG1        0.0278
     11 H           2.8855    1.7777   -0.7326 H       1  LIG1        0.0278
     12 C          -1.0991    2.0513    0.7481 C.3     1  LIG1       -0.0374
     13 H          -2.0423    1.7275    1.1965 H       1  LIG1        0.0278
     14 H          -1.3170    2.9082    0.0960 H       1  LIG1        0.0278
     15 H          -0.4645    2.4306    1.5580 H       1  LIG1        0.0278
     16 C          -2.3055   -0.8685   -0.1010 C.ar    1  LIG1        0.0668
     17 C          -2.7285   -2.1326    0.3027 C.ar    1  LIG1       -0.0202
     18 C          -4.1582   -2.1304    0.3034 C.ar    1  LIG1       -0.0202
     19 C          -4.5775   -0.8649   -0.0999 C.ar    1  LIG1        0.0668
     20 N          -3.4404   -0.1141   -0.3250 N.ar    1  LIG1       -0.3514
     21 H          -3.4392    0.7878   -0.7734 H       1  LIG1        0.1660
     22 C          -1.8580   -3.2756    0.7391 C.3     1  LIG1       -0.0374
     23 H          -0.8240   -2.9532    0.8889 H       1  LIG1        0.0278
     24 H          -1.8502   -4.0990    0.0116 H       1  LIG1        0.0278
     25 H          -2.2083   -3.7028    1.6862 H       1  LIG1        0.0278
     26 C          -5.0319   -3.2705    0.7405 C.3     1  LIG1       -0.0374
     27 H          -4.6821   -3.6989    1.6874 H       1  LIG1        0.0278
     28 H          -5.0430   -4.0939    0.0130 H       1  LIG1        0.0278
     29 H          -6.0647   -2.9449    0.8912 H       1  LIG1        0.0278
     30 C          -5.9055   -0.3054   -0.3008 C.ar    1  LIG1        0.0663
     31 C          -6.4492    0.9372    0.0155 C.ar    1  LIG1       -0.0209
     32 C          -7.8076    0.9401   -0.4402 C.ar    1  LIG1       -0.0296
     33 C          -8.0490   -0.2916   -1.0113 C.ar    1  LIG1        0.0054
     34 N          -6.9028   -1.0412   -0.9161 N.ar    1  LIG1       -0.3590
     35 H          -6.7547   -1.9447   -1.3343 H       1  LIG1        0.1654
     36 H          -8.9449   -0.6890   -1.4659 H       1  LIG1        0.0810
     37 C          -5.7740    2.0586    0.7507 C.3     1  LIG1       -0.0374
     38 H          -6.4066    2.4397    1.5613 H       1  LIG1        0.0278
     39 H          -5.5541    2.9150    0.0986 H       1  LIG1        0.0278
     40 H          -4.8314    1.7318    1.1982 H       1  LIG1        0.0278
     41 C          -8.7897    2.0653   -0.2990 C.3     1  LIG1       -0.0380
     42 H          -9.7606    1.7979   -0.7270 H       1  LIG1        0.0278
     43 H          -8.4454    2.9752   -0.8061 H       1  LIG1        0.0278
     44 H          -8.9571    2.3331    0.7519 H       1  LIG1        0.0278
@<TRIPOS>BOND
     1     7     1    1
     2    36    33    1
     3     6     5    1
     4    35    34    1
     5     1     5   ar
     6     1     2   ar
     7    33    34   ar
     8    33    32   ar
     9     5     4   ar
    10    34    30   ar
    11    10     8    1
    12    43    41    1
    13    21    20    1
    14    11     8    1
    15    42    41    1
    16     2     8    1
    17     2     3   ar
    18    32    41    1
    19    32    31   ar
    20    20    16   ar
    21    20    19   ar
    22     8     9    1
    23     4    16    1
    24     4     3   ar
    25    30    19    1
    26    30    31   ar
    27    41    44    1
    28    16    17   ar
    29    19    18   ar
    30    24    22    1
    31     3    12    1
    32    28    26    1
    33    31    37    1
    34    14    12    1
    35    39    37    1
    36    17    18   ar
    37    17    22    1
    38    18    26    1
    39    22    23    1
    40    22    25    1
    41    26    29    1
    42    26    27    1
    43    12    13    1
    44    12    15    1
    45    37    40    1
    46    37    38    1
