@<TRIPOS>MOLECULE
mol_data/opt/b3lyp/geoms/mol2/13ii13ii13ii13ii.out
 58 61 0 0 0
SMALL
GASTEIGER

@<TRIPOS>ATOM
      1 C           1.2279   -0.2091   -0.1339 C.ar    1  LIG1        0.0054
      2 C           0.8071    0.9240   -0.7966 C.ar    1  LIG1       -0.0296
      3 C          -0.6266    0.9235   -0.7703 C.ar    1  LIG1       -0.0209
      4 C          -1.0304   -0.2130   -0.0788 C.ar    1  LIG1        0.0663
      5 N           0.1172   -0.9043    0.2801 N.ar    1  LIG1       -0.3590
      6 H           0.1219   -1.6885    0.9118 H       1  LIG1        0.1654
      7 H           2.2256   -0.5739    0.0633 H       1  LIG1        0.0810
      8 C           1.6827    1.9517   -1.4509 C.3     1  LIG1       -0.0380
      9 H           1.5304    2.9501   -1.0226 H       1  LIG1        0.0278
     10 H           1.4817    2.0351   -2.5264 H       1  LIG1        0.0278
     11 H           2.7414    1.7014   -1.3340 H       1  LIG1        0.0278
     12 C          -1.5176    1.9292   -1.4377 C.3     1  LIG1       -0.0374
     13 H          -2.5508    1.5740   -1.4742 H       1  LIG1        0.0278
     14 H          -1.1941    2.1251   -2.4671 H       1  LIG1        0.0278
     15 H          -1.5190    2.8959   -0.9178 H       1  LIG1        0.0278
     16 C          -2.3485   -0.7418    0.2393 C.ar    1  LIG1        0.0668
     17 C          -3.4693   -0.1570    0.8122 C.ar    1  LIG1       -0.0202
     18 C          -4.4904   -1.1602    0.8903 C.ar    1  LIG1       -0.0202
     19 C          -3.9683   -2.3337    0.3643 C.ar    1  LIG1        0.0668
     20 N          -2.6495   -2.0780    0.0105 N.ar    1  LIG1       -0.3514
     21 H          -2.1405   -2.6451   -0.6511 H       1  LIG1        0.1660
     22 C          -3.5705    1.2404    1.3473 C.3     1  LIG1       -0.0374
     23 H          -3.9750    1.2485    2.3668 H       1  LIG1        0.0278
     24 H          -4.2326    1.8709    0.7402 H       1  LIG1        0.0278
     25 H          -2.5889    1.7203    1.3730 H       1  LIG1        0.0278
     26 C          -5.8406   -0.9893    1.5206 C.3     1  LIG1       -0.0374
     27 H          -6.3395   -1.9541    1.6428 H       1  LIG1        0.0278
     28 H          -6.4999   -0.3481    0.9221 H       1  LIG1        0.0278
     29 H          -5.7628   -0.5236    2.5108 H       1  LIG1        0.0278
     30 C          -4.5382   -3.6628    0.1967 C.ar    1  LIG1        0.0668
     31 C          -5.7181   -4.1008   -0.3965 C.ar    1  LIG1       -0.0202
     32 C          -5.7455   -5.5276   -0.3050 C.ar    1  LIG1       -0.0202
     33 C          -4.5736   -5.9334    0.3239 C.ar    1  LIG1        0.0668
     34 N          -3.8566   -4.7885    0.6230 N.ar    1  LIG1       -0.3514
     35 H          -2.9600   -4.7766    1.0820 H       1  LIG1        0.1660
     36 C          -6.7574   -3.2435   -1.0564 C.3     1  LIG1       -0.0374
     37 H          -7.6860   -3.1892   -0.4733 H       1  LIG1        0.0278
     38 H          -7.0271   -3.6367   -2.0437 H       1  LIG1        0.0278
     39 H          -6.3934   -2.2215   -1.1906 H       1  LIG1        0.0278
     40 C          -6.8582   -6.4172   -0.7750 C.3     1  LIG1       -0.0374
     41 H          -6.7080   -7.4443   -0.4322 H       1  LIG1        0.0278
     42 H          -6.9358   -6.4418   -1.8697 H       1  LIG1        0.0278
     43 H          -7.8292   -6.0751   -0.3974 H       1  LIG1        0.0278
     44 C          -4.0777   -7.2509    0.7023 C.ar    1  LIG1        0.0663
     45 C          -3.8603   -8.4071   -0.0361 C.ar    1  LIG1       -0.0209
     46 C          -3.3394   -9.3992    0.8591 C.ar    1  LIG1       -0.0296
     47 C          -3.2494   -8.8164    2.1049 C.ar    1  LIG1        0.0054
     48 N          -3.6746   -7.5133    2.0043 N.ar    1  LIG1       -0.3590
     49 H          -3.8735   -6.9058    2.7829 H       1  LIG1        0.1654
     50 H          -2.9089   -9.2256    3.0452 H       1  LIG1        0.0810
     51 C          -4.0650   -8.5748   -1.5126 C.3     1  LIG1       -0.0374
     52 H          -4.8913   -9.2601   -1.7416 H       1  LIG1        0.0278
     53 H          -3.1708   -8.9869   -1.9962 H       1  LIG1        0.0278
     54 H          -4.2910   -7.6162   -1.9869 H       1  LIG1        0.0278
     55 C          -2.9412  -10.7994    0.4967 C.3     1  LIG1       -0.0380
     56 H          -2.5654  -11.3424    1.3692 H       1  LIG1        0.0278
     57 H          -2.1521  -10.8161   -0.2658 H       1  LIG1        0.0278
     58 H          -3.7849  -11.3708    0.0904 H       1  LIG1        0.0278
@<TRIPOS>BOND
     1    10     8    1
     2    14    12    1
     3    38    36    1
     4    53    51    1
     5    54    51    1
     6    42    40    1
     7    52    51    1
     8    51    45    1
     9    13    12    1
    10     8    11    1
    11     8     9    1
    12     8     2    1
    13    12    15    1
    14    12     3    1
    15    39    36    1
    16    36    37    1
    17    36    31    1
    18     2     3   ar
    19     2     1   ar
    20    40    41    1
    21    40    43    1
    22    40    32    1
    23     3     4   ar
    24    21    20    1
    25    31    32   ar
    26    31    30   ar
    27    32    33   ar
    28    57    55    1
    29     1     7    1
    30     1     5   ar
    31     4    16    1
    32     4     5   ar
    33    45    44   ar
    34    45    46   ar
    35    20    16   ar
    36    20    19   ar
    37    58    55    1
    38    30    19    1
    39    30    34   ar
    40    16    17   ar
    41     5     6    1
    42    33    34   ar
    43    33    44    1
    44    19    18   ar
    45    55    46    1
    46    55    56    1
    47    34    35    1
    48    44    48   ar
    49    24    22    1
    50    17    18   ar
    51    17    22    1
    52    46    47   ar
    53    18    26    1
    54    28    26    1
    55    22    25    1
    56    22    23    1
    57    26    27    1
    58    26    29    1
    59    48    47   ar
    60    48    49    1
    61    47    50    1
