@<TRIPOS>MOLECULE
mol_data/opt/b3lyp/geoms/mol2/13ii13ii-13ii-13ii.out
 58 61 0 0 0
SMALL
GASTEIGER

@<TRIPOS>ATOM
      1 C           1.2040   -0.7463   -1.3571 C.ar    1  LIG1        0.0054
      2 C           1.0176    0.6071   -1.1695 C.ar    1  LIG1       -0.0296
      3 C          -0.3042    0.7840   -0.6461 C.ar    1  LIG1       -0.0209
      4 C          -0.8821   -0.4787   -0.5357 C.ar    1  LIG1        0.0663
      5 N           0.0600   -1.3960   -0.9654 N.ar    1  LIG1       -0.3590
      6 H          -0.1263   -2.3787   -1.0789 H       1  LIG1        0.1654
      7 H           2.0601   -1.2899   -1.7295 H       1  LIG1        0.0810
      8 C           2.0189    1.6911   -1.4401 C.3     1  LIG1       -0.0380
      9 H           2.2591    2.2618   -0.5341 H       1  LIG1        0.0278
     10 H           1.6514    2.4127   -2.1802 H       1  LIG1        0.0278
     11 H           2.9559    1.2760   -1.8232 H       1  LIG1        0.0278
     12 C          -0.9131    2.0958   -0.2421 C.3     1  LIG1       -0.0374
     13 H          -1.8193    1.9478    0.3518 H       1  LIG1        0.0278
     14 H          -1.1795    2.7189   -1.1070 H       1  LIG1        0.0278
     15 H          -0.2161    2.6869    0.3636 H       1  LIG1        0.0278
     16 C          -2.1981   -0.9073   -0.0890 C.ar    1  LIG1        0.0668
     17 C          -2.6079   -1.9955    0.6762 C.ar    1  LIG1       -0.0202
     18 C          -4.0349   -1.9425    0.7747 C.ar    1  LIG1       -0.0202
     19 C          -4.4648   -0.8283    0.0645 C.ar    1  LIG1        0.0668
     20 N          -3.3343   -0.1962   -0.4288 N.ar    1  LIG1       -0.3514
     21 H          -3.3534    0.5027   -1.1549 H       1  LIG1        0.1660
     22 C          -1.7254   -3.0023    1.3559 C.3     1  LIG1       -0.0374
     23 H          -0.6777   -2.6898    1.3395 H       1  LIG1        0.0278
     24 H          -1.7870   -3.9953    0.8900 H       1  LIG1        0.0278
     25 H          -2.0103   -3.1356    2.4064 H       1  LIG1        0.0278
     26 C          -4.8951   -2.8692    1.5817 C.3     1  LIG1       -0.0374
     27 H          -4.4937   -3.0066    2.5931 H       1  LIG1        0.0278
     28 H          -4.9680   -3.8680    1.1325 H       1  LIG1        0.0278
     29 H          -5.9099   -2.4747    1.6763 H       1  LIG1        0.0278
     30 C          -5.7901   -0.2711   -0.1608 C.ar    1  LIG1        0.0668
     31 C          -6.9707   -0.8410   -0.6266 C.ar    1  LIG1       -0.0202
     32 C          -7.9611    0.1883   -0.6687 C.ar    1  LIG1       -0.0202
     33 C          -7.3597    1.3714   -0.2444 C.ar    1  LIG1        0.0668
     34 N          -6.0442    1.0720    0.0500 N.ar    1  LIG1       -0.3514
     35 H          -5.3801    1.7292    0.4263 H       1  LIG1        0.1660
     36 C          -7.1663   -2.2647   -1.0573 C.3     1  LIG1       -0.0374
     37 H          -7.7914   -2.8320   -0.3554 H       1  LIG1        0.0278
     38 H          -6.2074   -2.7837   -1.1362 H       1  LIG1        0.0278
     39 H          -7.6596   -2.3202   -2.0351 H       1  LIG1        0.0278
     40 C          -9.3942   -0.0006   -1.0754 C.3     1  LIG1       -0.0374
     41 H          -9.8313   -0.8794   -0.5873 H       1  LIG1        0.0278
     42 H          -9.5069   -0.1580   -2.1573 H       1  LIG1        0.0278
     43 H         -10.0048    0.8639   -0.8000 H       1  LIG1        0.0278
     44 C          -7.8790    2.7228   -0.0956 C.ar    1  LIG1        0.0663
     45 C          -7.6967    3.6823    0.8973 C.ar    1  LIG1       -0.0209
     46 C          -8.4393    4.8455    0.5126 C.ar    1  LIG1       -0.0296
     47 C          -9.0504    4.5594   -0.6902 C.ar    1  LIG1        0.0054
     48 N          -8.7163    3.2769   -1.0473 N.ar    1  LIG1       -0.3590
     49 H          -8.9438    2.8315   -1.9208 H       1  LIG1        0.1654
     50 H          -9.6985    5.1646   -1.3073 H       1  LIG1        0.0810
     51 C          -6.9179    3.5274    2.1719 C.3     1  LIG1       -0.0374
     52 H          -7.4905    3.8922    3.0328 H       1  LIG1        0.0278
     53 H          -5.9771    4.0951    2.1620 H       1  LIG1        0.0278
     54 H          -6.6720    2.4795    2.3666 H       1  LIG1        0.0278
     55 C          -8.5510    6.1257    1.2868 C.3     1  LIG1       -0.0380
     56 H          -9.2066    6.8386    0.7779 H       1  LIG1        0.0278
     57 H          -7.5760    6.6110    1.4194 H       1  LIG1        0.0278
     58 H          -8.9617    5.9615    2.2911 H       1  LIG1        0.0278
@<TRIPOS>BOND
     1    10     8    1
     2    42    40    1
     3    39    36    1
     4    49    48    1
     5    11     8    1
     6     7     1    1
     7     8     2    1
     8     8     9    1
     9     1     2   ar
    10     1     5   ar
    11    50    47    1
    12     2     3   ar
    13    21    20    1
    14    38    36    1
    15    14    12    1
    16     6     5    1
    17    40    43    1
    18    40    32    1
    19    40    41    1
    20    36    31    1
    21    36    37    1
    22    48    47   ar
    23    48    44   ar
    24     5     4   ar
    25    47    46   ar
    26    32    31   ar
    27    32    33   ar
    28     3     4   ar
    29     3    12    1
    30    31    30   ar
    31     4    16    1
    32    20    16   ar
    33    20    19   ar
    34    33    44    1
    35    33    34   ar
    36    12    13    1
    37    12    15    1
    38    30    34   ar
    39    30    19    1
    40    44    45   ar
    41    16    17   ar
    42    34    35    1
    43    19    18   ar
    44    46    45   ar
    45    46    55    1
    46    17    18   ar
    47    17    22    1
    48    18    26    1
    49    56    55    1
    50    24    22    1
    51    45    51    1
    52    28    26    1
    53    55    57    1
    54    55    58    1
    55    23    22    1
    56    22    25    1
    57    26    29    1
    58    26    27    1
    59    53    51    1
    60    51    54    1
    61    51    52    1
