@<TRIPOS>MOLECULE
mol_data/opt/b3lyp/geoms/mol2/13ii13ii13ii-13ii.out
 58 61 0 0 0
SMALL
GASTEIGER

@<TRIPOS>ATOM
      1 C           1.2742   -0.0270    0.2377 C.ar    1  LIG1        0.0054
      2 C           0.8901    0.9832   -0.6179 C.ar    1  LIG1       -0.0296
      3 C          -0.5372    0.9173   -0.7385 C.ar    1  LIG1       -0.0209
      4 C          -0.9752   -0.1318    0.0616 C.ar    1  LIG1        0.0663
      5 N           0.1493   -0.7113    0.6304 N.ar    1  LIG1       -0.3590
      6 H           0.1116   -1.3984    1.3660 H       1  LIG1        0.1654
      7 H           2.2565   -0.3127    0.5859 H       1  LIG1        0.0810
      8 C           1.7965    1.9527   -1.3172 C.3     1  LIG1       -0.0380
      9 H           1.5626    2.9919   -1.0551 H       1  LIG1        0.0278
     10 H           1.7143    1.8760   -2.4089 H       1  LIG1        0.0278
     11 H           2.8437    1.7747   -1.0546 H       1  LIG1        0.0278
     12 C          -1.3848    1.7795   -1.6268 C.3     1  LIG1       -0.0374
     13 H          -1.4802    2.8047   -1.2460 H       1  LIG1        0.0278
     14 H          -2.3938    1.3698   -1.7229 H       1  LIG1        0.0278
     15 H          -0.9563    1.8558   -2.6335 H       1  LIG1        0.0278
     16 C          -2.3013   -0.6740    0.3170 C.ar    1  LIG1        0.0668
     17 C          -3.4934   -0.0730    0.7016 C.ar    1  LIG1       -0.0202
     18 C          -4.4778   -1.1041    0.8300 C.ar    1  LIG1       -0.0202
     19 C          -3.8611   -2.3151    0.5264 C.ar    1  LIG1        0.0668
     20 N          -2.5351   -2.0381    0.2441 N.ar    1  LIG1       -0.3514
     21 H          -1.9208   -2.6850   -0.2249 H       1  LIG1        0.1660
     22 C          -3.6944    1.3785    1.0214 C.3     1  LIG1       -0.0374
     23 H          -4.2050    1.5077    1.9834 H       1  LIG1        0.0278
     24 H          -4.3060    1.8914    0.2680 H       1  LIG1        0.0278
     25 H          -2.7357    1.9002    1.0794 H       1  LIG1        0.0278
     26 C          -5.8921   -0.9026    1.2914 C.3     1  LIG1       -0.0374
     27 H          -6.3536   -1.8481    1.5888 H       1  LIG1        0.0278
     28 H          -6.5255   -0.4509    0.5157 H       1  LIG1        0.0278
     29 H          -5.9351   -0.2302    2.1562 H       1  LIG1        0.0278
     30 C          -4.3706   -3.6741    0.4641 C.ar    1  LIG1        0.0668
     31 C          -3.7984   -4.8950    0.8170 C.ar    1  LIG1       -0.0202
     32 C          -4.7459   -5.9207    0.5121 C.ar    1  LIG1       -0.0202
     33 C          -5.8759   -5.3055   -0.0218 C.ar    1  LIG1        0.0668
     34 N          -5.6331   -3.9459   -0.0264 N.ar    1  LIG1       -0.3514
     35 H          -6.2093   -3.2731   -0.5057 H       1  LIG1        0.1660
     36 C          -2.4646   -5.1094    1.4720 C.3     1  LIG1       -0.0374
     37 H          -2.0464   -4.1677    1.8375 H       1  LIG1        0.0278
     38 H          -1.7296   -5.5594    0.7903 H       1  LIG1        0.0278
     39 H          -2.5470   -5.7870    2.3301 H       1  LIG1        0.0278
     40 C          -4.5683   -7.3846    0.7946 C.3     1  LIG1       -0.0374
     41 H          -4.1967   -7.5518    1.8128 H       1  LIG1        0.0278
     42 H          -3.8429   -7.8574    0.1182 H       1  LIG1        0.0278
     43 H          -5.5140   -7.9251    0.7002 H       1  LIG1        0.0278
     44 C          -7.1262   -5.8514   -0.5259 C.ar    1  LIG1        0.0663
     45 C          -8.4463   -5.4270   -0.3938 C.ar    1  LIG1       -0.0209
     46 C          -9.2680   -6.3470   -1.1229 C.ar    1  LIG1       -0.0296
     47 C          -8.4311   -7.2977   -1.6684 C.ar    1  LIG1        0.0054
     48 N          -7.1433   -6.9995   -1.2979 N.ar    1  LIG1       -0.3590
     49 H          -6.3142   -7.4638   -1.6297 H       1  LIG1        0.1654
     50 H          -8.6554   -8.1601   -2.2791 H       1  LIG1        0.0810
     51 C          -8.9459   -4.2601    0.4079 C.3     1  LIG1       -0.0374
     52 H          -9.8136   -4.5410    1.0162 H       1  LIG1        0.0278
     53 H          -9.2683   -3.4221   -0.2253 H       1  LIG1        0.0278
     54 H          -8.1771   -3.8841    1.0887 H       1  LIG1        0.0278
     55 C         -10.7624   -6.2979   -1.2466 C.3     1  LIG1       -0.0380
     56 H         -11.1373   -7.1367   -1.8406 H       1  LIG1        0.0278
     57 H         -11.1034   -5.3736   -1.7294 H       1  LIG1        0.0278
     58 H         -11.2553   -6.3434   -0.2672 H       1  LIG1        0.0278
@<TRIPOS>BOND
     1    15    12    1
     2    10     8    1
     3    50    47    1
     4    56    55    1
     5    57    55    1
     6    14    12    1
     7    47    48   ar
     8    47    46   ar
     9    49    48    1
    10    12    13    1
    11    12     3    1
    12     8     9    1
    13     8    11    1
    14     8     2    1
    15    48    44   ar
    16    55    46    1
    17    55    58    1
    18    46    45   ar
    19     3     2   ar
    20     3     4   ar
    21     2     1   ar
    22    44    45   ar
    23    44    33    1
    24    35    34    1
    25    45    51    1
    26    53    51    1
    27    21    20    1
    28    34    33   ar
    29    34    30   ar
    30    33    32   ar
    31     4    16    1
    32     4     5   ar
    33    42    40    1
    34     1     7    1
    35     1     5   ar
    36    20    16   ar
    37    20    19   ar
    38    24    22    1
    39    16    17   ar
    40    51    52    1
    41    51    54    1
    42    30    19    1
    43    30    31   ar
    44    32    40    1
    45    32    31   ar
    46    28    26    1
    47    19    18   ar
    48     5     6    1
    49    43    40    1
    50    17    18   ar
    51    17    22    1
    52    38    36    1
    53    40    41    1
    54    31    36    1
    55    18    26    1
    56    22    25    1
    57    22    23    1
    58    26    27    1
    59    26    29    1
    60    36    37    1
    61    36    39    1
