@<TRIPOS>MOLECULE
mol_data/opt/b3lyp/geoms/mol2/13ii13ii-.out
 30 31 0 0 0
SMALL
GASTEIGER

@<TRIPOS>ATOM
      1 C           1.1727   -0.2160   -0.6629 C.ar    1  LIG1        0.0054
      2 C           0.8121    1.0155   -0.1579 C.ar    1  LIG1       -0.0296
      3 C          -0.6013    0.9800    0.0753 C.ar    1  LIG1       -0.0209
      4 C          -1.0557   -0.2803   -0.3039 C.ar    1  LIG1        0.0663
      5 N           0.0449   -0.9948   -0.7413 N.ar    1  LIG1       -0.3590
      6 H          -0.0109   -1.9100   -1.1567 H       1  LIG1        0.1654
      7 H           2.1396   -0.5943   -0.9612 H       1  LIG1        0.0810
      8 C           1.7296    2.1695    0.1207 C.3     1  LIG1       -0.0380
      9 H           1.7112    2.4603    1.1787 H       1  LIG1        0.0278
     10 H           1.4539    3.0608   -0.4567 H       1  LIG1        0.0278
     11 H           2.7647    1.9213   -0.1323 H       1  LIG1        0.0278
     12 C          -1.4155    2.0901    0.6747 C.3     1  LIG1       -0.0374
     13 H          -2.4124    1.7433    0.9605 H       1  LIG1        0.0278
     14 H          -1.5411    2.9372   -0.0137 H       1  LIG1        0.0278
     15 H          -0.9376    2.4918    1.5763 H       1  LIG1        0.0278
     16 C          -2.3864   -0.8719   -0.3035 C.ar    1  LIG1        0.0663
     17 C          -2.8406   -2.1322    0.0757 C.ar    1  LIG1       -0.0209
     18 C          -4.2541   -2.1678   -0.1566 C.ar    1  LIG1       -0.0296
     19 C          -4.6150   -0.9361   -0.6610 C.ar    1  LIG1        0.0054
     20 N          -3.4873   -0.1573   -0.7400 N.ar    1  LIG1       -0.3590
     21 H          -3.4318    0.7580   -1.1552 H       1  LIG1        0.1654
     22 H          -5.5823   -0.5577   -0.9586 H       1  LIG1        0.0810
     23 C          -2.0260   -3.2425    0.6745 C.3     1  LIG1       -0.0374
     24 H          -1.0289   -2.8957    0.9597 H       1  LIG1        0.0278
     25 H          -1.9008   -4.0894   -0.0142 H       1  LIG1        0.0278
     26 H          -2.5033   -3.6443    1.5763 H       1  LIG1        0.0278
     27 C          -5.1713   -3.3218    0.1223 C.3     1  LIG1       -0.0380
     28 H          -5.1523   -3.6129    1.1803 H       1  LIG1        0.0278
     29 H          -4.8960   -4.2130   -0.4555 H       1  LIG1        0.0278
     30 H          -6.2067   -3.0736   -0.1300 H       1  LIG1        0.0278
@<TRIPOS>BOND
     1     6     5    1
     2    21    20    1
     3     7     1    1
     4    22    19    1
     5     5     1   ar
     6     5     4   ar
     7    20    19   ar
     8    20    16   ar
     9     1     2   ar
    10    19    18   ar
    11    10     8    1
    12    29    27    1
    13     4    16    1
    14     4     3   ar
    15    16    17   ar
    16     2     3   ar
    17     2     8    1
    18    18    17   ar
    19    18    27    1
    20    11     8    1
    21    30    27    1
    22    25    23    1
    23    14    12    1
    24     3    12    1
    25    17    23    1
    26     8     9    1
    27    27    28    1
    28    23    24    1
    29    23    26    1
    30    12    13    1
    31    12    15    1
