@<TRIPOS>MOLECULE
mol_data/opt/b3lyp/geoms/mol2/13il13il13il13il.out
 62 65 0 0 0
SMALL
GASTEIGER

@<TRIPOS>ATOM
      1 C           0.9512   -0.0024    1.9355 C.ar    1  LIG1        0.0087
      2 C           1.0712    0.9148    0.9128 C.ar    1  LIG1        0.0092
      3 C          -0.1846    0.9013    0.2213 C.ar    1  LIG1        0.1495
      4 C          -1.0264   -0.0202    0.8317 C.ar    1  LIG1        0.1057
      5 N          -0.2915   -0.5854    1.8675 N.ar    1  LIG1       -0.3563
      6 H          -0.7106   -1.1224    2.6100 H       1  LIG1        0.1655
      7 H           1.6652   -0.2927    2.6926 H       1  LIG1        0.0811
      8 C           2.3016    1.6999    0.5639 C.3     1  LIG1       -0.0348
      9 H           2.2141    2.7605    0.8308 H       1  LIG1        0.0279
     10 H           2.5119    1.6527   -0.5103 H       1  LIG1        0.0279
     11 H           3.1754    1.3045    1.0901 H       1  LIG1        0.0279
     12 O          -0.4999    1.5582   -0.9424 O.3     1  LIG1       -0.4927
     13 C          -0.4496    2.9816   -0.8815 C.3     1  LIG1        0.0789
     14 H          -0.8280    3.3446   -1.8398 H       1  LIG1        0.0660
     15 H          -1.0806    3.3695   -0.0724 H       1  LIG1        0.0660
     16 H           0.5722    3.3533   -0.7429 H       1  LIG1        0.0660
     17 C          -2.3580   -0.4958    0.5074 C.ar    1  LIG1        0.0735
     18 C          -3.5267    0.1736    0.1586 C.ar    1  LIG1        0.0187
     19 C          -4.5354   -0.8212    0.0217 C.ar    1  LIG1        0.1502
     20 C          -3.9928   -2.0744    0.2883 C.ar    1  LIG1        0.1062
     21 N          -2.6582   -1.8468    0.5781 N.ar    1  LIG1       -0.3486
     22 H          -1.9983   -2.5607    0.8424 H       1  LIG1        0.1661
     23 C          -3.7273    1.6477   -0.0081 C.3     1  LIG1       -0.0341
     24 H          -4.7823    1.9002    0.1326 H       1  LIG1        0.0279
     25 H          -3.4274    1.9952   -1.0034 H       1  LIG1        0.0279
     26 H          -3.1386    2.2124    0.7223 H       1  LIG1        0.0279
     27 O          -5.8499   -0.5755   -0.2980 O.3     1  LIG1       -0.4927
     28 C          -6.1119   -0.5477   -1.7010 C.3     1  LIG1        0.0789
     29 H          -7.1756   -0.3267   -1.8168 H       1  LIG1        0.0660
     30 H          -5.5245    0.2308   -2.2045 H       1  LIG1        0.0660
     31 H          -5.8893   -1.5161   -2.1664 H       1  LIG1        0.0660
     32 C          -4.5716   -3.4026    0.2703 C.ar    1  LIG1        0.0735
     33 C          -5.7846   -3.8780    0.7616 C.ar    1  LIG1        0.0187
     34 C          -5.7953   -5.2800    0.5144 C.ar    1  LIG1        0.1502
     35 C          -4.6079   -5.6528   -0.1080 C.ar    1  LIG1        0.1062
     36 N          -3.8780   -4.4852   -0.2493 N.ar    1  LIG1       -0.3486
     37 H          -2.9585   -4.4373   -0.6582 H       1  LIG1        0.1661
     38 C          -6.8553   -3.1029    1.4671 C.3     1  LIG1       -0.0341
     39 H          -7.4715   -3.7800    2.0657 H       1  LIG1        0.0279
     40 H          -7.5098   -2.5681    0.7702 H       1  LIG1        0.0279
     41 H          -6.4236   -2.3460    2.1290 H       1  LIG1        0.0279
     42 O          -6.8094   -6.1396    0.8660 O.3     1  LIG1       -0.4927
     43 C          -7.8440   -6.2456   -0.1112 C.3     1  LIG1        0.0789
     44 H          -8.5871   -6.9378    0.2922 H       1  LIG1        0.0660
     45 H          -8.3201   -5.2747   -0.2990 H       1  LIG1        0.0660
     46 H          -7.4565   -6.6403   -1.0589 H       1  LIG1        0.0660
     47 C          -4.1233   -6.9330   -0.5845 C.ar    1  LIG1        0.0730
     48 C          -4.1761   -8.1997   -0.0151 C.ar    1  LIG1        0.0180
     49 C          -3.5036   -9.0739   -0.9254 C.ar    1  LIG1        0.1408
     50 C          -3.0568   -8.3423   -2.0045 C.ar    1  LIG1        0.0447
     51 N          -3.4134   -7.0315   -1.7749 N.ar    1  LIG1       -0.3561
     52 H          -3.4039   -6.3097   -2.4776 H       1  LIG1        0.1655
     53 H          -2.4982   -8.6447   -2.8765 H       1  LIG1        0.0844
     54 C          -4.7344   -8.5807    1.3220 C.3     1  LIG1       -0.0342
     55 H          -4.2092   -9.4583    1.7120 H       1  LIG1        0.0279
     56 H          -5.8035   -8.8182    1.2759 H       1  LIG1        0.0279
     57 H          -4.6291   -7.7628    2.0402 H       1  LIG1        0.0279
     58 O          -3.2541  -10.4105   -0.7212 O.3     1  LIG1       -0.4933
     59 C          -4.3722  -11.2575   -0.9738 C.3     1  LIG1        0.0789
     60 H          -4.0443  -12.2794   -0.7689 H       1  LIG1        0.0660
     61 H          -5.2223  -11.0163   -0.3229 H       1  LIG1        0.0660
     62 H          -4.6991  -11.1834   -2.0197 H       1  LIG1        0.0660
@<TRIPOS>BOND
     1    53    50    1
     2    52    51    1
     3    30    28    1
     4    31    28    1
     5    62    59    1
     6    50    51   ar
     7    50    49   ar
     8    14    13    1
     9    29    28    1
    10    51    47   ar
    11    28    27    1
    12    46    43    1
    13    25    23    1
    14    59    60    1
    15    59    58    1
    16    59    61    1
    17    12    13    1
    18    12     3    1
    19    49    58    1
    20    49    48   ar
    21    13    16    1
    22    13    15    1
    23    37    36    1
    24    47    35    1
    25    47    48   ar
    26    10     8    1
    27    45    43    1
    28    27    19    1
    29    36    35   ar
    30    36    32   ar
    31    43    44    1
    32    43    42    1
    33    35    34   ar
    34    48    54    1
    35    23    24    1
    36    23    18    1
    37    23    26    1
    38    19    18   ar
    39    19    20   ar
    40    18    17   ar
    41     3     4   ar
    42     3     2   ar
    43    32    20    1
    44    32    33   ar
    45    20    21   ar
    46    17    21   ar
    47    17     4    1
    48    34    33   ar
    49    34    42    1
    50     8     9    1
    51     8     2    1
    52     8    11    1
    53    21    22    1
    54    33    38    1
    55    40    38    1
    56     4     5   ar
    57     2     1   ar
    58    56    54    1
    59    54    55    1
    60    54    57    1
    61    38    39    1
    62    38    41    1
    63     5     1   ar
    64     5     6    1
    65     1     7    1
