@<TRIPOS>MOLECULE
mol_data/opt/b3lyp/geoms/mol2/13il13il13il-13il-.out
 62 65 0 0 0
SMALL
GASTEIGER

@<TRIPOS>ATOM
      1 C           1.2928   -0.1770   -0.1036 C.ar    1  LIG1        0.0087
      2 C           0.8866    1.1080   -0.3932 C.ar    1  LIG1        0.0092
      3 C          -0.5432    1.1042   -0.2965 C.ar    1  LIG1        0.1495
      4 C          -0.9705   -0.1769    0.0396 C.ar    1  LIG1        0.1057
      5 N           0.1803   -0.9511    0.1254 N.ar    1  LIG1       -0.3563
      6 H           0.1939   -1.8650    0.5489 H       1  LIG1        0.1655
      7 H           2.2867   -0.5985   -0.0645 H       1  LIG1        0.0811
      8 C           1.7690    2.2500   -0.8044 C.3     1  LIG1       -0.0348
      9 H           1.8995    2.9910   -0.0057 H       1  LIG1        0.0279
     10 H           1.3552    2.7774   -1.6708 H       1  LIG1        0.0279
     11 H           2.7653    1.8912   -1.0791 H       1  LIG1        0.0279
     12 O          -1.3890    2.1406   -0.6121 O.3     1  LIG1       -0.4927
     13 C          -1.2595    3.3025    0.2060 C.3     1  LIG1        0.0789
     14 H          -2.0435    3.9934   -0.1122 H       1  LIG1        0.0660
     15 H          -1.3974    3.0600    1.2671 H       1  LIG1        0.0660
     16 H          -0.2866    3.7898    0.0774 H       1  LIG1        0.0660
     17 C          -2.2739   -0.7913    0.1937 C.ar    1  LIG1        0.0735
     18 C          -3.4823   -0.3377    0.7146 C.ar    1  LIG1        0.0187
     19 C          -4.3832   -1.4351    0.6352 C.ar    1  LIG1        0.1502
     20 C          -3.7396   -2.5355    0.0773 C.ar    1  LIG1        0.1062
     21 N          -2.4383   -2.1288   -0.1561 N.ar    1  LIG1       -0.3486
     22 H          -1.8229   -2.5974   -0.8023 H       1  LIG1        0.1661
     23 C          -3.8067    1.0167    1.2669 C.3     1  LIG1       -0.0341
     24 H          -4.8563    1.0581    1.5693 H       1  LIG1        0.0279
     25 H          -3.6390    1.7937    0.5172 H       1  LIG1        0.0279
     26 H          -3.1902    1.2649    2.1400 H       1  LIG1        0.0279
     27 O          -5.7066   -1.4326    1.0354 O.3     1  LIG1       -0.4927
     28 C          -5.8879   -1.6724    2.4365 C.3     1  LIG1        0.0789
     29 H          -6.9639   -1.6400    2.6233 H       1  LIG1        0.0660
     30 H          -5.4944   -2.6555    2.7226 H       1  LIG1        0.0660
     31 H          -5.3921   -0.9023    3.0385 H       1  LIG1        0.0660
     32 C          -4.2535   -3.8386   -0.2559 C.ar    1  LIG1        0.0735
     33 C          -3.6315   -5.0106   -0.6961 C.ar    1  LIG1        0.0187
     34 C          -4.6706   -5.9606   -0.8701 C.ar    1  LIG1        0.1502
     35 C          -5.8970   -5.3798   -0.5480 C.ar    1  LIG1        0.1062
     36 N          -5.6099   -4.0875   -0.1698 N.ar    1  LIG1       -0.3486
     37 H          -6.2773   -3.3635    0.0532 H       1  LIG1        0.1661
     38 C          -2.1750   -5.2512   -0.9613 C.3     1  LIG1       -0.0341
     39 H          -1.5460   -5.0041   -0.0971 H       1  LIG1        0.0279
     40 H          -1.8042   -4.6721   -1.8191 H       1  LIG1        0.0279
     41 H          -2.0080   -6.3030   -1.2074 H       1  LIG1        0.0279
     42 O          -4.5092   -7.2641   -1.3076 O.3     1  LIG1       -0.4927
     43 C          -4.2533   -8.1958   -0.2492 C.3     1  LIG1        0.0789
     44 H          -4.1055   -9.1717   -0.7183 H       1  LIG1        0.0660
     45 H          -3.3508   -7.9218    0.3095 H       1  LIG1        0.0660
     46 H          -5.1001   -8.2462    0.4457 H       1  LIG1        0.0660
     47 C          -7.2257   -5.9391   -0.6139 C.ar    1  LIG1        0.0730
     48 C          -8.4582   -5.4927   -0.1359 C.ar    1  LIG1        0.0180
     49 C          -9.4102   -6.4802   -0.5206 C.ar    1  LIG1        0.1408
     50 C          -8.7618   -7.4916   -1.2072 C.ar    1  LIG1        0.0447
     51 N          -7.4276   -7.1464   -1.2464 N.ar    1  LIG1       -0.3561
     52 H          -6.6870   -7.6347   -1.7266 H       1  LIG1        0.1655
     53 H          -9.1243   -8.4027   -1.6538 H       1  LIG1        0.0844
     54 C          -8.7699   -4.2500    0.6444 C.3     1  LIG1       -0.0342
     55 H          -8.0590   -4.0914    1.4645 H       1  LIG1        0.0279
     56 H          -9.7677   -4.3275    1.0836 H       1  LIG1        0.0279
     57 H          -8.7650   -3.3447    0.0220 H       1  LIG1        0.0279
     58 O         -10.7332   -6.3637   -0.1998 O.3     1  LIG1       -0.4933
     59 C         -11.5548   -7.4367   -0.6198 C.3     1  LIG1        0.0789
     60 H         -12.5685   -7.2077   -0.2862 H       1  LIG1        0.0660
     61 H         -11.5484   -7.5417   -1.7139 H       1  LIG1        0.0660
     62 H         -11.2309   -8.3875   -0.1733 H       1  LIG1        0.0660
@<TRIPOS>BOND
     1    40    38    1
     2    52    51    1
     3    61    59    1
     4    10     8    1
     5    53    50    1
     6    42    34    1
     7    42    43    1
     8    51    50   ar
     9    51    47   ar
    10    41    38    1
    11    50    49   ar
    12    11     8    1
    13    38    33    1
    14    38    39    1
    15    34    33   ar
    16    34    35   ar
    17     8     2    1
    18     8     9    1
    19    22    21    1
    20    44    43    1
    21    33    32   ar
    22    59    60    1
    23    59    58    1
    24    59    62    1
    25    47    35    1
    26    47    48   ar
    27    12     3    1
    28    12    13    1
    29    35    36   ar
    30    49    58    1
    31    49    48   ar
    32     2     3   ar
    33     2     1   ar
    34     3     4   ar
    35    32    36   ar
    36    32    20    1
    37    43    45    1
    38    43    46    1
    39    36    37    1
    40    21    20   ar
    41    21    17   ar
    42    48    54    1
    43    14    13    1
    44     1     7    1
    45     1     5   ar
    46    57    54    1
    47     4     5   ar
    48     4    17    1
    49    20    19   ar
    50    16    13    1
    51     5     6    1
    52    17    18   ar
    53    13    15    1
    54    25    23    1
    55    19    18   ar
    56    19    27    1
    57    54    56    1
    58    54    55    1
    59    18    23    1
    60    27    28    1
    61    23    24    1
    62    23    26    1
    63    28    29    1
    64    28    30    1
    65    28    31    1
