@<TRIPOS>MOLECULE
mol_data/opt/b3lyp/geoms/mol2/13il13il-13il.out
 47 49 0 0 0
SMALL
GASTEIGER

@<TRIPOS>ATOM
      1 C           1.3339   -0.4712   -0.5816 C.ar    1  LIG1        0.0087
      2 C           1.0212    0.8601   -0.3895 C.ar    1  LIG1        0.0092
      3 C          -0.3933    0.9029   -0.2171 C.ar    1  LIG1        0.1495
      4 C          -0.9105   -0.3869   -0.3102 C.ar    1  LIG1        0.1057
      5 N           0.1756   -1.2114   -0.5289 N.ar    1  LIG1       -0.3563
      6 H           0.1138   -2.2029   -0.6857 H       1  LIG1        0.1655
      7 H           2.2896   -0.9426   -0.7566 H       1  LIG1        0.0811
      8 C           1.9662    2.0246   -0.3836 C.3     1  LIG1       -0.0348
      9 H           2.1763    2.3886    0.6303 H       1  LIG1        0.0279
     10 H           1.5536    2.8669   -0.9488 H       1  LIG1        0.0279
     11 H           2.9251    1.7549   -0.8358 H       1  LIG1        0.0279
     12 O          -1.1726    2.0328   -0.0412 O.3     1  LIG1       -0.4927
     13 C          -1.1004    2.5932    1.2743 C.3     1  LIG1        0.0789
     14 H          -1.7725    3.4544    1.2851 H       1  LIG1        0.0660
     15 H          -1.4205    1.8664    2.0309 H       1  LIG1        0.0660
     16 H          -0.0842    2.9284    1.5109 H       1  LIG1        0.0660
     17 C          -2.2776   -0.8438   -0.2430 C.ar    1  LIG1        0.0735
     18 C          -2.8447   -2.1204   -0.2299 C.ar    1  LIG1        0.0187
     19 C          -4.2483   -1.9214   -0.1578 C.ar    1  LIG1        0.1502
     20 C          -4.5279   -0.5559   -0.1345 C.ar    1  LIG1        0.1062
     21 N          -3.3057    0.0758   -0.1805 N.ar    1  LIG1       -0.3486
     22 H          -3.1411    1.0693   -0.2542 H       1  LIG1        0.1661
     23 C          -2.1569   -3.4518   -0.3010 C.3     1  LIG1       -0.0341
     24 H          -1.4580   -3.6127    0.5302 H       1  LIG1        0.0279
     25 H          -1.5985   -3.5827   -1.2383 H       1  LIG1        0.0279
     26 H          -2.8974   -4.2552   -0.2701 H       1  LIG1        0.0279
     27 O          -5.2077   -2.9193   -0.1350 O.3     1  LIG1       -0.4927
     28 C          -5.4945   -3.4081    1.1817 C.3     1  LIG1        0.0789
     29 H          -6.2366   -4.2022    1.0675 H       1  LIG1        0.0660
     30 H          -4.5955   -3.8180    1.6563 H       1  LIG1        0.0660
     31 H          -5.9011   -2.6130    1.8181 H       1  LIG1        0.0660
     32 C          -5.8013    0.1237   -0.1141 C.ar    1  LIG1        0.0730
     33 C          -6.1587    1.4538    0.1094 C.ar    1  LIG1        0.0180
     34 C          -7.5804    1.5026    0.0048 C.ar    1  LIG1        0.1408
     35 C          -8.0540    0.2352   -0.2749 C.ar    1  LIG1        0.0447
     36 N          -6.9610   -0.5913   -0.3410 N.ar    1  LIG1       -0.3561
     37 H          -6.9510   -1.5780   -0.5532 H       1  LIG1        0.1655
     38 H          -9.0613   -0.1268   -0.4085 H       1  LIG1        0.0844
     39 C          -5.2749    2.6186    0.4430 C.3     1  LIG1       -0.0342
     40 H          -5.8867    3.4486    0.8073 H       1  LIG1        0.0279
     41 H          -4.7076    2.9885   -0.4224 H       1  LIG1        0.0279
     42 H          -4.5515    2.3728    1.2298 H       1  LIG1        0.0279
     43 O          -8.3515    2.6239    0.2098 O.3     1  LIG1       -0.4933
     44 C          -8.5919    3.3877   -0.9694 C.3     1  LIG1        0.0789
     45 H          -9.2068    4.2410   -0.6728 H       1  LIG1        0.0660
     46 H          -7.6565    3.7538   -1.4131 H       1  LIG1        0.0660
     47 H          -9.1285    2.7987   -1.7249 H       1  LIG1        0.0660
@<TRIPOS>BOND
     1    47    44    1
     2    46    44    1
     3    25    23    1
     4    44    45    1
     5    44    43    1
     6    10     8    1
     7    11     8    1
     8     7     1    1
     9     6     5    1
    10     1     5   ar
    11     1     2   ar
    12    37    36    1
    13     5     4   ar
    14    41    39    1
    15    38    35    1
    16     2     8    1
    17     2     3   ar
    18     8     9    1
    19    36    35   ar
    20    36    32   ar
    21     4    17    1
    22     4     3   ar
    23    23    26    1
    24    23    18    1
    25    23    24    1
    26    35    34   ar
    27    22    21    1
    28    17    18   ar
    29    17    21   ar
    30    18    19   ar
    31     3    12    1
    32    21    20   ar
    33    19    27    1
    34    19    20   ar
    35    27    28    1
    36    20    32    1
    37    32    33   ar
    38    12    13    1
    39    34    33   ar
    40    34    43    1
    41    33    39    1
    42    39    40    1
    43    39    42    1
    44    29    28    1
    45    28    30    1
    46    28    31    1
    47    13    14    1
    48    13    16    1
    49    13    15    1
