@<TRIPOS>MOLECULE
mol_data/opt/b3lyp/geoms/mol2/13il13il13il.out
 47 49 0 0 0
SMALL
GASTEIGER

@<TRIPOS>ATOM
      1 C           1.2621   -0.3392    0.9646 C.ar    1  LIG1        0.0087
      2 C           1.1549    0.8466    0.2694 C.ar    1  LIG1        0.0092
      3 C          -0.2281    0.9719   -0.0876 C.ar    1  LIG1        0.1495
      4 C          -0.9196   -0.1347    0.3900 C.ar    1  LIG1        0.1057
      5 N           0.0277   -0.9423    1.0086 N.ar    1  LIG1       -0.3563
      6 H          -0.2165   -1.6960    1.6312 H       1  LIG1        0.1655
      7 H           2.1285   -0.8032    1.4132 H       1  LIG1        0.0811
      8 C           2.2831    1.7664   -0.0958 C.3     1  LIG1       -0.0348
      9 H           2.2767    2.6938    0.4903 H       1  LIG1        0.0279
     10 H           2.2384    2.0515   -1.1528 H       1  LIG1        0.0279
     11 H           3.2487    1.2815    0.0759 H       1  LIG1        0.0279
     12 O          -0.7934    1.9310   -0.8915 O.3     1  LIG1       -0.4927
     13 C          -0.7101    3.2688   -0.4055 C.3     1  LIG1        0.0789
     14 H          -1.2811    3.8862   -1.1026 H       1  LIG1        0.0660
     15 H          -1.1457    3.3572    0.5974 H       1  LIG1        0.0660
     16 H           0.3230    3.6337   -0.3767 H       1  LIG1        0.0660
     17 C          -2.2984   -0.5653    0.2573 C.ar    1  LIG1        0.0735
     18 C          -3.5057    0.1154    0.3855 C.ar    1  LIG1        0.0187
     19 C          -4.5346   -0.8525    0.2142 C.ar    1  LIG1        0.1502
     20 C          -3.9647   -2.1023   -0.0096 C.ar    1  LIG1        0.1062
     21 N          -2.5967   -1.8970    0.0177 N.ar    1  LIG1       -0.3486
     22 H          -1.9088   -2.6216   -0.1118 H       1  LIG1        0.1661
     23 C          -3.7193    1.5677    0.6798 C.3     1  LIG1       -0.0341
     24 H          -4.7416    1.7289    1.0327 H       1  LIG1        0.0279
     25 H          -3.5629    2.1919   -0.2068 H       1  LIG1        0.0279
     26 H          -3.0290    1.9244    1.4523 H       1  LIG1        0.0279
     27 O          -5.8810   -0.5836    0.2897 O.3     1  LIG1       -0.4927
     28 C          -6.5099   -0.3997   -0.9789 C.3     1  LIG1        0.0789
     29 H          -7.5546   -0.1509   -0.7774 H       1  LIG1        0.0660
     30 H          -6.0440    0.4201   -1.5407 H       1  LIG1        0.0660
     31 H          -6.4650   -1.3151   -1.5815 H       1  LIG1        0.0660
     32 C          -4.5494   -3.4046   -0.2624 C.ar    1  LIG1        0.0730
     33 C          -5.6182   -4.0586    0.3393 C.ar    1  LIG1        0.0180
     34 C          -5.7126   -5.3361   -0.2968 C.ar    1  LIG1        0.1408
     35 C          -4.7201   -5.4392   -1.2475 C.ar    1  LIG1        0.0447
     36 N          -3.9970   -4.2677   -1.2005 N.ar    1  LIG1       -0.3561
     37 H          -3.3440   -3.9736   -1.9091 H       1  LIG1        0.1655
     38 H          -4.4636   -6.2505   -1.9106 H       1  LIG1        0.0844
     39 C          -6.4520   -3.5795    1.4883 C.3     1  LIG1       -0.0342
     40 H          -6.7978   -4.4303    2.0840 H       1  LIG1        0.0279
     41 H          -7.3354   -3.0185    1.1605 H       1  LIG1        0.0279
     42 H          -5.8798   -2.9089    2.1352 H       1  LIG1        0.0279
     43 O          -6.5845   -6.3431    0.0437 O.3     1  LIG1       -0.4933
     44 C          -7.9066   -6.1653   -0.4581 C.3     1  LIG1        0.0789
     45 H          -8.4888   -7.0258   -0.1199 H       1  LIG1        0.0660
     46 H          -8.3691   -5.2469   -0.0747 H       1  LIG1        0.0660
     47 H          -7.9141   -6.1301   -1.5558 H       1  LIG1        0.0660
@<TRIPOS>BOND
     1    38    35    1
     2    37    36    1
     3    31    28    1
     4    47    44    1
     5    30    28    1
     6    35    36   ar
     7    35    34   ar
     8    36    32   ar
     9    10     8    1
    10    14    13    1
    11    28    29    1
    12    28    27    1
    13    12    13    1
    14    12     3    1
    15    44    45    1
    16    44    46    1
    17    44    43    1
    18    13    16    1
    19    13    15    1
    20    34    43    1
    21    34    33   ar
    22    32    20    1
    23    32    33   ar
    24    25    23    1
    25    22    21    1
    26     8    11    1
    27     8     2    1
    28     8     9    1
    29     3     2   ar
    30     3     4   ar
    31    20    21   ar
    32    20    19   ar
    33    21    17   ar
    34    19    27    1
    35    19    18   ar
    36    17    18   ar
    37    17     4    1
    38     2     1   ar
    39    33    39    1
    40    18    23    1
    41     4     5   ar
    42    23    24    1
    43    23    26    1
    44     1     5   ar
    45     1     7    1
    46     5     6    1
    47    41    39    1
    48    39    40    1
    49    39    42    1
