@<TRIPOS>MOLECULE
mol_data/opt/b3lyp/geoms/mol2/13il13dd-13ad-13le-.out
 50 53 0 0 0
SMALL
GASTEIGER

@<TRIPOS>ATOM
      1 C           0.7479   -0.7391    1.5152 C.ar    1  LIG1        0.0087
      2 C           0.7644    0.5191    0.9497 C.ar    1  LIG1        0.0092
      3 C          -0.5347    0.7129    0.3785 C.ar    1  LIG1        0.1496
      4 C          -1.2946   -0.4301    0.6093 C.ar    1  LIG1        0.1067
      5 N          -0.4676   -1.3319    1.2736 N.ar    1  LIG1       -0.3563
      6 H          -0.8180   -2.1195    1.7964 H       1  LIG1        0.1655
      7 H           1.5217   -1.2604    2.0600 H       1  LIG1        0.0811
      8 C           1.9378    1.4519    0.8864 C.3     1  LIG1       -0.0348
      9 H           1.8206    2.3144    1.5528 H       1  LIG1        0.0279
     10 H           2.0785    1.8410   -0.1277 H       1  LIG1        0.0279
     11 H           2.8581    0.9371    1.1761 H       1  LIG1        0.0279
     12 O          -0.9595    1.7413   -0.4052 O.3     1  LIG1       -0.4927
     13 C          -0.9628    3.0451    0.1932 C.3     1  LIG1        0.0789
     14 H          -1.4102    3.7109   -0.5452 H       1  LIG1        0.0660
     15 H          -1.5752    3.0572    1.0993 H       1  LIG1        0.0660
     16 H           0.0527    3.3857    0.4207 H       1  LIG1        0.0660
     17 C          -2.6158   -0.8014    0.1702 C.ar    1  LIG1        0.0858
     18 C          -3.7945   -0.0745    0.0190 C.ar    1  LIG1        0.0965
     19 C          -4.8050   -0.9789   -0.4723 C.ar    1  LIG1        0.0964
     20 C          -4.2202   -2.2354   -0.6018 C.ar    1  LIG1        0.0823
     21 N          -2.9077   -2.1069   -0.1868 N.ar    1  LIG1       -0.3497
     22 H          -2.1837   -2.7712   -0.4194 H       1  LIG1        0.1661
     23 N          -4.1805    2.3923    0.6705 N.1     1  LIG1       -0.1908
     24 C          -3.9957    1.2833    0.3672 C.1     1  LIG1        0.1027
     25 N          -7.2758   -0.4288   -0.9759 N.1     1  LIG1       -0.1908
     26 C          -6.1608   -0.6690   -0.7405 C.1     1  LIG1        0.1026
     27 C          -4.7659   -3.4894   -1.0577 C.ar    1  LIG1        0.0659
     28 C          -5.8277   -3.7577   -1.9035 C.ar    1  LIG1       -0.0169
     29 C          -5.9087   -5.1722   -2.0456 C.ar    1  LIG1        0.0791
     30 C          -4.8844   -5.7437   -1.2706 C.ar    1  LIG1        0.0846
     31 N          -4.2031   -4.7073   -0.6961 N.ar    1  LIG1       -0.3507
     32 H          -3.4819   -4.8795   -0.0076 H       1  LIG1        0.1660
     33 H          -6.4633   -3.0276   -2.3802 H       1  LIG1        0.0652
     34 N          -7.5138   -6.6312   -3.4428 N.1     1  LIG1       -0.1908
     35 C          -6.8161   -5.9298   -2.8244 C.1     1  LIG1        0.1014
     36 C          -4.5159   -7.1086   -1.0181 C.ar    1  LIG1        0.1076
     37 C          -3.5580   -7.6109   -0.1423 C.ar    1  LIG1        0.1620
     38 C          -3.5479   -9.0385   -0.2539 C.ar    1  LIG1        0.0842
     39 C          -4.5213   -9.3500   -1.2030 C.ar    1  LIG1        0.0213
     40 N          -5.0834   -8.1996   -1.6539 N.ar    1  LIG1       -0.3554
     41 H          -5.8244   -8.1365   -2.3394 H       1  LIG1        0.1655
     42 H          -4.8255  -10.3159   -1.5750 H       1  LIG1        0.0820
     43 O          -2.7683   -6.7941    0.6266 O.3     1  LIG1       -0.4917
     44 C          -2.6962   -7.1353    2.0228 C.3     1  LIG1        0.0789
     45 H          -2.0534   -6.3841    2.4850 H       1  LIG1        0.0660
     46 H          -3.6918   -7.1040    2.4796 H       1  LIG1        0.0660
     47 H          -2.2602   -8.1268    2.1606 H       1  LIG1        0.0660
     48 C          -2.7091   -9.9717    0.4070 C.1     1  LIG1       -0.0645
     49 C          -1.9971  -10.7768    0.9649 C.1     1  LIG1       -0.1137
     50 H          -1.3639  -11.4889    1.4414 H       1  LIG1        0.1232
@<TRIPOS>BOND
     1    34    35    3
     2    35    29    1
     3    33    28    1
     4    41    40    1
     5    29    28   ar
     6    29    30   ar
     7    28    27   ar
     8    40    39   ar
     9    40    36   ar
    10    42    39    1
    11    30    36    1
    12    30    31   ar
    13    39    38   ar
    14    27    31   ar
    15    27    20    1
    16    36    37   ar
    17    25    26    3
    18    26    19    1
    19    31    32    1
    20    20    19   ar
    21    20    21   ar
    22    14    13    1
    23    19    18   ar
    24    22    21    1
    25    12    13    1
    26    12     3    1
    27    38    37   ar
    28    38    48    1
    29    21    17   ar
    30    37    43    1
    31    10     8    1
    32    18    17   ar
    33    18    24    1
    34    17     4    1
    35    13    16    1
    36    13    15    1
    37    24    23    3
    38     3     4   ar
    39     3     2   ar
    40    48    49    3
    41     4     5   ar
    42    43    44    1
    43     8     2    1
    44     8    11    1
    45     8     9    1
    46     2     1   ar
    47    49    50    1
    48     5     1   ar
    49     5     6    1
    50     1     7    1
    51    44    47    1
    52    44    46    1
    53    44    45    1
