@<TRIPOS>MOLECULE
mol_data/opt/b3lyp/geoms/mol2/13il13il-13il-13il-.out
 62 65 0 0 0
SMALL
GASTEIGER

@<TRIPOS>ATOM
      1 C           1.1535   -0.1124    0.7678 C.ar    1  LIG1        0.0087
      2 C           0.7361    1.1687    0.4628 C.ar    1  LIG1        0.0092
      3 C          -0.6766    1.0834    0.2952 C.ar    1  LIG1        0.1495
      4 C          -1.0882   -0.2321    0.4957 C.ar    1  LIG1        0.1057
      5 N           0.0580   -0.9434    0.7897 N.ar    1  LIG1       -0.3563
      6 H           0.0859   -1.9380    0.9375 H       1  LIG1        0.1655
      7 H           2.1453   -0.4916    0.9641 H       1  LIG1        0.0811
      8 C           1.5898    2.3928    0.3154 C.3     1  LIG1       -0.0348
      9 H           1.5160    3.0617    1.1825 H       1  LIG1        0.0279
     10 H           1.2942    2.9732   -0.5650 H       1  LIG1        0.0279
     11 H           2.6443    2.1253    0.2018 H       1  LIG1        0.0279
     12 O          -1.5307    2.1084   -0.0728 O.3     1  LIG1       -0.4927
     13 C          -1.8295    3.0279    0.9820 C.3     1  LIG1        0.0789
     14 H          -2.5110    3.7736    0.5651 H       1  LIG1        0.0660
     15 H          -2.3097    2.5183    1.8267 H       1  LIG1        0.0660
     16 H          -0.9257    3.5329    1.3411 H       1  LIG1        0.0660
     17 C          -2.4029   -0.8168    0.3913 C.ar    1  LIG1        0.0735
     18 C          -2.8841   -2.1030    0.6386 C.ar    1  LIG1        0.0187
     19 C          -4.2691   -2.0794    0.3154 C.ar    1  LIG1        0.1502
     20 C          -4.6190   -0.8041   -0.1256 C.ar    1  LIG1        0.1062
     21 N          -3.4632   -0.0468   -0.0416 N.ar    1  LIG1       -0.3486
     22 H          -3.3222    0.8681   -0.4475 H       1  LIG1        0.1661
     23 C          -2.1419   -3.3012    1.1508 C.3     1  LIG1       -0.0341
     24 H          -1.6320   -3.1035    2.1026 H       1  LIG1        0.0279
     25 H          -1.3905   -3.6668    0.4367 H       1  LIG1        0.0279
     26 H          -2.8436   -4.1227    1.3153 H       1  LIG1        0.0279
     27 O          -5.0994   -3.1670    0.4479 O.3     1  LIG1       -0.4927
     28 C          -6.0518   -3.0584    1.5074 C.3     1  LIG1        0.0789
     29 H          -6.5901   -4.0087    1.5398 H       1  LIG1        0.0660
     30 H          -5.5546   -2.8892    2.4712 H       1  LIG1        0.0660
     31 H          -6.7625   -2.2444    1.3239 H       1  LIG1        0.0660
     32 C          -5.8756   -0.2369   -0.5625 C.ar    1  LIG1        0.0735
     33 C          -6.9011   -0.7665   -1.3451 C.ar    1  LIG1        0.0187
     34 C          -7.8642    0.2705   -1.4818 C.ar    1  LIG1        0.1502
     35 C          -7.4281    1.4107   -0.8127 C.ar    1  LIG1        0.1062
     36 N          -6.2016    1.0794   -0.2729 N.ar    1  LIG1       -0.3486
     37 H          -5.6889    1.6599    0.3701 H       1  LIG1        0.1661
     38 C          -6.9452   -2.1119   -2.0036 C.3     1  LIG1       -0.0341
     39 H          -7.4271   -2.8751   -1.3798 H       1  LIG1        0.0279
     40 H          -5.9369   -2.4747   -2.2181 H       1  LIG1        0.0279
     41 H          -7.5020   -2.0532   -2.9444 H       1  LIG1        0.0279
     42 O          -9.0293    0.2175   -2.2265 O.3     1  LIG1       -0.4927
     43 C         -10.0662   -0.5659   -1.6264 C.3     1  LIG1        0.0789
     44 H         -10.9207   -0.5286   -2.3064 H       1  LIG1        0.0660
     45 H          -9.7550   -1.6086   -1.4988 H       1  LIG1        0.0660
     46 H         -10.3543   -0.1578   -0.6497 H       1  LIG1        0.0660
     47 C          -8.0440    2.7104   -0.6945 C.ar    1  LIG1        0.0730
     48 C          -7.7275    3.8317    0.0746 C.ar    1  LIG1        0.0180
     49 C          -8.7058    4.8164   -0.2445 C.ar    1  LIG1        0.1408
     50 C          -9.5850    4.2944   -1.1772 C.ar    1  LIG1        0.0447
     51 N          -9.1660    3.0068   -1.4337 N.ar    1  LIG1       -0.3561
     52 H          -9.5553    2.3579   -2.1013 H       1  LIG1        0.1655
     53 H         -10.4484    4.7169   -1.6639 H       1  LIG1        0.0844
     54 C          -6.6108    4.0134    1.0601 C.3     1  LIG1       -0.0342
     55 H          -6.5741    3.2044    1.8018 H       1  LIG1        0.0279
     56 H          -6.7491    4.9479    1.6093 H       1  LIG1        0.0279
     57 H          -5.6242    4.0714    0.5780 H       1  LIG1        0.0279
     58 O          -8.6984    6.0511    0.3410 O.3     1  LIG1       -0.4933
     59 C          -9.7433    6.9173   -0.0605 C.3     1  LIG1        0.0789
     60 H          -9.6084    7.8509    0.4885 H       1  LIG1        0.0660
     61 H          -9.7012    7.1216   -1.1396 H       1  LIG1        0.0660
     62 H         -10.7288    6.4937    0.1792 H       1  LIG1        0.0660
@<TRIPOS>BOND
     1    41    38    1
     2    44    43    1
     3    42    43    1
     4    42    34    1
     5    40    38    1
     6    52    51    1
     7    38    39    1
     8    38    33    1
     9    53    50    1
    10    43    45    1
    11    43    46    1
    12    34    33   ar
    13    34    35   ar
    14    51    50   ar
    15    51    47   ar
    16    33    32   ar
    17    50    49   ar
    18    61    59    1
    19    35    47    1
    20    35    36   ar
    21    47    48   ar
    22    10     8    1
    23    32    36   ar
    24    32    20    1
    25    22    21    1
    26    36    37    1
    27    49    48   ar
    28    49    58    1
    29    20    21   ar
    30    20    19   ar
    31    12     3    1
    32    12    13    1
    33    59    62    1
    34    59    58    1
    35    59    60    1
    36    21    17   ar
    37    48    54    1
    38    11     8    1
    39     3     2   ar
    40     3     4   ar
    41    19    27    1
    42    19    18   ar
    43     8     2    1
    44     8     9    1
    45    17     4    1
    46    17    18   ar
    47    25    23    1
    48    27    28    1
    49     2     1   ar
    50     4     5   ar
    51    14    13    1
    52    57    54    1
    53    18    23    1
    54     1     5   ar
    55     1     7    1
    56     5     6    1
    57    13    16    1
    58    13    15    1
    59    54    56    1
    60    54    55    1
    61    23    26    1
    62    23    24    1
    63    31    28    1
    64    28    29    1
    65    28    30    1
