@<TRIPOS>MOLECULE
mol_data/opt/b3lyp/geoms/mol2/13il13il.out
 32 33 0 0 0
SMALL
GASTEIGER

@<TRIPOS>ATOM
      1 C           1.2811   -0.4475    0.4153 C.ar    1  LIG1        0.0087
      2 C           1.0773    0.8349   -0.0496 C.ar    1  LIG1        0.0092
      3 C          -0.3374    0.9660   -0.2403 C.ar    1  LIG1        0.1495
      4 C          -0.9520   -0.2315    0.1046 C.ar    1  LIG1        0.1057
      5 N           0.0701   -1.0936    0.4794 N.ar    1  LIG1       -0.3563
      6 H          -0.0941   -1.9658    0.9559 H       1  LIG1        0.1655
      7 H           2.1991   -0.9484    0.6867 H       1  LIG1        0.0811
      8 C           2.1400    1.8480   -0.3593 C.3     1  LIG1       -0.0348
      9 H           2.1777    2.6584    0.3794 H       1  LIG1        0.0279
     10 H           1.9741    2.3107   -1.3386 H       1  LIG1        0.0279
     11 H           3.1288    1.3801   -0.3773 H       1  LIG1        0.0279
     12 O          -1.0038    2.0254   -0.8059 O.3     1  LIG1       -0.4927
     13 C          -0.9073    3.2612   -0.1026 C.3     1  LIG1        0.0789
     14 H          -1.5626    3.9639   -0.6224 H       1  LIG1        0.0660
     15 H          -1.2406    3.1572    0.9375 H       1  LIG1        0.0660
     16 H           0.1131    3.6617   -0.1084 H       1  LIG1        0.0660
     17 C          -2.3282   -0.6874    0.0343 C.ar    1  LIG1        0.0730
     18 C          -3.5279   -0.0869    0.3937 C.ar    1  LIG1        0.0180
     19 C          -4.5527   -1.0465    0.1243 C.ar    1  LIG1        0.1408
     20 C          -3.9741   -2.1922   -0.3779 C.ar    1  LIG1        0.0447
     21 N          -2.6151   -1.9735   -0.4036 N.ar    1  LIG1       -0.3561
     22 H          -1.9525   -2.5479   -0.8993 H       1  LIG1        0.1655
     23 H          -4.4148   -3.1293   -0.6802 H       1  LIG1        0.0844
     24 C          -3.7341    1.2599    1.0143 C.3     1  LIG1       -0.0342
     25 H          -4.6616    1.2683    1.5950 H       1  LIG1        0.0279
     26 H          -3.8001    2.0573    0.2646 H       1  LIG1        0.0279
     27 H          -2.9085    1.5159    1.6864 H       1  LIG1        0.0279
     28 O          -5.8904   -0.8887    0.4021 O.3     1  LIG1       -0.4933
     29 C          -6.6049   -0.1480   -0.5842 C.3     1  LIG1        0.0789
     30 H          -7.6415   -0.0897   -0.2437 H       1  LIG1        0.0660
     31 H          -6.2062    0.8682   -0.6985 H       1  LIG1        0.0660
     32 H          -6.5703   -0.6487   -1.5609 H       1  LIG1        0.0660
@<TRIPOS>BOND
     1    32    29    1
     2    10     8    1
     3    22    21    1
     4    12     3    1
     5    12    13    1
     6    31    29    1
     7    23    20    1
     8    14    13    1
     9    29    30    1
    10    29    28    1
    11    21    20   ar
    12    21    17   ar
    13    20    19   ar
    14    11     8    1
    15     8     2    1
    16     8     9    1
    17     3     2   ar
    18     3     4   ar
    19    16    13    1
    20    13    15    1
    21     2     1   ar
    22    17     4    1
    23    17    18   ar
    24     4     5   ar
    25    19    18   ar
    26    19    28    1
    27    26    24    1
    28    18    24    1
    29     1     5   ar
    30     1     7    1
    31     5     6    1
    32    24    25    1
    33    24    27    1
