@<TRIPOS>MOLECULE
mol_data/opt/b3lyp/geoms/mol2/13il13il-13il-13il.out
 62 65 0 0 0
SMALL
GASTEIGER

@<TRIPOS>ATOM
      1 C           1.5775   -1.4683    0.8139 C.ar    1  LIG1        0.0087
      2 C           1.0841   -1.2439    2.0841 C.ar    1  LIG1        0.0092
      3 C          -0.2651   -0.8202    1.9042 C.ar    1  LIG1        0.1495
      4 C          -0.5640   -0.7908    0.5440 C.ar    1  LIG1        0.1057
      5 N           0.5865   -1.1996   -0.1014 N.ar    1  LIG1       -0.3563
      6 H           0.6947   -1.2364   -1.1005 H       1  LIG1        0.1655
      7 H           2.5574   -1.7924    0.4962 H       1  LIG1        0.0811
      8 C           1.8181   -1.3922    3.3835 C.3     1  LIG1       -0.0348
      9 H           1.5374   -2.3067    3.9215 H       1  LIG1        0.0279
     10 H           1.6086   -0.5492    4.0505 H       1  LIG1        0.0279
     11 H           2.8992   -1.4308    3.2217 H       1  LIG1        0.0279
     12 O          -1.1513   -0.4328    2.8942 O.3     1  LIG1       -0.4927
     13 C          -1.6979   -1.5206    3.6473 C.3     1  LIG1        0.0789
     14 H          -2.3907   -1.0842    4.3706 H       1  LIG1        0.0660
     15 H          -2.2366   -2.2203    2.9965 H       1  LIG1        0.0660
     16 H          -0.9155   -2.0672    4.1859 H       1  LIG1        0.0660
     17 C          -1.7760   -0.3927   -0.1296 C.ar    1  LIG1        0.0735
     18 C          -2.1649   -0.4322   -1.4710 C.ar    1  LIG1        0.0187
     19 C          -3.4754    0.1102   -1.5125 C.ar    1  LIG1        0.1502
     20 C          -3.8720    0.4784   -0.2267 C.ar    1  LIG1        0.1062
     21 N          -2.8170    0.1511    0.5966 N.ar    1  LIG1       -0.3486
     22 H          -2.7304    0.3581    1.5810 H       1  LIG1        0.1661
     23 C          -1.3848   -0.9149   -2.6581 C.3     1  LIG1       -0.0341
     24 H          -1.0973   -1.9712   -2.5753 H       1  LIG1        0.0279
     25 H          -0.4689   -0.3298   -2.8200 H       1  LIG1        0.0279
     26 H          -1.9834   -0.8060   -3.5662 H       1  LIG1        0.0279
     27 O          -4.2481    0.2754   -2.6481 O.3     1  LIG1       -0.4927
     28 C          -5.0182   -0.8835   -2.9942 C.3     1  LIG1        0.0789
     29 H          -5.5576   -0.6382   -3.9122 H       1  LIG1        0.0660
     30 H          -4.3708   -1.7497   -3.1734 H       1  LIG1        0.0660
     31 H          -5.7345   -1.1326   -2.2023 H       1  LIG1        0.0660
     32 C          -5.0907    1.1085    0.2135 C.ar    1  LIG1        0.0735
     33 C          -5.6453    1.3065    1.4808 C.ar    1  LIG1        0.0187
     34 C          -6.8741    1.9826    1.2653 C.ar    1  LIG1        0.1502
     35 C          -7.0662    2.1863   -0.1006 C.ar    1  LIG1        0.1062
     36 N          -5.9626    1.6412   -0.7169 N.ar    1  LIG1       -0.3486
     37 H          -5.7780    1.6144   -1.7089 H       1  LIG1        0.1661
     38 C          -5.1135    0.8653    2.8119 C.3     1  LIG1       -0.0341
     39 H          -4.7418   -0.1655    2.7790 H       1  LIG1        0.0279
     40 H          -5.9113    0.9011    3.5594 H       1  LIG1        0.0279
     41 H          -4.2948    1.4993    3.1795 H       1  LIG1        0.0279
     42 O          -7.7810    2.3515    2.2442 O.3     1  LIG1       -0.4927
     43 C          -7.4558    3.5883    2.8898 C.3     1  LIG1        0.0789
     44 H          -8.2265    3.7611    3.6451 H       1  LIG1        0.0660
     45 H          -6.4764    3.5347    3.3792 H       1  LIG1        0.0660
     46 H          -7.4497    4.4179    2.1725 H       1  LIG1        0.0660
     47 C          -8.1790    2.7872   -0.7958 C.ar    1  LIG1        0.0730
     48 C          -8.3566    3.1748   -2.1247 C.ar    1  LIG1        0.0180
     49 C          -9.6792    3.6972   -2.2080 C.ar    1  LIG1        0.1408
     50 C         -10.2732    3.6280   -0.9599 C.ar    1  LIG1        0.0447
     51 N          -9.3387    3.0749   -0.1109 N.ar    1  LIG1       -0.3561
     52 H          -9.4627    2.8394    0.8622 H       1  LIG1        0.1655
     53 H         -11.2505    3.9208   -0.6132 H       1  LIG1        0.0844
     54 C          -7.3822    3.1000   -3.2628 C.3     1  LIG1       -0.0342
     55 H          -7.7475    3.6933   -4.1048 H       1  LIG1        0.0279
     56 H          -7.2388    2.0755   -3.6344 H       1  LIG1        0.0279
     57 H          -6.3953    3.4915   -2.9880 H       1  LIG1        0.0279
     58 O         -10.1878    4.1800   -3.3811 O.3     1  LIG1       -0.4933
     59 C         -11.5049    4.6911   -3.3038 C.3     1  LIG1        0.0789
     60 H         -11.7676    5.0406   -4.3039 H       1  LIG1        0.0660
     61 H         -12.2179    3.9146   -2.9919 H       1  LIG1        0.0660
     62 H         -11.5683    5.5306   -2.5970 H       1  LIG1        0.0660
@<TRIPOS>BOND
     1    60    59    1
     2    55    54    1
     3    29    28    1
     4    56    54    1
     5    26    23    1
     6    58    59    1
     7    58    49    1
     8    59    61    1
     9    59    62    1
    10    54    57    1
    11    54    48    1
    12    30    28    1
    13    28    27    1
    14    28    31    1
    15    25    23    1
    16    23    24    1
    17    23    18    1
    18    27    19    1
    19    49    48   ar
    20    49    50   ar
    21    48    47   ar
    22    37    36    1
    23    19    18   ar
    24    19    20   ar
    25    18    17   ar
    26     6     5    1
    27    50    53    1
    28    50    51   ar
    29    47    51   ar
    30    47    35    1
    31    36    35   ar
    32    36    32   ar
    33    20    32    1
    34    20    21   ar
    35    17     4    1
    36    17    21   ar
    37    51    52    1
    38     5     4   ar
    39     5     1   ar
    40    35    34   ar
    41    32    33   ar
    42     7     1    1
    43     4     3   ar
    44    21    22    1
    45     1     2   ar
    46    34    33   ar
    47    34    42    1
    48    33    38    1
    49     3     2   ar
    50     3    12    1
    51     2     8    1
    52    46    43    1
    53    42    43    1
    54    39    38    1
    55    38    41    1
    56    38    40    1
    57    43    45    1
    58    43    44    1
    59    12    13    1
    60    15    13    1
    61    11     8    1
    62     8     9    1
    63     8    10    1
    64    13    16    1
    65    13    14    1
