@<TRIPOS>MOLECULE
mol_data/opt/b3lyp/geoms/mol2/13il13il13il13il-.out
 62 65 0 0 0
SMALL
GASTEIGER

@<TRIPOS>ATOM
      1 C           0.6953    0.1677    2.1933 C.ar    1  LIG1        0.0087
      2 C           0.9168    1.0375    1.1466 C.ar    1  LIG1        0.0092
      3 C          -0.2550    0.9717    0.3232 C.ar    1  LIG1        0.1495
      4 C          -1.1492    0.0664    0.8819 C.ar    1  LIG1        0.1057
      5 N          -0.5265   -0.4371    2.0181 N.ar    1  LIG1       -0.3563
      6 H          -1.0186   -0.9472    2.7342 H       1  LIG1        0.1655
      7 H           1.3256   -0.0762    3.0363 H       1  LIG1        0.0811
      8 C           2.1691    1.8252    0.8954 C.3     1  LIG1       -0.0348
      9 H           2.0410    2.8958    1.0982 H       1  LIG1        0.0279
     10 H           2.4963    1.7301   -0.1459 H       1  LIG1        0.0279
     11 H           2.9848    1.4704    1.5324 H       1  LIG1        0.0279
     12 O          -0.4458    1.5693   -0.8981 O.3     1  LIG1       -0.4927
     13 C          -0.4192    2.9947   -0.8980 C.3     1  LIG1        0.0789
     14 H          -0.6860    3.3081   -1.9098 H       1  LIG1        0.0660
     15 H          -1.1455    3.4078   -0.1873 H       1  LIG1        0.0660
     16 H           0.5749    3.3887   -0.6579 H       1  LIG1        0.0660
     17 C          -2.4322   -0.4452    0.4400 C.ar    1  LIG1        0.0735
     18 C          -3.5542    0.1827   -0.0929 C.ar    1  LIG1        0.0187
     19 C          -4.5339   -0.8313   -0.2793 C.ar    1  LIG1        0.1502
     20 C          -4.0241   -2.0564    0.1442 C.ar    1  LIG1        0.1062
     21 N          -2.7355   -1.7904    0.5737 N.ar    1  LIG1       -0.3486
     22 H          -2.0994   -2.4866    0.9282 H       1  LIG1        0.1661
     23 C          -3.7413    1.6379   -0.3909 C.3     1  LIG1       -0.0341
     24 H          -4.8074    1.8719   -0.4551 H       1  LIG1        0.0279
     25 H          -3.2735    1.9259   -1.3389 H       1  LIG1        0.0279
     26 H          -3.2979    2.2634    0.3914 H       1  LIG1        0.0279
     27 O          -5.7986   -0.6065   -0.7731 O.3     1  LIG1       -0.4927
     28 C          -5.9474   -0.9182   -2.1605 C.3     1  LIG1        0.0789
     29 H          -6.9748   -0.6624   -2.4297 H       1  LIG1        0.0660
     30 H          -5.2530   -0.3308   -2.7741 H       1  LIG1        0.0660
     31 H          -5.7779   -1.9849   -2.3482 H       1  LIG1        0.0660
     32 C          -4.5654   -3.4013    0.1527 C.ar    1  LIG1        0.0735
     33 C          -5.8266   -3.8972    0.4706 C.ar    1  LIG1        0.0187
     34 C          -5.7421   -5.3102    0.3191 C.ar    1  LIG1        0.1502
     35 C          -4.4567   -5.6670   -0.0721 C.ar    1  LIG1        0.1062
     36 N          -3.7423   -4.4852   -0.1417 N.ar    1  LIG1       -0.3486
     37 H          -2.8845   -4.3943   -0.6635 H       1  LIG1        0.1661
     38 C          -7.0294   -3.1355    0.9427 C.3     1  LIG1       -0.0341
     39 H          -7.0447   -3.0320    2.0360 H       1  LIG1        0.0279
     40 H          -7.9449   -3.6610    0.6530 H       1  LIG1        0.0279
     41 H          -7.0538   -2.1306    0.5165 H       1  LIG1        0.0279
     42 O          -6.7717   -6.2153    0.5039 O.3     1  LIG1       -0.4927
     43 C          -7.0244   -6.5360    1.8765 C.3     1  LIG1        0.0789
     44 H          -7.8563   -7.2444    1.8855 H       1  LIG1        0.0660
     45 H          -6.1441   -6.9962    2.3418 H       1  LIG1        0.0660
     46 H          -7.3052   -5.6442    2.4478 H       1  LIG1        0.0660
     47 C          -3.9129   -6.9636   -0.3971 C.ar    1  LIG1        0.0730
     48 C          -2.6062   -7.4067   -0.6081 C.ar    1  LIG1        0.0180
     49 C          -2.7051   -8.7978   -0.8975 C.ar    1  LIG1        0.1408
     50 C          -4.0360   -9.1753   -0.8545 C.ar    1  LIG1        0.0447
     51 N          -4.7561   -8.0413   -0.5465 N.ar    1  LIG1       -0.3561
     52 H          -5.7573   -7.9595   -0.4524 H       1  LIG1        0.1655
     53 H          -4.5171  -10.1264   -1.0119 H       1  LIG1        0.0844
     54 C          -1.3260   -6.6284   -0.5340 C.3     1  LIG1       -0.0342
     55 H          -1.3203   -5.9335    0.3139 H       1  LIG1        0.0279
     56 H          -1.1266   -6.0454   -1.4450 H       1  LIG1        0.0279
     57 H          -0.4808   -7.3102   -0.4089 H       1  LIG1        0.0279
     58 O          -1.5979   -9.5566   -1.1522 O.3     1  LIG1       -0.4933
     59 C          -1.8459  -10.9311   -1.3823 C.3     1  LIG1        0.0789
     60 H          -0.8771  -11.4015   -1.5593 H       1  LIG1        0.0660
     61 H          -2.3259  -11.4023   -0.5130 H       1  LIG1        0.0660
     62 H          -2.4874  -11.0801   -2.2622 H       1  LIG1        0.0660
@<TRIPOS>BOND
     1    30    28    1
     2    29    28    1
     3    31    28    1
     4    62    59    1
     5    28    27    1
     6    14    13    1
     7    60    59    1
     8    56    54    1
     9    59    58    1
    10    59    61    1
    11    25    23    1
    12    58    49    1
    13    53    50    1
    14    12    13    1
    15    12     3    1
    16    13    16    1
    17    13    15    1
    18    49    50   ar
    19    49    48   ar
    20    50    51   ar
    21    27    19    1
    22    37    36    1
    23    48    54    1
    24    48    47   ar
    25    51    52    1
    26    51    47   ar
    27    54    57    1
    28    54    55    1
    29    24    23    1
    30    47    35    1
    31    23    18    1
    32    23    26    1
    33    19    18   ar
    34    19    20   ar
    35    10     8    1
    36    36    35   ar
    37    36    32   ar
    38    18    17   ar
    39    35    34   ar
    40    20    32    1
    41    20    21   ar
    42    32    33   ar
    43    34    33   ar
    44    34    42    1
    45     3     4   ar
    46     3     2   ar
    47    17    21   ar
    48    17     4    1
    49    33    38    1
    50    42    43    1
    51    41    38    1
    52    21    22    1
    53    40    38    1
    54     4     5   ar
    55     8     9    1
    56     8     2    1
    57     8    11    1
    58    38    39    1
    59     2     1   ar
    60    43    44    1
    61    43    45    1
    62    43    46    1
    63     5     1   ar
    64     5     6    1
    65     1     7    1
