@<TRIPOS>MOLECULE
mol_data/opt/b3lyp/geoms/mol2/13il13il-13il13il-.out
 62 65 0 0 0
SMALL
GASTEIGER

@<TRIPOS>ATOM
      1 C           1.4042   -0.3123   -0.8884 C.ar    1  LIG1        0.0087
      2 C           1.0341    1.0092   -0.7331 C.ar    1  LIG1        0.0092
      3 C          -0.3723    0.9907   -0.5012 C.ar    1  LIG1        0.1495
      4 C          -0.8285   -0.3253   -0.5238 C.ar    1  LIG1        0.1057
      5 N           0.2873   -1.1046   -0.7583 N.ar    1  LIG1       -0.3563
      6 H           0.2682   -2.1033   -0.8744 H       1  LIG1        0.1655
      7 H           2.3740   -0.7437   -1.0871 H       1  LIG1        0.0811
      8 C           1.9199    2.2167   -0.8129 C.3     1  LIG1       -0.0348
      9 H           2.1549    2.6305    0.1762 H       1  LIG1        0.0279
     10 H           1.4427    3.0151   -1.3909 H       1  LIG1        0.0279
     11 H           2.8708    1.9751   -1.2968 H       1  LIG1        0.0279
     12 O          -1.1996    2.0879   -0.3346 O.3     1  LIG1       -0.4927
     13 C          -1.0932    2.7103    0.9500 C.3     1  LIG1        0.0789
     14 H          -1.8056    3.5387    0.9564 H       1  LIG1        0.0660
     15 H          -1.3408    2.0047    1.7527 H       1  LIG1        0.0660
     16 H          -0.0850    3.1041    1.1216 H       1  LIG1        0.0660
     17 C          -2.1671   -0.8433   -0.3794 C.ar    1  LIG1        0.0735
     18 C          -2.6706   -2.1437   -0.2930 C.ar    1  LIG1        0.0187
     19 C          -4.0769   -2.0085   -0.1616 C.ar    1  LIG1        0.1502
     20 C          -4.4225   -0.6564   -0.1782 C.ar    1  LIG1        0.1062
     21 N          -3.2343    0.0291   -0.3034 N.ar    1  LIG1       -0.3486
     22 H          -3.1174    1.0257   -0.4137 H       1  LIG1        0.1661
     23 C          -1.9221   -3.4425   -0.3531 C.3     1  LIG1       -0.0341
     24 H          -1.1873   -3.5472    0.4560 H       1  LIG1        0.0279
     25 H          -1.3914   -3.5720   -1.3064 H       1  LIG1        0.0279
     26 H          -2.6206   -4.2795   -0.2749 H       1  LIG1        0.0279
     27 O          -4.9846   -3.0473   -0.0558 O.3     1  LIG1       -0.4927
     28 C          -5.1506   -3.5318    1.2829 C.3     1  LIG1        0.0789
     29 H          -5.8677   -4.3545    1.2320 H       1  LIG1        0.0660
     30 H          -4.2028   -3.9008    1.6917 H       1  LIG1        0.0660
     31 H          -5.5384   -2.7456    1.9420 H       1  LIG1        0.0660
     32 C          -5.7219   -0.0366   -0.1255 C.ar    1  LIG1        0.0735
     33 C          -6.1253    1.2986   -0.0354 C.ar    1  LIG1        0.0187
     34 C          -7.5439    1.2768   -0.0377 C.ar    1  LIG1        0.1502
     35 C          -7.9944   -0.0394   -0.1327 C.ar    1  LIG1        0.1062
     36 N          -6.8604   -0.8194   -0.1745 N.ar    1  LIG1       -0.3486
     37 H          -6.8221   -1.8142   -0.3425 H       1  LIG1        0.1661
     38 C          -5.2731    2.5313    0.0284 C.3     1  LIG1       -0.0341
     39 H          -5.9086    3.4191    0.0837 H       1  LIG1        0.0279
     40 H          -4.6448    2.6504   -0.8638 H       1  LIG1        0.0279
     41 H          -4.6096    2.5401    0.9028 H       1  LIG1        0.0279
     42 O          -8.3702    2.3858    0.0241 O.3     1  LIG1       -0.4927
     43 C          -8.6681    2.8032    1.3619 C.3     1  LIG1        0.0789
     44 H          -9.2958    3.6942    1.2812 H       1  LIG1        0.0660
     45 H          -9.2085    2.0206    1.9081 H       1  LIG1        0.0660
     46 H          -7.7531    3.0533    1.9115 H       1  LIG1        0.0660
     47 C          -9.3425   -0.5471   -0.2200 C.ar    1  LIG1        0.0730
     48 C          -9.8691   -1.8362   -0.1298 C.ar    1  LIG1        0.0180
     49 C         -11.2759   -1.7000   -0.3077 C.ar    1  LIG1        0.1408
     50 C         -11.5817   -0.3635   -0.4949 C.ar    1  LIG1        0.0447
     51 N         -10.3885    0.3245   -0.4306 N.ar    1  LIG1       -0.3561
     52 H         -10.2462    1.3111   -0.5852 H       1  LIG1        0.1655
     53 H         -12.5188    0.1422   -0.6589 H       1  LIG1        0.0844
     54 C          -9.1517   -3.1291    0.1229 C.3     1  LIG1       -0.0342
     55 H          -8.4339   -3.0444    0.9478 H       1  LIG1        0.0279
     56 H          -8.6030   -3.4909   -0.7578 H       1  LIG1        0.0279
     57 H          -9.8712   -3.9073    0.3899 H       1  LIG1        0.0279
     58 O         -12.1113   -2.7807   -0.2682 O.3     1  LIG1       -0.4933
     59 C         -13.4860   -2.4894   -0.4349 C.3     1  LIG1        0.0789
     60 H         -14.0197   -3.4397   -0.3761 H       1  LIG1        0.0660
     61 H         -13.8520   -1.8176    0.3544 H       1  LIG1        0.0660
     62 H         -13.6812   -2.0238   -1.4112 H       1  LIG1        0.0660
@<TRIPOS>BOND
     1    62    59    1
     2    10     8    1
     3    25    23    1
     4    11     8    1
     5     7     1    1
     6     1     5   ar
     7     1     2   ar
     8     6     5    1
     9    40    38    1
    10     8     2    1
    11     8     9    1
    12     5     4   ar
    13    56    54    1
    14     2     3   ar
    15    53    50    1
    16    52    51    1
    17     4     3   ar
    18     4    17    1
    19     3    12    1
    20    50    51   ar
    21    50    49   ar
    22    59    60    1
    23    59    58    1
    24    59    61    1
    25    51    47   ar
    26    22    21    1
    27    17    21   ar
    28    17    18   ar
    29    23    18    1
    30    23    26    1
    31    23    24    1
    32    37    36    1
    33    12    13    1
    34    49    58    1
    35    49    48   ar
    36    21    20   ar
    37    18    19   ar
    38    47    35    1
    39    47    48   ar
    40    20    19   ar
    41    20    32    1
    42    36    35   ar
    43    36    32   ar
    44    19    27    1
    45    35    34   ar
    46    48    54    1
    47    32    33   ar
    48    27    28    1
    49    34    33   ar
    50    34    42    1
    51    33    38    1
    52    42    43    1
    53    38    39    1
    54    38    41    1
    55    54    57    1
    56    54    55    1
    57    13    14    1
    58    13    16    1
    59    13    15    1
    60    29    28    1
    61    44    43    1
    62    28    30    1
    63    28    31    1
    64    43    45    1
    65    43    46    1
