@<TRIPOS>MOLECULE
mol_data/opt/b3lyp/geoms/mol2/13il13il-.out
 32 33 0 0 0
SMALL
GASTEIGER

@<TRIPOS>ATOM
      1 C           1.3814   -0.3495   -0.2105 C.ar    1  LIG1        0.0087
      2 C           1.0240    0.9784   -0.3389 C.ar    1  LIG1        0.0092
      3 C          -0.4015    0.9963   -0.3294 C.ar    1  LIG1        0.1495
      4 C          -0.8798   -0.3038   -0.1975 C.ar    1  LIG1        0.1057
      5 N           0.2381   -1.1094   -0.1207 N.ar    1  LIG1       -0.3563
      6 H           0.2095   -2.1146   -0.0914 H       1  LIG1        0.1655
      7 H           2.3592   -0.8068   -0.1805 H       1  LIG1        0.0811
      8 C           1.9379    2.1593   -0.4773 C.3     1  LIG1       -0.0348
      9 H           2.0187    2.7376    0.4522 H       1  LIG1        0.0279
     10 H           1.5773    2.8449   -1.2514 H       1  LIG1        0.0279
     11 H           2.9490    1.8446   -0.7518 H       1  LIG1        0.0279
     12 O          -1.2138    2.1075   -0.4811 O.3     1  LIG1       -0.4927
     13 C          -1.3518    2.8910    0.7089 C.3     1  LIG1        0.0789
     14 H          -2.0058    3.7301    0.4589 H       1  LIG1        0.0660
     15 H          -1.8003    2.3029    1.5190 H       1  LIG1        0.0660
     16 H          -0.3837    3.2793    1.0453 H       1  LIG1        0.0660
     17 C          -2.2393   -0.7945   -0.1821 C.ar    1  LIG1        0.0730
     18 C          -2.7845   -2.0398    0.1308 C.ar    1  LIG1        0.0180
     19 C          -4.1924   -1.9073   -0.0431 C.ar    1  LIG1        0.1408
     20 C          -4.4787   -0.6143   -0.4441 C.ar    1  LIG1        0.0447
     21 N          -3.2725    0.0484   -0.5205 N.ar    1  LIG1       -0.3561
     22 H          -3.1159    1.0028   -0.8081 H       1  LIG1        0.1655
     23 H          -5.4100   -0.1237   -0.6739 H       1  LIG1        0.0844
     24 C          -2.0847   -3.2882    0.5814 C.3     1  LIG1       -0.0342
     25 H          -1.3391   -3.0845    1.3600 H       1  LIG1        0.0279
     26 H          -1.5767   -3.8129   -0.2409 H       1  LIG1        0.0279
     27 H          -2.8097   -3.9908    0.9997 H       1  LIG1        0.0279
     28 O          -5.0441   -2.9507    0.1876 O.3     1  LIG1       -0.4933
     29 C          -6.4181   -2.6604    0.0117 C.3     1  LIG1        0.0789
     30 H          -6.9662   -3.5763    0.2398 H       1  LIG1        0.0660
     31 H          -6.7482   -1.8604    0.6894 H       1  LIG1        0.0660
     32 H          -6.6339   -2.3568   -1.0224 H       1  LIG1        0.0660
@<TRIPOS>BOND
     1    10     8    1
     2    32    29    1
     3    22    21    1
     4    11     8    1
     5    23    20    1
     6    21    20   ar
     7    21    17   ar
     8    12     3    1
     9    12    13    1
    10     8     2    1
    11     8     9    1
    12    20    19   ar
    13     2     3   ar
    14     2     1   ar
    15     3     4   ar
    16    26    24    1
    17     1     7    1
    18     1     5   ar
    19     4    17    1
    20     4     5   ar
    21    17    18   ar
    22     5     6    1
    23    19    18   ar
    24    19    28    1
    25    29    28    1
    26    29    30    1
    27    29    31    1
    28    18    24    1
    29    14    13    1
    30    24    27    1
    31    24    25    1
    32    13    16    1
    33    13    15    1
