@<TRIPOS>MOLECULE
mol_data/opt/b3lyp/geoms/mol2/13il13il13il-13il.out
 62 65 0 0 0
SMALL
GASTEIGER

@<TRIPOS>ATOM
      1 C           1.4064   -0.3166    0.2665 C.ar    1  LIG1        0.0087
      2 C           1.1829    0.8634   -0.4103 C.ar    1  LIG1        0.0092
      3 C          -0.2373    0.9649   -0.5735 C.ar    1  LIG1        0.1495
      4 C          -0.8392   -0.1525   -0.0030 C.ar    1  LIG1        0.1057
      5 N           0.1995   -0.9378    0.4826 N.ar    1  LIG1       -0.3563
      6 H           0.0537   -1.7027    1.1217 H       1  LIG1        0.1655
      7 H           2.3339   -0.7661    0.5899 H       1  LIG1        0.0811
      8 C           2.2309    1.8010   -0.9340 C.3     1  LIG1       -0.0348
      9 H           2.3043    2.7234   -0.3444 H       1  LIG1        0.0279
     10 H           2.0193    2.0938   -1.9682 H       1  LIG1        0.0279
     11 H           3.2171    1.3277   -0.9185 H       1  LIG1        0.0279
     12 O          -0.9147    1.9221   -1.2903 O.3     1  LIG1       -0.4927
     13 C          -0.7979    3.2538   -0.7913 C.3     1  LIG1        0.0789
     14 H          -1.4528    3.8733   -1.4080 H       1  LIG1        0.0660
     15 H          -1.1185    3.3164    0.2561 H       1  LIG1        0.0660
     16 H           0.2263    3.6350   -0.8717 H       1  LIG1        0.0660
     17 C          -2.2060   -0.6288    0.0678 C.ar    1  LIG1        0.0735
     18 C          -3.4284    0.0152    0.2364 C.ar    1  LIG1        0.0187
     19 C          -4.4121   -1.0106    0.2811 C.ar    1  LIG1        0.1502
     20 C          -3.8041   -2.2549    0.1417 C.ar    1  LIG1        0.1062
     21 N          -2.4485   -1.9994    0.0444 N.ar    1  LIG1       -0.3486
     22 H          -1.7893   -2.6586   -0.3387 H       1  LIG1        0.1661
     23 C          -3.6953    1.4841    0.3616 C.3     1  LIG1       -0.0341
     24 H          -4.7683    1.6642    0.4664 H       1  LIG1        0.0279
     25 H          -3.3467    2.0208   -0.5242 H       1  LIG1        0.0279
     26 H          -3.1891    1.9226    1.2306 H       1  LIG1        0.0279
     27 O          -5.7743   -0.8265    0.4318 O.3     1  LIG1       -0.4927
     28 C          -6.1896   -0.6767    1.7953 C.3     1  LIG1        0.0789
     29 H          -7.2724   -0.5321    1.7792 H       1  LIG1        0.0660
     30 H          -5.9464   -1.5710    2.3821 H       1  LIG1        0.0660
     31 H          -5.7145    0.1940    2.2615 H       1  LIG1        0.0660
     32 C          -4.3900   -3.5678    0.0651 C.ar    1  LIG1        0.0735
     33 C          -3.8305   -4.8487    0.0435 C.ar    1  LIG1        0.0187
     34 C          -4.9231   -5.7487   -0.0561 C.ar    1  LIG1        0.1502
     35 C          -6.1189   -5.0327   -0.1009 C.ar    1  LIG1        0.1062
     36 N          -5.7626   -3.7055   -0.0174 N.ar    1  LIG1       -0.3486
     37 H          -6.3787   -2.9098   -0.0996 H       1  LIG1        0.1661
     38 C          -2.3822   -5.2357    0.0904 C.3     1  LIG1       -0.0341
     39 H          -1.8671   -4.8283    0.9693 H       1  LIG1        0.0279
     40 H          -1.8316   -4.9039   -0.8013 H       1  LIG1        0.0279
     41 H          -2.2868   -6.3241    0.1212 H       1  LIG1        0.0279
     42 O          -4.8327   -7.1290   -0.1167 O.3     1  LIG1       -0.4927
     43 C          -4.8002   -7.7577    1.1711 C.3     1  LIG1        0.0789
     44 H          -4.6931   -8.8308    0.9943 H       1  LIG1        0.0660
     45 H          -3.9498   -7.4013    1.7638 H       1  LIG1        0.0660
     46 H          -5.7258   -7.5667    1.7272 H       1  LIG1        0.0660
     47 C          -7.4729   -5.5105   -0.2459 C.ar    1  LIG1        0.0730
     48 C          -8.7144   -4.8891   -0.1043 C.ar    1  LIG1        0.0180
     49 C          -9.6906   -5.8936   -0.3731 C.ar    1  LIG1        0.1408
     50 C          -9.0454   -7.0794   -0.6678 C.ar    1  LIG1        0.0447
     51 N          -7.6990   -6.8308   -0.5826 N.ar    1  LIG1       -0.3561
     52 H          -6.9441   -7.4752   -0.7661 H       1  LIG1        0.1655
     53 H          -9.4392   -8.0551   -0.9056 H       1  LIG1        0.0844
     54 C          -9.0142   -3.4748    0.2945 C.3     1  LIG1       -0.0342
     55 H         -10.0698   -3.3874    0.5665 H       1  LIG1        0.0279
     56 H          -8.8254   -2.7524   -0.5116 H       1  LIG1        0.0279
     57 H          -8.4239   -3.1596    1.1634 H       1  LIG1        0.0279
     58 O         -11.0527   -5.7160   -0.2919 O.3     1  LIG1       -0.4933
     59 C         -11.6579   -5.2966   -1.5124 C.3     1  LIG1        0.0789
     60 H         -12.7264   -5.1847   -1.3124 H       1  LIG1        0.0660
     61 H         -11.2525   -4.3360   -1.8567 H       1  LIG1        0.0660
     62 H         -11.5132   -6.0405   -2.3069 H       1  LIG1        0.0660
@<TRIPOS>BOND
     1    62    59    1
     2    10     8    1
     3    61    59    1
     4    59    60    1
     5    59    58    1
     6    14    13    1
     7    12    13    1
     8    12     3    1
     9     8    11    1
    10     8     2    1
    11     8     9    1
    12    53    50    1
    13    16    13    1
    14    40    38    1
    15    13    15    1
    16    52    51    1
    17    50    51   ar
    18    50    49   ar
    19    51    47   ar
    20     3     2   ar
    21     3     4   ar
    22    25    23    1
    23    56    54    1
    24     2     1   ar
    25    49    58    1
    26    49    48   ar
    27    22    21    1
    28    47    48   ar
    29    47    35    1
    30    42    34    1
    31    42    43    1
    32    48    54    1
    33    35    34   ar
    34    35    36   ar
    35    37    36    1
    36    34    33   ar
    37    36    32   ar
    38     4    17    1
    39     4     5   ar
    40    33    32   ar
    41    33    38    1
    42    21    17   ar
    43    21    20   ar
    44    32    20    1
    45    17    18   ar
    46    38    41    1
    47    38    39    1
    48    20    19   ar
    49    18    19   ar
    50    18    23    1
    51     1     5   ar
    52     1     7    1
    53    19    27    1
    54    54    55    1
    55    54    57    1
    56    23    24    1
    57    23    26    1
    58    27    28    1
    59     5     6    1
    60    44    43    1
    61    43    46    1
    62    43    45    1
    63    29    28    1
    64    28    31    1
    65    28    30    1
