@<TRIPOS>MOLECULE
mol_data/opt/b3lyp/geoms/mol2/13il12ia6ia-4df6fi-6hh-4ii13ef-.out
 104 111 0 0 0
SMALL
GASTEIGER

@<TRIPOS>ATOM
      1 C           1.2320    0.7961   -0.6829 C.ar    1  LIG1        0.0088
      2 C           0.7868    2.0197   -0.2195 C.ar    1  LIG1        0.0092
      3 C          -0.6173    1.8803   -0.0270 C.ar    1  LIG1        0.1511
      4 C          -0.9986    0.5852   -0.3813 C.ar    1  LIG1        0.1248
      5 N           0.1632   -0.0559   -0.7699 N.ar    1  LIG1       -0.3551
      6 H           0.1859   -1.0055   -1.1036 H       1  LIG1        0.1655
      7 H           2.2257    0.4770   -0.9611 H       1  LIG1        0.0811
      8 C           1.5973    3.2559    0.0319 C.3     1  LIG1       -0.0348
      9 H           1.7411    3.4467    1.1027 H       1  LIG1        0.0279
     10 H           1.1049    4.1392   -0.3870 H       1  LIG1        0.0279
     11 H           2.5896    3.1749   -0.4210 H       1  LIG1        0.0279
     12 O          -1.4482    2.8811    0.4177 O.3     1  LIG1       -0.4926
     13 C          -1.5993    2.9260    1.8394 C.3     1  LIG1        0.0789
     14 H          -2.2599    3.7681    2.0567 H       1  LIG1        0.0660
     15 H          -2.0489    2.0006    2.2194 H       1  LIG1        0.0660
     16 H          -0.6347    3.0835    2.3371 H       1  LIG1        0.0660
     17 C          -2.2576   -0.1217   -0.3957 C.ar    1  LIG1        0.1582
     18 C          -3.5916    0.2241   -0.4742 C.ar    1  LIG1       -0.0025
     19 C          -4.3076   -1.0099   -0.4686 C.ar    1  LIG1       -0.0122
     20 C          -3.3975   -2.0357   -0.4054 C.ar    1  LIG1        0.1377
     21 O          -2.1354   -1.4946   -0.3559 O.2     1  LIG1       -0.4529
     22 C          -4.2051    1.5871   -0.6001 C.3     1  LIG1       -0.0360
     23 H          -4.7243    1.6899   -1.5602 H       1  LIG1        0.0279
     24 H          -3.4540    2.3736   -0.5270 H       1  LIG1        0.0279
     25 H          -4.9512    1.7542    0.1858 H       1  LIG1        0.0279
     26 H          -5.3833   -1.1126   -0.5012 H       1  LIG1        0.0658
     27 C          -2.5839   -4.4100    0.0629 C.ar    1  LIG1        0.0495
     28 C          -3.5608   -3.4806   -0.3948 C.ar    1  LIG1        0.0383
     29 C          -4.7808   -4.0198   -0.8362 C.ar    1  LIG1       -0.0473
     30 C          -5.0034   -5.3873   -0.8339 C.ar    1  LIG1       -0.0350
     31 C          -3.9734   -6.2319   -0.3983 C.ar    1  LIG1        0.0726
     32 N          -2.8086   -5.7255    0.0497 N.ar    1  LIG1       -0.2511
     33 H          -5.5598   -3.3561   -1.1970 H       1  LIG1        0.0626
     34 C          -1.2355   -4.0000    0.6045 C.3     1  LIG1       -0.0216
     35 H          -1.3175   -3.1979    1.3424 H       1  LIG1        0.0293
     36 H          -0.5825   -3.6304   -0.1928 H       1  LIG1        0.0293
     37 H          -0.7646   -4.8726    1.0592 H       1  LIG1        0.0293
     38 H          -5.9553   -5.7758   -1.1687 H       1  LIG1        0.0639
     39 C          -4.9549   -8.5071   -1.1288 C.ar    1  LIG1        0.0617
     40 C          -4.9705   -9.9035   -0.9773 C.ar    1  LIG1       -0.0323
     41 C          -4.0827   -7.7141   -0.3404 C.ar    1  LIG1        0.0212
     42 C          -4.1548  -10.5862   -0.0685 C.ar    1  LIG1        0.0299
     43 H          -5.6286  -10.4801   -1.6175 H       1  LIG1        0.0638
     44 C          -3.2490   -8.3969    0.5530 C.ar    1  LIG1       -0.0092
     45 C          -3.2835   -9.7783    0.6915 C.ar    1  LIG1        0.1254
     46 H          -2.5606   -7.8040    1.1475 H       1  LIG1        0.0661
     47 N          -6.5274   -7.5955   -2.9825 N.1     1  LIG1       -0.1908
     48 C          -5.8116   -7.9737   -2.1457 C.1     1  LIG1        0.0998
     49 O          -2.4643  -10.4082    1.6001 O.3     1  LIG1       -0.5061
     50 H          -1.9134   -9.7531    2.0508 H       1  LIG1        0.2922
     51 C          -3.1991  -12.9806    0.0874 C.ar    1  LIG1        0.2209
     52 C          -4.2792  -12.0612    0.0529 C.ar    1  LIG1        0.0473
     53 C          -5.5537  -12.6405    0.0639 C.ar    1  LIG1       -0.0439
     54 C          -5.7699  -14.0190    0.0415 C.ar    1  LIG1       -0.0235
     55 C          -4.6140  -14.8338   -0.0312 C.ar    1  LIG1        0.0811
     56 N          -3.3819  -14.2909    0.0272 N.ar    1  LIG1       -0.2121
     57 H          -6.4170  -11.9814    0.1140 H       1  LIG1        0.0629
     58 O          -1.9003  -12.6066    0.1335 O.3     1  LIG1       -0.4920
     59 H          -1.8339  -11.7564    0.6028 H       1  LIG1        0.2937
     60 C          -7.1861  -14.5381    0.1541 C.3     1  LIG1       -0.0377
     61 H          -7.2252  -15.4985    0.6725 H       1  LIG1        0.0278
     62 H          -7.6623  -14.6773   -0.8240 H       1  LIG1        0.0278
     63 H          -7.8033  -13.8256    0.7096 H       1  LIG1        0.0278
     64 C          -3.7095  -17.1650    0.4998 C.ar    1  LIG1        0.1262
     65 C          -4.6557  -16.3133   -0.1494 C.ar    1  LIG1        0.0420
     66 C          -5.6056  -16.9451   -0.9546 C.ar    1  LIG1       -0.0265
     67 C          -5.6714  -18.3357   -1.0772 C.ar    1  LIG1        0.0517
     68 C          -4.7433  -19.0863   -0.3264 C.ar    1  LIG1        0.0939
     69 N          -3.7834  -18.4985    0.4030 N.ar    1  LIG1       -0.2299
     70 H          -6.2970  -16.3404   -1.5330 H       1  LIG1        0.0644
     71 N          -2.7053  -16.6727    1.3044 N.pl3   1  LIG1       -0.3426
     72 H          -2.0164  -17.3725    1.5417 H       1  LIG1        0.1437
     73 H          -2.3580  -15.7597    1.0342 H       1  LIG1        0.1437
     74 N          -6.6440  -18.9405   -1.8990 N.pl3   1  LIG1       -0.3563
     75 H          -6.9151  -18.3621   -2.6850 H       1  LIG1        0.1424
     76 H          -6.3692  -19.8618   -2.2197 H       1  LIG1        0.1424
     77 C          -5.7727  -21.3949    0.0550 C.ar    1  LIG1       -0.0406
     78 C          -5.6237  -22.7796   -0.0478 C.ar    1  LIG1       -0.0488
     79 C          -4.7044  -20.5799   -0.3793 C.ar    1  LIG1        0.0054
     80 C          -4.4615  -23.3940   -0.5438 C.ar    1  LIG1        0.0028
     81 H          -6.4381  -23.4152    0.2825 H       1  LIG1        0.0627
     82 C          -3.5306  -21.1908   -0.8380 C.ar    1  LIG1       -0.0487
     83 C          -3.3742  -22.5747   -0.9344 C.ar    1  LIG1       -0.0407
     84 H          -2.6993  -20.5476   -1.1126 H       1  LIG1        0.0627
     85 C          -7.0306  -20.8198    0.6640 C.3     1  LIG1       -0.0391
     86 H          -7.6527  -21.6145    1.0837 H       1  LIG1        0.0278
     87 H          -7.6222  -20.2672   -0.0735 H       1  LIG1        0.0278
     88 H          -6.7883  -20.1181    1.4691 H       1  LIG1        0.0278
     89 C          -2.0457  -23.1229   -1.4108 C.3     1  LIG1       -0.0391
     90 H          -1.2574  -22.3795   -1.2654 H       1  LIG1        0.0278
     91 H          -2.0469  -23.3652   -2.4832 H       1  LIG1        0.0278
     92 H          -1.7610  -24.0305   -0.8718 H       1  LIG1        0.0278
     93 C          -4.4298  -24.8617   -0.6165 C.ar    1  LIG1        0.0660
     94 C          -4.9567  -25.8299    0.2557 C.ar    1  LIG1        0.0912
     95 C          -4.6854  -27.1080   -0.3308 C.ar    1  LIG1        0.1500
     96 C          -4.0209  -26.9065   -1.5195 C.ar    1  LIG1        0.0454
     97 N          -3.8619  -25.5403   -1.6641 N.ar    1  LIG1       -0.3566
     98 H          -3.4991  -25.0930   -2.4888 H       1  LIG1        0.1655
     99 H          -3.6451  -27.6041   -2.2522 H       1  LIG1        0.0845
    100 C          -5.5920  -25.6238    1.5048 C.1     1  LIG1       -0.0639
    101 C          -6.1427  -25.4728    2.5729 C.1     1  LIG1       -0.1137
    102 H          -6.6109  -25.3406    3.5200 H       1  LIG1        0.1232
    103 O          -5.0492  -28.2777    0.2664 O.3     1  LIG1       -0.5040
    104 H          -4.7505  -29.0140   -0.2818 H       1  LIG1        0.2923
@<TRIPOS>BOND
     1    47    48    3
     2    75    74    1
     3    98    97    1
     4    91    89    1
     5    99    96    1
     6    76    74    1
     7    48    39    1
     8    74    67    1
     9    97    96   ar
    10    97    93   ar
    11    43    40    1
    12    23    22    1
    13    70    66    1
    14    96    95   ar
    15    89    90    1
    16    89    83    1
    17    89    92    1
    18    33    29    1
    19    38    30    1
    20    39    40   ar
    21    39    41   ar
    22    84    82    1
    23     6     5    1
    24    67    66   ar
    25    67    68   ar
    26    40    42   ar
    27     7     1    1
    28    66    65   ar
    29    83    82   ar
    30    83    80   ar
    31    82    79   ar
    32    29    30   ar
    33    29    28   ar
    34    30    31   ar
    35    62    60    1
    36     5     1   ar
    37     5     4   ar
    38     1     2   ar
    39    93    80    1
    40    93    94   ar
    41    22    24    1
    42    22    18    1
    43    22    25    1
    44    80    78   ar
    45    26    19    1
    46    18    19   ar
    47    18    17   ar
    48    19    20   ar
    49    11     8    1
    50    20    28    1
    51    20    21   ar
    52    31    41    1
    53    31    32   ar
    54    17     4    1
    55    17    21   ar
    56    28    27   ar
    57    10     8    1
    58     4     3   ar
    59    79    68    1
    60    79    77   ar
    61    41    44   ar
    62    95    94   ar
    63    95   103    1
    64    68    69   ar
    65   104   103    1
    66     2     3   ar
    67     2     8    1
    68    36    34    1
    69    65    55    1
    70    65    64   ar
    71    87    85    1
    72    42    52    1
    73    42    45   ar
    74    78    77   ar
    75    78    81    1
    76    55    56   ar
    77    55    54   ar
    78     3    12    1
    79    56    51   ar
    80     8     9    1
    81    54    53   ar
    82    54    60    1
    83    32    27   ar
    84    52    53   ar
    85    52    51   ar
    86    77    85    1
    87    27    34    1
    88    53    57    1
    89    51    58    1
    90    58    59    1
    91    60    61    1
    92    60    63    1
    93    94   100    1
    94    69    64   ar
    95    12    13    1
    96    64    71    1
    97    44    45   ar
    98    44    46    1
    99    34    37    1
   100    34    35    1
   101    85    86    1
   102    85    88    1
   103    45    49    1
   104    73    71    1
   105    71    72    1
   106   100   101    3
   107    49    50    1
   108    13    14    1
   109    13    15    1
   110    13    16    1
   111   101   102    1
