@<TRIPOS>MOLECULE
mol_data/opt/b3lyp/geoms/mol2/13il4de12ea13lf.out
 52 55 0 0 0
SMALL
GASTEIGER

@<TRIPOS>ATOM
      1 C           1.4431    0.0625    0.8819 C.ar    1  LIG1        0.0087
      2 C           1.1994    1.0595   -0.0434 C.ar    1  LIG1        0.0091
      3 C          -0.2030    0.9988   -0.3230 C.ar    1  LIG1        0.1481
      4 C          -0.7659   -0.0300    0.4311 C.ar    1  LIG1        0.0902
      5 N           0.2803   -0.6130    1.1327 N.ar    1  LIG1       -0.3574
      6 H           0.1483   -1.2770    1.8787 H       1  LIG1        0.1655
      7 H           2.3668   -0.2110    1.3714 H       1  LIG1        0.0811
      8 C           2.2363    1.9544   -0.6580 C.3     1  LIG1       -0.0348
      9 H           2.1248    3.0001   -0.3489 H       1  LIG1        0.0279
     10 H           2.1888    1.9317   -1.7524 H       1  LIG1        0.0279
     11 H           3.2404    1.6331   -0.3658 H       1  LIG1        0.0279
     12 O          -0.9091    1.6752   -1.2754 O.3     1  LIG1       -0.4927
     13 C          -0.7946    3.1016   -1.2781 C.3     1  LIG1        0.0789
     14 H          -1.5553    3.4618   -1.9724 H       1  LIG1        0.0660
     15 H          -0.9970    3.5157   -0.2863 H       1  LIG1        0.0660
     16 H           0.1911    3.4261   -1.6278 H       1  LIG1        0.0660
     17 C          -3.2966    0.1630    0.4708 C.ar    1  LIG1        0.0617
     18 C          -4.5481   -0.4572    0.4698 C.ar    1  LIG1       -0.0318
     19 C          -2.1040   -0.6083    0.4528 C.ar    1  LIG1        0.0204
     20 C          -4.6998   -1.8531    0.4925 C.ar    1  LIG1        0.0351
     21 H          -5.4318    0.1677    0.4676 H       1  LIG1        0.0638
     22 C          -2.2604   -1.9999    0.4839 C.ar    1  LIG1       -0.0352
     23 C          -3.5094   -2.6405    0.5186 C.ar    1  LIG1        0.0361
     24 H          -1.3748   -2.6253    0.4558 H       1  LIG1        0.0637
     25 N          -3.3241    2.7490    0.6871 N.1     1  LIG1       -0.1908
     26 C          -3.2756    1.5929    0.5625 C.1     1  LIG1        0.0998
     27 C          -3.4788   -4.0684    0.6073 C.1     1  LIG1       -0.0689
     28 C          -3.3208   -5.2656    0.7073 C.1     1  LIG1       -0.1139
     29 H          -3.1819   -6.3148    0.8319 H       1  LIG1        0.1232
     30 C          -6.0355   -2.4173    0.4873 C.ar    1  LIG1        0.1523
     31 C          -7.3031   -1.9163    0.7729 C.ar    1  LIG1        0.0710
     32 C          -8.2271   -2.9937    0.5714 C.ar    1  LIG1        0.0018
     33 C          -7.4859   -4.0751    0.1757 C.ar    1  LIG1        0.1567
     34 O          -6.1623   -3.7285    0.1217 O.2     1  LIG1       -0.4519
     35 C          -7.6536   -0.6152    1.2140 C.1     1  LIG1       -0.0658
     36 C          -7.9875    0.4864    1.5898 C.1     1  LIG1       -0.1138
     37 H          -8.2704    1.4572    1.9257 H       1  LIG1        0.1232
     38 H          -9.2952   -2.9691    0.7158 H       1  LIG1        0.0668
     39 C          -7.7822   -5.4297   -0.1835 C.ar    1  LIG1        0.1281
     40 C          -9.0017   -6.0945   -0.3045 C.ar    1  LIG1        0.1897
     41 C          -8.7137   -7.4359   -0.6803 C.ar    1  LIG1        0.1769
     42 C          -7.3377   -7.5568   -0.7822 C.ar    1  LIG1        0.0480
     43 N          -6.7864   -6.3365   -0.4711 N.ar    1  LIG1       -0.3522
     44 H          -5.8041   -6.1101   -0.4362 H       1  LIG1        0.1656
     45 H          -6.7276   -8.4098   -1.0381 H       1  LIG1        0.0845
     46 O         -10.2078   -5.5159   -0.0350 O.3     1  LIG1       -0.4894
     47 C         -11.2085   -5.6809   -1.0467 C.3     1  LIG1        0.0791
     48 H         -12.0887   -5.1415   -0.6922 H       1  LIG1        0.0660
     49 H         -10.8755   -5.2507   -1.9994 H       1  LIG1        0.0660
     50 H         -11.4558   -6.7361   -1.1928 H       1  LIG1        0.0660
     51 O          -9.6805   -8.3858   -0.8826 O.3     1  LIG1       -0.5023
     52 H          -9.2586   -9.2071   -1.1641 H       1  LIG1        0.2923
@<TRIPOS>BOND
     1    49    47    1
     2    14    13    1
     3    10     8    1
     4    16    13    1
     5    13    12    1
     6    13    15    1
     7    12     3    1
     8    50    47    1
     9    52    51    1
    10    47    48    1
    11    47    46    1
    12    45    42    1
    13    51    41    1
    14    42    41   ar
    15    42    43   ar
    16    41    40   ar
    17     8    11    1
    18     8     9    1
    19     8     2    1
    20    43    44    1
    21    43    39   ar
    22     3     2   ar
    23     3     4   ar
    24    40    39   ar
    25    40    46    1
    26    39    33    1
    27     2     1   ar
    28    34    33   ar
    29    34    30   ar
    30    33    32   ar
    31     4    19    1
    32     4     5   ar
    33    19    17   ar
    34    19    22   ar
    35    24    22    1
    36    21    18    1
    37    18    17   ar
    38    18    20   ar
    39    17    26    1
    40    22    23   ar
    41    30    20    1
    42    30    31   ar
    43    20    23   ar
    44    23    27    1
    45    26    25    3
    46    32    38    1
    47    32    31   ar
    48    27    28    3
    49    28    29    1
    50    31    35    1
    51     1     5   ar
    52     1     7    1
    53     5     6    1
    54    35    36    3
    55    36    37    1
