@<TRIPOS>MOLECULE
mol_data/opt/b3lyp/geoms/mol2/13la13la-13la-13la-.out
 50 53 0 0 0
SMALL
GASTEIGER

@<TRIPOS>ATOM
      1 C           1.3552   -0.6168   -0.0032 C.ar    1  LIG1        0.0444
      2 C           1.0550    0.7349   -0.0029 C.ar    1  LIG1        0.1379
      3 C          -0.3571    0.8809   -0.0012 C.ar    1  LIG1        0.0069
      4 C          -0.8992   -0.4020   -0.0004 C.ar    1  LIG1        0.0701
      5 N           0.1486   -1.2912   -0.0016 N.ar    1  LIG1       -0.3564
      6 H           0.0138   -2.2904   -0.0013 H       1  LIG1        0.1655
      7 H           2.2953   -1.1428   -0.0042 H       1  LIG1        0.0844
      8 O           1.9005    1.8072   -0.0041 O.3     1  LIG1       -0.4936
      9 C           3.2789    1.4865   -0.0058 C.3     1  LIG1        0.0789
     10 H           3.8232    2.4326   -0.0065 H       1  LIG1        0.0660
     11 H           3.5573    0.9083    0.8868 H       1  LIG1        0.0660
     12 H           3.5551    0.9081   -0.8989 H       1  LIG1        0.0660
     13 H          -0.8888    1.8216   -0.0006 H       1  LIG1        0.0676
     14 C          -2.2609   -0.8659    0.0012 C.ar    1  LIG1        0.1057
     15 C          -2.7824   -2.1573    0.0021 C.ar    1  LIG1        0.1473
     16 C          -4.1938   -2.0895    0.0035 C.ar    1  LIG1        0.0076
     17 C          -4.5385   -0.7353    0.0034 C.ar    1  LIG1        0.0706
     18 N          -3.3587   -0.0184    0.0023 N.ar    1  LIG1       -0.3488
     19 H          -3.2690    0.9828    0.0002 H       1  LIG1        0.1661
     20 O          -1.9630   -3.2592    0.0016 O.3     1  LIG1       -0.4929
     21 C          -2.6205   -4.5173    0.0025 C.3     1  LIG1        0.0789
     22 H          -1.8372   -5.2773    0.0019 H       1  LIG1        0.0660
     23 H          -3.2453   -4.6397    0.8962 H       1  LIG1        0.0660
     24 H          -3.2469   -4.6400   -0.8901 H       1  LIG1        0.0660
     25 H          -4.9048   -2.8988    0.0045 H       1  LIG1        0.0676
     26 C          -5.8410   -0.1296    0.0045 C.ar    1  LIG1        0.1057
     27 C          -7.1062   -0.7208    0.0034 C.ar    1  LIG1        0.1473
     28 C          -8.0916    0.2923    0.0047 C.ar    1  LIG1        0.0076
     29 C          -7.4272    1.5177    0.0069 C.ar    1  LIG1        0.0705
     30 N          -6.0737    1.2439    0.0068 N.ar    1  LIG1       -0.3488
     31 H          -5.3471    1.9377    0.0067 H       1  LIG1        0.1661
     32 O          -7.2704   -2.0758    0.0012 O.3     1  LIG1       -0.4929
     33 C          -8.6129   -2.5339   -0.0004 C.3     1  LIG1        0.0789
     34 H          -8.5667   -3.6243   -0.0024 H       1  LIG1        0.0660
     35 H          -9.1536   -2.1953    0.8929 H       1  LIG1        0.0660
     36 H          -9.1526   -2.1920   -0.8931 H       1  LIG1        0.0660
     37 H          -9.1631    0.1825    0.0045 H       1  LIG1        0.0676
     38 C          -7.9747    2.8495    0.0091 C.ar    1  LIG1        0.1052
     39 C          -9.3080    3.2650    0.0051 C.ar    1  LIG1        0.1467
     40 C          -9.3461    4.6851    0.0093 C.ar    1  LIG1       -0.0019
     41 C          -8.0355    5.1191    0.0161 C.ar    1  LIG1        0.0058
     42 N          -7.2211    4.0169    0.0156 N.ar    1  LIG1       -0.3566
     43 H          -6.2168    4.0638    0.0219 H       1  LIG1        0.1655
     44 H          -7.6267    6.1177    0.0212 H       1  LIG1        0.0808
     45 O         -10.3448    2.3762   -0.0019 O.3     1  LIG1       -0.4929
     46 C         -11.6445    2.9425   -0.0063 C.3     1  LIG1        0.0789
     47 H         -12.3458    2.1065   -0.0117 H       1  LIG1        0.0660
     48 H         -11.8196    3.5551    0.8880 H       1  LIG1        0.0660
     49 H         -11.8115    3.5597   -0.8991 H       1  LIG1        0.0660
     50 H         -10.2203    5.3178    0.0076 H       1  LIG1        0.0669
@<TRIPOS>BOND
     1    49    46    1
     2    12     9    1
     3    36    33    1
     4    24    21    1
     5    47    46    1
     6    10     9    1
     7    46    45    1
     8    46    48    1
     9     9     8    1
    10     9    11    1
    11     7     1    1
    12     8     2    1
    13     1     2   ar
    14     1     5   ar
    15     2     3   ar
    16    34    33    1
    17    45    39    1
    18     5     6    1
    19     5     4   ar
    20     3    13    1
    21     3     4   ar
    22     4    14    1
    23    33    32    1
    24    33    35    1
    25    19    18    1
    26    32    27    1
    27    14    15   ar
    28    14    18   ar
    29    20    15    1
    30    20    21    1
    31    22    21    1
    32    15    16   ar
    33    18    17   ar
    34    21    23    1
    35    27    26   ar
    36    27    28   ar
    37    17    16   ar
    38    17    26    1
    39    16    25    1
    40    26    30   ar
    41    37    28    1
    42    28    29   ar
    43    39    38   ar
    44    39    40   ar
    45    31    30    1
    46    30    29   ar
    47    29    38    1
    48    50    40    1
    49    38    42   ar
    50    40    41   ar
    51    42    41   ar
    52    42    43    1
    53    41    44    1
