@<TRIPOS>MOLECULE
mol_data/opt/b3lyp/geoms/mol2/13la13la13la13la.out
 50 53 0 0 0
SMALL
GASTEIGER

@<TRIPOS>ATOM
      1 C           2.0045   -0.2957   -0.1957 C.ar    1  LIG1        0.0444
      2 C           1.7371    1.0238    0.1128 C.ar    1  LIG1        0.1379
      3 C           0.3274    1.1924    0.2085 C.ar    1  LIG1        0.0069
      4 C          -0.2492   -0.0411   -0.0482 C.ar    1  LIG1        0.0701
      5 N           0.7772   -0.9511   -0.2508 N.ar    1  LIG1       -0.3564
      6 H           0.6386   -1.8073   -0.7644 H       1  LIG1        0.1655
      7 H           2.9307   -0.8263   -0.3428 H       1  LIG1        0.0844
      8 O           2.6079    2.0489    0.3360 O.3     1  LIG1       -0.4936
      9 C           3.9771    1.7206    0.1927 C.3     1  LIG1        0.0789
     10 H           4.5426    2.6325    0.3924 H       1  LIG1        0.0660
     11 H           4.2797    0.9421    0.9075 H       1  LIG1        0.0660
     12 H           4.2009    1.3698   -0.8247 H       1  LIG1        0.0660
     13 H          -0.1965    2.0997    0.4646 H       1  LIG1        0.0676
     14 C          -1.6284   -0.4515   -0.0936 C.ar    1  LIG1        0.1057
     15 C          -2.7967    0.2710   -0.3023 C.ar    1  LIG1        0.1473
     16 C          -3.9022   -0.6217   -0.2715 C.ar    1  LIG1        0.0076
     17 C          -3.3962   -1.8927   -0.0307 C.ar    1  LIG1        0.0706
     18 N          -2.0115   -1.7929    0.0292 N.ar    1  LIG1       -0.3488
     19 H          -1.4711   -2.4271    0.6003 H       1  LIG1        0.1661
     20 O          -2.7878    1.6145   -0.5274 O.3     1  LIG1       -0.4929
     21 C          -4.0498    2.2127   -0.7736 C.3     1  LIG1        0.0789
     22 H          -3.8602    3.2756   -0.9319 H       1  LIG1        0.0660
     23 H          -4.5271    1.7926   -1.6688 H       1  LIG1        0.0660
     24 H          -4.7281    2.0894    0.0808 H       1  LIG1        0.0660
     25 H          -4.9444   -0.3949   -0.4284 H       1  LIG1        0.0676
     26 C          -4.0651   -3.1528    0.1226 C.ar    1  LIG1        0.1057
     27 C          -5.3978   -3.4571    0.3806 C.ar    1  LIG1        0.1473
     28 C          -5.5408   -4.8687    0.4580 C.ar    1  LIG1        0.0076
     29 C          -4.2879   -5.4206    0.2346 C.ar    1  LIG1        0.0705
     30 N          -3.3850   -4.3758    0.0758 N.ar    1  LIG1       -0.3488
     31 H          -2.5678   -4.4807   -0.5087 H       1  LIG1        0.1661
     32 O          -6.3418   -2.4893    0.5508 O.3     1  LIG1       -0.4929
     33 C          -7.6485   -2.9439    0.8665 C.3     1  LIG1        0.0789
     34 H          -8.2680   -2.0515    0.9693 H       1  LIG1        0.0660
     35 H          -8.0570   -3.5787    0.0696 H       1  LIG1        0.0660
     36 H          -7.6618   -3.5047    1.8102 H       1  LIG1        0.0660
     37 H          -6.4318   -5.4348    0.6772 H       1  LIG1        0.0676
     38 C          -3.8667   -6.7956    0.1809 C.ar    1  LIG1        0.1052
     39 C          -4.5847   -7.9637   -0.0672 C.ar    1  LIG1        0.1467
     40 C          -3.6837   -9.0645   -0.0356 C.ar    1  LIG1       -0.0019
     41 C          -2.4324   -8.5492    0.2398 C.ar    1  LIG1        0.0058
     42 N          -2.5429   -7.1867    0.3461 N.ar    1  LIG1       -0.3566
     43 H          -1.8366   -6.5863    0.7400 H       1  LIG1        0.1655
     44 H          -1.4832   -9.0469    0.3658 H       1  LIG1        0.0808
     45 O          -5.9270   -7.9512   -0.3104 O.3     1  LIG1       -0.4929
     46 C          -6.5120   -9.2043   -0.6234 C.3     1  LIG1        0.0789
     47 H          -7.5708   -9.0133   -0.8057 H       1  LIG1        0.0660
     48 H          -6.0638   -9.6445   -1.5239 H       1  LIG1        0.0660
     49 H          -6.4120   -9.9151    0.2078 H       1  LIG1        0.0660
     50 H          -3.9139  -10.1051   -0.2064 H       1  LIG1        0.0669
@<TRIPOS>BOND
     1    23    21    1
     2    48    46    1
     3    22    21    1
     4    12     9    1
     5    47    46    1
     6    21    20    1
     7    21    24    1
     8     6     5    1
     9    46    45    1
    10    46    49    1
    11    20    15    1
    12    31    30    1
    13    25    16    1
    14     7     1    1
    15    45    39    1
    16    15    16   ar
    17    15    14   ar
    18    16    17   ar
    19     5     1   ar
    20     5     4   ar
    21    50    40    1
    22     1     2   ar
    23    14     4    1
    24    14    18   ar
    25    39    40   ar
    26    39    38   ar
    27     4     3   ar
    28    40    41   ar
    29    17    18   ar
    30    17    26    1
    31    18    19    1
    32    35    33    1
    33    30    26   ar
    34    30    29   ar
    35     2     3   ar
    36     2     8    1
    37    26    27   ar
    38    38    29    1
    39    38    42   ar
    40     9     8    1
    41     9    10    1
    42     9    11    1
    43     3    13    1
    44    29    28   ar
    45    41    42   ar
    46    41    44    1
    47    42    43    1
    48    27    28   ar
    49    27    32    1
    50    28    37    1
    51    32    33    1
    52    33    34    1
    53    33    36    1
