@<TRIPOS>MOLECULE
mol_data/opt/b3lyp/geoms/mol2/13la13la13la13la-.out
 50 53 0 0 0
SMALL
GASTEIGER

@<TRIPOS>ATOM
      1 C           1.9128   -0.4117    0.2048 C.ar    1  LIG1        0.0444
      2 C           1.5833    0.9084    0.4436 C.ar    1  LIG1        0.1379
      3 C           0.1684    1.0431    0.3795 C.ar    1  LIG1        0.0069
      4 C          -0.3483   -0.2115    0.0975 C.ar    1  LIG1        0.0701
      5 N           0.7145   -1.0984    0.0330 N.ar    1  LIG1       -0.3564
      6 H           0.6514   -1.9780   -0.4551 H       1  LIG1        0.1655
      7 H           2.8611   -0.9224    0.1759 H       1  LIG1        0.0844
      8 O           2.4016    1.9611    0.7305 O.3     1  LIG1       -0.4936
      9 C           3.7845    1.6622    0.7523 C.3     1  LIG1        0.0789
     10 H           4.3047    2.5927    0.9864 H       1  LIG1        0.0660
     11 H           4.0205    0.9114    1.5200 H       1  LIG1        0.0660
     12 H           4.1296    1.2886   -0.2223 H       1  LIG1        0.0660
     13 H          -0.4014    1.9430    0.5494 H       1  LIG1        0.0676
     14 C          -1.7047   -0.6589   -0.0858 C.ar    1  LIG1        0.1057
     15 C          -2.8599    0.0267   -0.4410 C.ar    1  LIG1        0.1473
     16 C          -3.9392   -0.8953   -0.5096 C.ar    1  LIG1        0.0076
     17 C          -3.4317   -2.1461   -0.1823 C.ar    1  LIG1        0.0706
     18 N          -2.0670   -2.0056    0.0312 N.ar    1  LIG1       -0.3488
     19 H          -1.5695   -2.6162    0.6636 H       1  LIG1        0.1661
     20 O          -2.8590    1.3648   -0.6988 O.3     1  LIG1       -0.4929
     21 C          -4.0997    1.9209   -1.1009 C.3     1  LIG1        0.0789
     22 H          -3.9205    2.9845   -1.2668 H       1  LIG1        0.0660
     23 H          -4.4632    1.4654   -2.0315 H       1  LIG1        0.0660
     24 H          -4.8665    1.8003   -0.3243 H       1  LIG1        0.0660
     25 H          -4.9625   -0.7011   -0.7876 H       1  LIG1        0.0676
     26 C          -4.0859   -3.4200   -0.0701 C.ar    1  LIG1        0.1057
     27 C          -5.4366   -3.7436    0.0733 C.ar    1  LIG1        0.1473
     28 C          -5.5585   -5.1502    0.1895 C.ar    1  LIG1        0.0076
     29 C          -4.2691   -5.6792    0.1087 C.ar    1  LIG1        0.0705
     30 N          -3.3997   -4.6244   -0.0318 N.ar    1  LIG1       -0.3488
     31 H          -2.4248   -4.7589   -0.2552 H       1  LIG1        0.1661
     32 O          -6.4095   -2.7873    0.1030 O.3     1  LIG1       -0.4929
     33 C          -7.7303   -3.2527    0.3177 C.3     1  LIG1        0.0789
     34 H          -8.3717   -2.3699    0.3275 H       1  LIG1        0.0660
     35 H          -8.0565   -3.9260   -0.4866 H       1  LIG1        0.0660
     36 H          -7.8219   -3.7763    1.2788 H       1  LIG1        0.0660
     37 H          -6.4714   -5.7119    0.3210 H       1  LIG1        0.0676
     38 C          -3.7854   -7.0341    0.1291 C.ar    1  LIG1        0.1052
     39 C          -2.4896   -7.5305   -0.0065 C.ar    1  LIG1        0.1467
     40 C          -2.5298   -8.9475    0.0732 C.ar    1  LIG1       -0.0019
     41 C          -3.8558   -9.2928    0.2578 C.ar    1  LIG1        0.0058
     42 N          -4.5978   -8.1425    0.2893 N.ar    1  LIG1       -0.3566
     43 H          -5.5949   -8.0980    0.4170 H       1  LIG1        0.1655
     44 H          -4.3170  -10.2619    0.3681 H       1  LIG1        0.0808
     45 O          -1.4141   -6.6944   -0.1875 O.3     1  LIG1       -0.4929
     46 C          -0.1588   -7.3333   -0.3644 C.3     1  LIG1        0.0789
     47 H           0.5776   -6.5404   -0.5053 H       1  LIG1        0.0660
     48 H           0.1136   -7.9270    0.5174 H       1  LIG1        0.0660
     49 H          -0.1636   -7.9846   -1.2476 H       1  LIG1        0.0660
     50 H          -1.7013   -9.6357    0.0050 H       1  LIG1        0.0669
@<TRIPOS>BOND
     1    23    21    1
     2    22    21    1
     3    49    46    1
     4    21    20    1
     5    21    24    1
     6    25    16    1
     7    20    15    1
     8    16    15   ar
     9    16    17   ar
    10    47    46    1
    11    35    33    1
    12     6     5    1
    13    15    14   ar
    14    46    45    1
    15    46    48    1
    16    31    30    1
    17    12     9    1
    18    45    39    1
    19    17    26    1
    20    17    18   ar
    21    14    18   ar
    22    14     4    1
    23    26    30   ar
    24    26    27   ar
    25    30    29   ar
    26    39    40   ar
    27    39    38   ar
    28    50    40    1
    29    18    19    1
    30     5     4   ar
    31     5     1   ar
    32    40    41   ar
    33    27    32    1
    34    27    28   ar
    35     4     3   ar
    36    32    33    1
    37    29    38    1
    38    29    28   ar
    39    38    42   ar
    40     7     1    1
    41    28    37    1
    42     1     2   ar
    43    41    42   ar
    44    41    44    1
    45    42    43    1
    46    33    34    1
    47    33    36    1
    48     3     2   ar
    49     3    13    1
    50     2     8    1
    51     8     9    1
    52     9    10    1
    53     9    11    1
