@<TRIPOS>MOLECULE
mol_data/opt/b3lyp/geoms/mol2/13la13la13la-13la-.out
 50 53 0 0 0
SMALL
GASTEIGER

@<TRIPOS>ATOM
      1 C           1.4259   -0.3573   -0.2608 C.ar    1  LIG1        0.0444
      2 C           1.1389    0.7646    0.4942 C.ar    1  LIG1        0.1379
      3 C          -0.2501    0.7613    0.7991 C.ar    1  LIG1        0.0069
      4 C          -0.7933   -0.3747    0.2180 C.ar    1  LIG1        0.0701
      5 N           0.2367   -1.0625   -0.3961 N.ar    1  LIG1       -0.3564
      6 H           0.0887   -1.7718   -1.0963 H       1  LIG1        0.1655
      7 H           2.3472   -0.7244   -0.6817 H       1  LIG1        0.0844
      8 O           1.9796    1.7418    0.9378 O.3     1  LIG1       -0.4936
      9 C           3.3333    1.5968    0.5501 C.3     1  LIG1        0.0789
     10 H           3.8743    2.4456    0.9719 H       1  LIG1        0.0660
     11 H           3.7635    0.6628    0.9383 H       1  LIG1        0.0660
     12 H           3.4402    1.6055   -0.5439 H       1  LIG1        0.0660
     13 H          -0.7787    1.4765    1.4100 H       1  LIG1        0.0676
     14 C          -2.1520   -0.8622    0.2030 C.ar    1  LIG1        0.1057
     15 C          -3.3649   -0.1921    0.3534 C.ar    1  LIG1        0.1473
     16 C          -4.4195   -1.1292    0.2293 C.ar    1  LIG1        0.0076
     17 C          -3.8384   -2.3768    0.0144 C.ar    1  LIG1        0.0706
     18 N          -2.4716   -2.1912   -0.0176 N.ar    1  LIG1       -0.3488
     19 H          -1.8260   -2.9673   -0.0166 H       1  LIG1        0.1661
     20 O          -3.5200    1.1510    0.5925 O.3     1  LIG1       -0.4929
     21 C          -3.4094    1.9705   -0.5728 C.3     1  LIG1        0.0789
     22 H          -3.6039    2.9966   -0.2517 H       1  LIG1        0.0660
     23 H          -2.4045    1.9123   -1.0072 H       1  LIG1        0.0660
     24 H          -4.1483    1.6810   -1.3313 H       1  LIG1        0.0660
     25 H          -5.4744   -0.9016    0.2895 H       1  LIG1        0.0676
     26 C          -4.4055   -3.6888   -0.1288 C.ar    1  LIG1        0.1057
     27 C          -3.7950   -4.9201   -0.3518 C.ar    1  LIG1        0.1473
     28 C          -4.7869   -5.9309   -0.3910 C.ar    1  LIG1        0.0076
     29 C          -6.0106   -5.3033   -0.1827 C.ar    1  LIG1        0.0705
     30 N          -5.7689   -3.9472   -0.0565 N.ar    1  LIG1       -0.3488
     31 H          -6.4161   -3.3063    0.3749 H       1  LIG1        0.1661
     32 O          -2.4358   -5.0286   -0.5114 O.3     1  LIG1       -0.4929
     33 C          -1.9347   -6.3495   -0.6604 C.3     1  LIG1        0.0789
     34 H          -0.8499   -6.2629   -0.7430 H       1  LIG1        0.0660
     35 H          -2.1853   -6.9713    0.2080 H       1  LIG1        0.0660
     36 H          -2.3301   -6.8250   -1.5668 H       1  LIG1        0.0660
     37 H          -4.6605   -6.9867   -0.5685 H       1  LIG1        0.0676
     38 C          -7.3418   -5.8497   -0.1245 C.ar    1  LIG1        0.1052
     39 C          -7.7875   -7.1364    0.1677 C.ar    1  LIG1        0.1467
     40 C          -9.2098   -7.1444    0.1230 C.ar    1  LIG1       -0.0019
     41 C          -9.6063   -5.8628   -0.2040 C.ar    1  LIG1        0.0058
     42 N          -8.4844   -5.0850   -0.3303 N.ar    1  LIG1       -0.3566
     43 H          -8.4711   -4.1725   -0.7570 H       1  LIG1        0.1655
     44 H         -10.5931   -5.4523   -0.3540 H       1  LIG1        0.0808
     45 O          -6.9254   -8.1540    0.4573 O.3     1  LIG1       -0.4929
     46 C          -7.5239   -9.3891    0.8134 C.3     1  LIG1        0.0789
     47 H          -6.7055  -10.0778    1.0294 H       1  LIG1        0.0660
     48 H          -8.1562   -9.2877    1.7054 H       1  LIG1        0.0660
     49 H          -8.1298   -9.7954   -0.0075 H       1  LIG1        0.0660
     50 H          -9.8672   -7.9777    0.3192 H       1  LIG1        0.0669
@<TRIPOS>BOND
     1    36    33    1
     2    24    21    1
     3     6     5    1
     4    23    21    1
     5    43    42    1
     6    34    33    1
     7     7     1    1
     8    33    32    1
     9    33    35    1
    10    21    22    1
    11    21    20    1
    12    37    28    1
    13    12     9    1
    14    32    27    1
    15     5     1   ar
    16     5     4   ar
    17    28    27   ar
    18    28    29   ar
    19    44    41    1
    20    27    26   ar
    21    42    41   ar
    22    42    38   ar
    23     1     2   ar
    24    41    40   ar
    25    29    38    1
    26    29    30   ar
    27    26    30   ar
    28    26    17    1
    29    38    39   ar
    30    30    31    1
    31    18    19    1
    32    18    17   ar
    33    18    14   ar
    34    49    46    1
    35    17    16   ar
    36    40    39   ar
    37    40    50    1
    38    39    45    1
    39    14     4    1
    40    14    15   ar
    41     4     3   ar
    42    16    25    1
    43    16    15   ar
    44    15    20    1
    45    45    46    1
    46     2     3   ar
    47     2     8    1
    48     9     8    1
    49     9    11    1
    50     9    10    1
    51     3    13    1
    52    46    47    1
    53    46    48    1
