@<TRIPOS>MOLECULE
mol_data/opt/b3lyp/geoms/mol2/13la13la.out
 26 27 0 0 0
SMALL
GASTEIGER

@<TRIPOS>ATOM
      1 C           1.6051   -0.5735    0.1567 C.ar    1  LIG1        0.0444
      2 C           1.3326    0.6929   -0.3220 C.ar    1  LIG1        0.1379
      3 C          -0.0761    0.8247   -0.4798 C.ar    1  LIG1        0.0069
      4 C          -0.6440   -0.3746   -0.0885 C.ar    1  LIG1        0.0701
      5 N           0.3851   -1.2344    0.2604 N.ar    1  LIG1       -0.3564
      6 H           0.2459   -2.0285    0.8656 H       1  LIG1        0.1655
      7 H           2.5320   -1.0671    0.3979 H       1  LIG1        0.0844
      8 O           2.1972    1.6956   -0.6462 O.3     1  LIG1       -0.4936
      9 C           3.5660    1.4065   -0.4299 C.3     1  LIG1        0.0789
     10 H           4.1265    2.2934   -0.7300 H       1  LIG1        0.0660
     11 H           3.7676    1.1902    0.6288 H       1  LIG1        0.0660
     12 H           3.8940    0.5480   -1.0331 H       1  LIG1        0.0660
     13 H          -0.6031    1.6839   -0.8638 H       1  LIG1        0.0676
     14 C          -2.0253   -0.7956   -0.0373 C.ar    1  LIG1        0.1052
     15 C          -3.2006   -0.0701    0.1286 C.ar    1  LIG1        0.1467
     16 C          -4.2968   -0.9793    0.1357 C.ar    1  LIG1       -0.0019
     17 C          -3.7684   -2.2437   -0.0335 C.ar    1  LIG1        0.0058
     18 N          -2.4048   -2.1306   -0.1148 N.ar    1  LIG1       -0.3566
     19 H          -1.7885   -2.8597   -0.4365 H       1  LIG1        0.1655
     20 H          -4.2574   -3.2035   -0.1010 H       1  LIG1        0.0808
     21 O          -3.2028    1.2863    0.2742 O.3     1  LIG1       -0.4929
     22 C          -4.4668    1.8828    0.5057 C.3     1  LIG1        0.0789
     23 H          -4.2866    2.9534    0.6161 H       1  LIG1        0.0660
     24 H          -5.1525    1.7182   -0.3365 H       1  LIG1        0.0660
     25 H          -4.9333    1.4984    1.4229 H       1  LIG1        0.0660
     26 H          -5.3424   -0.7439    0.2631 H       1  LIG1        0.0669
@<TRIPOS>BOND
     1    12     9    1
     2    13     3    1
     3    10     9    1
     4     8     9    1
     5     8     2    1
     6     3     2   ar
     7     3     4   ar
     8    19    18    1
     9     9    11    1
    10    24    22    1
    11     2     1   ar
    12    18    14   ar
    13    18    17   ar
    14    20    17    1
    15     4    14    1
    16     4     5   ar
    17    14    15   ar
    18    17    16   ar
    19    15    16   ar
    20    15    21    1
    21    16    26    1
    22     1     5   ar
    23     1     7    1
    24     5     6    1
    25    21    22    1
    26    22    23    1
    27    22    25    1
