@<TRIPOS>MOLECULE
mol_data/opt/b3lyp/geoms/mol2/13la13la13la-13la.out
 50 53 0 0 0
SMALL
GASTEIGER

@<TRIPOS>ATOM
      1 C           1.6509   -0.3195   -0.3826 C.ar    1  LIG1        0.0444
      2 C           1.3599    0.8349    0.3199 C.ar    1  LIG1        0.1379
      3 C          -0.0218    0.8238    0.6566 C.ar    1  LIG1        0.0069
      4 C          -0.5564   -0.3501    0.1478 C.ar    1  LIG1        0.0701
      5 N           0.4725   -1.0520   -0.4529 N.ar    1  LIG1       -0.3564
      6 H           0.3201   -1.7954   -1.1156 H       1  LIG1        0.1655
      7 H           2.5694   -0.6922   -0.8048 H       1  LIG1        0.0844
      8 O           2.1932    1.8474    0.6938 O.3     1  LIG1       -0.4936
      9 C           3.5411    1.7018    0.2873 C.3     1  LIG1        0.0789
     10 H           4.0771    2.5792    0.6533 H       1  LIG1        0.0660
     11 H           3.9929    0.7955    0.7148 H       1  LIG1        0.0660
     12 H           3.6271    1.6546   -0.8077 H       1  LIG1        0.0660
     13 H          -0.5505    1.5611    1.2403 H       1  LIG1        0.0676
     14 C          -1.9054   -0.8623    0.1870 C.ar    1  LIG1        0.1057
     15 C          -3.1265   -0.2074    0.3330 C.ar    1  LIG1        0.1473
     16 C          -4.1669   -1.1670    0.2752 C.ar    1  LIG1        0.0076
     17 C          -3.5676   -2.4121    0.1045 C.ar    1  LIG1        0.0706
     18 N          -2.2046   -2.2052    0.0333 N.ar    1  LIG1       -0.3488
     19 H          -1.5461   -2.9694    0.0741 H       1  LIG1        0.1661
     20 O          -3.2920    1.1437    0.5160 O.3     1  LIG1       -0.4929
     21 C          -3.3120    1.8977   -0.6970 C.3     1  LIG1        0.0789
     22 H          -3.4891    2.9384   -0.4152 H       1  LIG1        0.0660
     23 H          -2.3550    1.8246   -1.2272 H       1  LIG1        0.0660
     24 H          -4.1180    1.5592   -1.3611 H       1  LIG1        0.0660
     25 H          -5.2238   -0.9593    0.3622 H       1  LIG1        0.0676
     26 C          -4.1142   -3.7395    0.0266 C.ar    1  LIG1        0.1057
     27 C          -3.4738   -4.9740   -0.0889 C.ar    1  LIG1        0.1473
     28 C          -4.4490   -5.9992   -0.1114 C.ar    1  LIG1        0.0076
     29 C          -5.6926   -5.3708   -0.0087 C.ar    1  LIG1        0.0705
     30 N          -5.4660   -4.0190    0.0712 N.ar    1  LIG1       -0.3488
     31 H          -6.2124   -3.3450    0.1558 H       1  LIG1        0.1661
     32 O          -2.1049   -5.0706   -0.1609 O.3     1  LIG1       -0.4929
     33 C          -1.5773   -6.3872   -0.1820 C.3     1  LIG1        0.0789
     34 H          -0.4910   -6.2878   -0.2140 H       1  LIG1        0.0660
     35 H          -1.8641   -6.9465    0.7178 H       1  LIG1        0.0660
     36 H          -1.9158   -6.9381   -1.0691 H       1  LIG1        0.0660
     37 H          -4.2740   -7.0617   -0.1916 H       1  LIG1        0.0676
     38 C          -7.0319   -5.8969    0.0206 C.ar    1  LIG1        0.1052
     39 C          -8.2552   -5.2364    0.1225 C.ar    1  LIG1        0.1467
     40 C          -9.2988   -6.1991    0.1106 C.ar    1  LIG1       -0.0019
     41 C          -8.6909   -7.4360    0.0013 C.ar    1  LIG1        0.0058
     42 N          -7.3361   -7.2448   -0.0524 N.ar    1  LIG1       -0.3566
     43 H          -6.6495   -7.9764   -0.1292 H       1  LIG1        0.1655
     44 H          -9.1205   -8.4249   -0.0415 H       1  LIG1        0.0808
     45 O          -8.3257   -3.8688    0.2137 O.3     1  LIG1       -0.4929
     46 C          -9.6298   -3.3187    0.3249 C.3     1  LIG1        0.0789
     47 H          -9.5055   -2.2367    0.3899 H       1  LIG1        0.0660
     48 H         -10.2406   -3.5616   -0.5539 H       1  LIG1        0.0660
     49 H         -10.1390   -3.6804    1.2272 H       1  LIG1        0.0660
     50 H         -10.3612   -6.0203    0.1735 H       1  LIG1        0.0669
@<TRIPOS>BOND
     1    24    21    1
     2    23    21    1
     3     6     5    1
     4    36    33    1
     5    12     9    1
     6     7     1    1
     7    21    22    1
     8    21    20    1
     9    48    46    1
    10     5     1   ar
    11     5     4   ar
    12     1     2   ar
    13    34    33    1
    14    37    28    1
    15    33    32    1
    16    33    35    1
    17    32    27    1
    18    43    42    1
    19    28    27   ar
    20    28    29   ar
    21    27    26   ar
    22    42    41   ar
    23    42    38   ar
    24    44    41    1
    25    29    38    1
    26    29    30   ar
    27    41    40   ar
    28    38    39   ar
    29    26    30   ar
    30    26    17    1
    31    18    19    1
    32    18    17   ar
    33    18    14   ar
    34    30    31    1
    35    17    16   ar
    36    40    39   ar
    37    40    50    1
    38    39    45    1
    39     4    14    1
    40     4     3   ar
    41    14    15   ar
    42    45    46    1
    43    16    15   ar
    44    16    25    1
    45     9    10    1
    46     9     8    1
    47     9    11    1
    48     2     3   ar
    49     2     8    1
    50    46    47    1
    51    46    49    1
    52    15    20    1
    53     3    13    1
