@<TRIPOS>MOLECULE
mol_data/opt/b3lyp/geoms/mol2/13la4ed-6ea-4df.out
 57 60 0 0 0
SMALL
GASTEIGER

@<TRIPOS>ATOM
      1 C           1.2603    0.1655   -0.9409 C.ar    1  LIG1        0.0069
      2 C           1.1546    0.9998    0.1511 C.ar    1  LIG1       -0.0119
      3 C          -0.1888    0.8811    0.6362 C.ar    1  LIG1        0.0532
      4 C          -0.8656   -0.0285   -0.1814 C.ar    1  LIG1        0.0713
      5 N           0.0693   -0.4843   -1.1172 N.ar    1  LIG1       -0.3588
      6 H          -0.2005   -0.9464   -1.9708 H       1  LIG1        0.1654
      7 H           2.0980   -0.0077   -1.6013 H       1  LIG1        0.0810
      8 C           2.2336    1.8437    0.7595 C.3     1  LIG1       -0.0365
      9 H           2.4648    1.5357    1.7874 H       1  LIG1        0.0279
     10 H           1.9538    2.9054    0.7984 H       1  LIG1        0.0279
     11 H           3.1592    1.7763    0.1804 H       1  LIG1        0.0279
     12 N          -0.6505    1.4791    1.8121 N.pl3   1  LIG1       -0.3561
     13 H          -0.1291    2.3148    2.0478 H       1  LIG1        0.1424
     14 H          -1.6452    1.6762    1.7751 H       1  LIG1        0.1424
     15 C          -3.3586    0.0847    0.2289 C.ar    1  LIG1        0.1268
     16 C          -4.6033   -0.5402    0.2281 C.ar    1  LIG1       -0.0082
     17 C          -2.1973   -0.6222   -0.1418 C.ar    1  LIG1        0.0450
     18 C          -4.7666   -1.8764   -0.1497 C.ar    1  LIG1        0.0300
     19 H          -5.4817    0.0236    0.5368 H       1  LIG1        0.0661
     20 C          -2.3714   -1.9687   -0.5340 C.ar    1  LIG1       -0.0067
     21 C          -3.6194   -2.5882   -0.5552 C.ar    1  LIG1        0.1287
     22 H          -1.4856   -2.5351   -0.7920 H       1  LIG1        0.0662
     23 O          -3.2380    1.4178    0.5716 O.3     1  LIG1       -0.5061
     24 H          -4.1156    1.7618    0.7826 H       1  LIG1        0.2922
     25 O          -3.8285   -3.8754   -0.9648 O.3     1  LIG1       -0.4945
     26 C          -2.7026   -4.6970   -1.2180 C.3     1  LIG1        0.0788
     27 H          -3.0994   -5.6841   -1.4591 H       1  LIG1        0.0660
     28 H          -2.1131   -4.3306   -2.0692 H       1  LIG1        0.0660
     29 H          -2.0520   -4.7729   -0.3378 H       1  LIG1        0.0660
     30 C          -6.4746   -3.5886    0.6770 C.ar    1  LIG1        0.1217
     31 C          -6.1182   -2.4921   -0.1485 C.ar    1  LIG1        0.0208
     32 C          -7.1241   -1.9856   -0.9658 C.ar    1  LIG1       -0.0338
     33 C          -8.4162   -2.5355   -0.9596 C.ar    1  LIG1        0.0513
     34 C          -8.6822   -3.6106   -0.0695 C.ar    1  LIG1        0.0895
     35 N          -7.7099   -4.1155    0.7006 N.ar    1  LIG1       -0.2365
     36 H          -6.9016   -1.1690   -1.6451 H       1  LIG1        0.0637
     37 C          -5.5297   -4.1750    1.5830 C.1     1  LIG1       -0.0492
     38 C          -4.7516   -4.6610    2.3708 C.1     1  LIG1       -0.1124
     39 H          -4.0711   -5.0894    3.0696 H       1  LIG1        0.1232
     40 C          -9.3802   -2.0357   -1.8851 C.1     1  LIG1       -0.0675
     41 C         -10.1749   -1.5792   -2.6774 C.1     1  LIG1       -0.1138
     42 H         -10.8768   -1.2080   -3.3880 H       1  LIG1        0.1232
     43 C         -11.2150   -3.6208    0.3313 C.ar    1  LIG1        0.0340
     44 C         -12.3725   -4.4019    0.4796 C.ar    1  LIG1       -0.0387
     45 C         -10.0033   -4.2936    0.0431 C.ar    1  LIG1        0.0239
     46 C         -12.3538   -5.7856    0.3608 C.ar    1  LIG1       -0.0393
     47 H         -13.3130   -3.9034    0.7041 H       1  LIG1        0.0637
     48 C          -9.9988   -5.6919   -0.0657 C.ar    1  LIG1       -0.0301
     49 C         -11.1568   -6.4596    0.0792 C.ar    1  LIG1        0.0253
     50 H          -9.0489   -6.1834   -0.2545 H       1  LIG1        0.0643
     51 H         -13.2750   -6.3489    0.4893 H       1  LIG1        0.0636
     52 N         -11.2713   -2.2360    0.5833 N.pl3   1  LIG1       -0.3575
     53 H         -10.8123   -1.6701   -0.1206 H       1  LIG1        0.1423
     54 H         -12.2243   -1.9140    0.7013 H       1  LIG1        0.1423
     55 N         -11.1134   -7.8645    0.0139 N.pl3   1  LIG1       -0.3579
     56 H         -11.9771   -8.2848   -0.3049 H       1  LIG1        0.1423
     57 H         -10.3305   -8.2222   -0.5182 H       1  LIG1        0.1423
@<TRIPOS>BOND
     1    42    41    1
     2    41    40    3
     3    28    26    1
     4     6     5    1
     5    40    33    1
     6    36    32    1
     7     7     1    1
     8    27    26    1
     9    26    25    1
    10    26    29    1
    11     5     1   ar
    12     5     4   ar
    13    32    33   ar
    14    32    31   ar
    15    25    21    1
    16    33    34   ar
    17     1     2   ar
    18    22    20    1
    19    21    20   ar
    20    21    18   ar
    21    20    17   ar
    22    57    55    1
    23    56    55    1
    24    50    48    1
    25     4    17    1
    26     4     3   ar
    27    18    31    1
    28    18    16   ar
    29    31    30   ar
    30    17    15   ar
    31    53    52    1
    32    34    45    1
    33    34    35   ar
    34    48    45   ar
    35    48    49   ar
    36    55    49    1
    37    45    43   ar
    38    49    46   ar
    39     2     3   ar
    40     2     8    1
    41    11     8    1
    42    16    15   ar
    43    16    19    1
    44    15    23    1
    45    43    44   ar
    46    43    52    1
    47    46    44   ar
    48    46    51    1
    49    44    47    1
    50    23    24    1
    51    52    54    1
    52     3    12    1
    53    30    35   ar
    54    30    37    1
    55     8    10    1
    56     8     9    1
    57    37    38    3
    58    14    12    1
    59    12    13    1
    60    38    39    1
