@<TRIPOS>MOLECULE
mol_data/opt/b3lyp/geoms/mol2/13la12ff-6ai4li-.out
 50 53 0 0 0
SMALL
GASTEIGER

@<TRIPOS>ATOM
      1 C           1.4384   -0.2230   -0.3256 C.ar    1  LIG1        0.0444
      2 C           1.0605    1.0678    0.0097 C.ar    1  LIG1        0.1379
      3 C          -0.3450    1.0847    0.1891 C.ar    1  LIG1        0.0054
      4 C          -0.8109   -0.2026   -0.0470 C.ar    1  LIG1        0.0512
      5 N           0.2854   -0.9758   -0.3839 N.ar    1  LIG1       -0.3576
      6 H           0.2736   -1.9818   -0.4323 H       1  LIG1        0.1654
      7 H           2.4045   -0.6594   -0.5194 H       1  LIG1        0.0844
      8 O           1.8284    2.1815    0.1497 O.3     1  LIG1       -0.4936
      9 C           3.2171    1.9966   -0.0687 C.3     1  LIG1        0.0789
     10 H           3.6878    2.9707    0.0717 H       1  LIG1        0.0660
     11 H           3.6431    1.2814    0.6484 H       1  LIG1        0.0660
     12 H           3.4174    1.6398   -1.0883 H       1  LIG1        0.0660
     13 H          -0.9421    1.9507    0.4220 H       1  LIG1        0.0675
     14 C          -3.2248   -0.2703    0.7373 C.ar    1  LIG1        0.0344
     15 C          -4.4874   -0.8859    0.6701 C.ar    1  LIG1       -0.0367
     16 C          -2.1559   -0.7683   -0.0605 C.ar    1  LIG1        0.0150
     17 C          -4.7501   -1.9921   -0.1371 C.ar    1  LIG1        0.0033
     18 H          -5.2790   -0.4941    1.2997 H       1  LIG1        0.0636
     19 C          -2.4345   -1.8620   -0.8958 C.ar    1  LIG1       -0.0335
     20 C          -3.6901   -2.4759   -0.9395 C.ar    1  LIG1        0.0602
     21 H          -1.6671   -2.2251   -1.5706 H       1  LIG1        0.0637
     22 C          -3.0766    0.8225    1.6435 C.1     1  LIG1       -0.0690
     23 C          -3.0271    1.7370    2.4350 C.1     1  LIG1       -0.1139
     24 H          -2.9556    2.5424    3.1292 H       1  LIG1        0.1232
     25 N          -3.9996   -4.4140   -2.6404 N.1     1  LIG1       -0.1908
     26 C          -3.8816   -3.5543   -1.8657 C.1     1  LIG1        0.0998
     27 C          -6.3900   -3.9099    0.2490 C.ar    1  LIG1        0.1215
     28 C          -6.1140   -2.5806   -0.1581 C.ar    1  LIG1        0.0173
     29 C          -7.2123   -1.8036   -0.5363 C.ar    1  LIG1       -0.0493
     30 C          -8.4932   -2.3430   -0.5474 C.ar    1  LIG1       -0.0350
     31 C          -8.6623   -3.6877   -0.1829 C.ar    1  LIG1        0.0738
     32 N          -7.6241   -4.4333    0.2270 N.ar    1  LIG1       -0.2378
     33 H          -7.0579   -0.7707   -0.8329 H       1  LIG1        0.0625
     34 C          -5.3542   -4.7635    0.7586 C.1     1  LIG1       -0.0492
     35 C          -4.4923   -5.4808    1.2099 C.1     1  LIG1       -0.1124
     36 H          -3.7328   -6.1229    1.5924 H       1  LIG1        0.1232
     37 H          -9.3326   -1.7253   -0.8352 H       1  LIG1        0.0639
     38 C         -11.1037   -4.0132   -0.9500 C.ar    1  LIG1        0.0611
     39 C         -12.3087   -4.7354   -0.8325 C.ar    1  LIG1       -0.0403
     40 C          -9.9860   -4.3789   -0.1572 C.ar    1  LIG1        0.0212
     41 C         -12.4294   -5.8038    0.0387 C.ar    1  LIG1       -0.0189
     42 H         -13.1507   -4.4444   -1.4512 H       1  LIG1        0.0632
     43 C         -10.1230   -5.4714    0.7066 C.ar    1  LIG1       -0.0098
     44 C         -11.3216   -6.1780    0.8101 C.ar    1  LIG1        0.1176
     45 H          -9.2570   -5.7644    1.2916 H       1  LIG1        0.0661
     46 H         -13.3560   -6.3591    0.1294 H       1  LIG1        0.0654
     47 N         -11.1218   -2.1148   -2.7192 N.1     1  LIG1       -0.1908
     48 C         -11.0822   -2.9615   -1.9204 C.1     1  LIG1        0.0998
     49 O         -11.4723   -7.2366    1.6481 O.3     1  LIG1       -0.5067
     50 H         -10.6364   -7.4064    2.1035 H       1  LIG1        0.2921
@<TRIPOS>BOND
     1    47    48    3
     2    25    26    3
     3    48    38    1
     4    26    20    1
     5    21    19    1
     6    42    39    1
     7    12     9    1
     8    38    39   ar
     9    38    40   ar
    10    20    19   ar
    11    20    17   ar
    12    19    16   ar
    13    37    30    1
    14    33    29    1
    15    39    41   ar
    16    30    29   ar
    17    30    31   ar
    18    29    28   ar
    19     7     1    1
    20     6     5    1
    21     5     1   ar
    22     5     4   ar
    23     1     2   ar
    24    31    40    1
    25    31    32   ar
    26    28    17    1
    27    28    27   ar
    28    40    43   ar
    29    17    15   ar
    30     9    10    1
    31     9     8    1
    32     9    11    1
    33    16     4    1
    34    16    14   ar
    35     4     3   ar
    36     2     8    1
    37     2     3   ar
    38    41    46    1
    39    41    44   ar
    40     3    13    1
    41    32    27   ar
    42    27    34    1
    43    15    14   ar
    44    15    18    1
    45    43    44   ar
    46    43    45    1
    47    14    22    1
    48    34    35    3
    49    44    49    1
    50    35    36    1
    51    22    23    3
    52    49    50    1
    53    23    24    1
