@<TRIPOS>MOLECULE
mol_data/opt/b3lyp/geoms/mol2/13la13la-13la-13la.out
 50 53 0 0 0
SMALL
GASTEIGER

@<TRIPOS>ATOM
      1 C           1.2799   -0.7043   -0.1146 C.ar    1  LIG1        0.0444
      2 C           0.9161    0.6167   -0.3150 C.ar    1  LIG1        0.1379
      3 C          -0.5002    0.7037   -0.2734 C.ar    1  LIG1        0.0069
      4 C          -0.9802   -0.5834   -0.0466 C.ar    1  LIG1        0.0701
      5 N           0.1073   -1.4188    0.0446 N.ar    1  LIG1       -0.3564
      6 H           0.0209   -2.4075    0.2219 H       1  LIG1        0.1655
      7 H           2.2432   -1.1846   -0.0715 H       1  LIG1        0.0844
      8 O           1.7105    1.7084   -0.5208 O.3     1  LIG1       -0.4936
      9 C           3.1012    1.4480   -0.5248 C.3     1  LIG1        0.0789
     10 H           3.6009    2.4031   -0.6969 H       1  LIG1        0.0660
     11 H           3.4342    1.0322    0.4369 H       1  LIG1        0.0660
     12 H           3.3759    0.7456   -1.3246 H       1  LIG1        0.0660
     13 H          -1.0777    1.6098   -0.3852 H       1  LIG1        0.0676
     14 C          -2.3192   -1.0954    0.0812 C.ar    1  LIG1        0.1057
     15 C          -2.7762   -2.3812    0.3568 C.ar    1  LIG1        0.1473
     16 C          -4.1921   -2.3803    0.3654 C.ar    1  LIG1        0.0076
     17 C          -4.5964   -1.0766    0.0859 C.ar    1  LIG1        0.0706
     18 N          -3.4555   -0.3105   -0.0574 N.ar    1  LIG1       -0.3488
     19 H          -3.4391    0.5981   -0.4923 H       1  LIG1        0.1661
     20 O          -1.9056   -3.4181    0.5865 O.3     1  LIG1       -0.4929
     21 C          -2.5019   -4.6762    0.8622 C.3     1  LIG1        0.0789
     22 H          -1.6831   -5.3821    1.0122 H       1  LIG1        0.0660
     23 H          -3.1170   -4.6354    1.7700 H       1  LIG1        0.0660
     24 H          -3.1249   -5.0148    0.0246 H       1  LIG1        0.0660
     25 H          -4.8617   -3.2005    0.5669 H       1  LIG1        0.0676
     26 C          -5.9143   -0.5144   -0.0286 C.ar    1  LIG1        0.1057
     27 C          -7.1492   -1.1251   -0.2523 C.ar    1  LIG1        0.1473
     28 C          -8.1469   -0.1220   -0.3304 C.ar    1  LIG1        0.0076
     29 C          -7.5065    1.1044   -0.1452 C.ar    1  LIG1        0.0705
     30 N          -6.1662    0.8483    0.0190 N.ar    1  LIG1       -0.3488
     31 H          -5.5204    1.5640    0.3188 H       1  LIG1        0.1661
     32 O          -7.2742   -2.4787   -0.3802 O.3     1  LIG1       -0.4929
     33 C          -8.5774   -2.9563   -0.6631 C.3     1  LIG1        0.0789
     34 H          -8.4984   -4.0417   -0.7451 H       1  LIG1        0.0660
     35 H          -9.2824   -2.7062    0.1413 H       1  LIG1        0.0660
     36 H          -8.9593   -2.5498   -1.6093 H       1  LIG1        0.0660
     37 H          -9.2021   -0.2708   -0.5049 H       1  LIG1        0.0676
     38 C          -8.0080    2.4518   -0.0864 C.ar    1  LIG1        0.1052
     39 C          -7.3381    3.6501    0.1563 C.ar    1  LIG1        0.1467
     40 C          -8.2761    4.7154    0.1237 C.ar    1  LIG1       -0.0019
     41 C          -9.5079    4.1457   -0.1407 C.ar    1  LIG1        0.0058
     42 N          -9.3371    2.7926   -0.2642 N.ar    1  LIG1       -0.3566
     43 H         -10.0685    2.1306   -0.4626 H       1  LIG1        0.1655
     44 H         -10.4800    4.6012   -0.2492 H       1  LIG1        0.0808
     45 O          -5.9838    3.6818    0.3822 O.3     1  LIG1       -0.4929
     46 C          -5.4332    4.9567    0.6794 C.3     1  LIG1        0.0789
     47 H          -4.3657    4.8036    0.8450 H       1  LIG1        0.0660
     48 H          -5.5738    5.6550   -0.1554 H       1  LIG1        0.0660
     49 H          -5.8836    5.3838    1.5844 H       1  LIG1        0.0660
     50 H          -8.0849    5.7669    0.2734 H       1  LIG1        0.0669
@<TRIPOS>BOND
     1    36    33    1
     2    12     9    1
     3    34    33    1
     4    10     9    1
     5    33    32    1
     6    33    35    1
     7     9     8    1
     8     9    11    1
     9     8     2    1
    10    37    28    1
    11    19    18    1
    12    43    42    1
    13    13     3    1
    14    32    27    1
    15    28    27   ar
    16    28    29   ar
    17     2     3   ar
    18     2     1   ar
    19     3     4   ar
    20    42    41   ar
    21    42    38   ar
    22    27    26   ar
    23    44    41    1
    24    48    46    1
    25    29    38    1
    26    29    30   ar
    27    41    40   ar
    28     1     7    1
    29     1     5   ar
    30    38    39   ar
    31    18    14   ar
    32    18    17   ar
    33     4     5   ar
    34     4    14    1
    35    26    30   ar
    36    26    17    1
    37    30    31    1
    38    24    21    1
    39     5     6    1
    40    14    15   ar
    41    17    16   ar
    42    40    39   ar
    43    40    50    1
    44    39    45    1
    45    15    16   ar
    46    15    20    1
    47    16    25    1
    48    45    46    1
    49    20    21    1
    50    46    47    1
    51    46    49    1
    52    21    22    1
    53    21    23    1
