@<TRIPOS>MOLECULE
mol_data/opt/b3lyp/geoms/mol2/13la13la13la.out
 38 40 0 0 0
SMALL
GASTEIGER

@<TRIPOS>ATOM
      1 C           1.8878   -0.4509   -0.0275 C.ar    1  LIG1        0.0444
      2 C           1.5806    0.8597   -0.3378 C.ar    1  LIG1        0.1379
      3 C           0.1656    1.0078   -0.3360 C.ar    1  LIG1        0.0069
      4 C          -0.3733   -0.2287   -0.0196 C.ar    1  LIG1        0.0701
      5 N           0.6774   -1.1201    0.1266 N.ar    1  LIG1       -0.3564
      6 H           0.5880   -1.9772    0.6492 H       1  LIG1        0.1655
      7 H           2.8294   -0.9667    0.0629 H       1  LIG1        0.0844
      8 O           2.4191    1.8921   -0.6380 O.3     1  LIG1       -0.4936
      9 C           3.7993    1.5822   -0.5912 C.3     1  LIG1        0.0789
     10 H           4.3366    2.4971   -0.8469 H       1  LIG1        0.0660
     11 H           4.1022    1.2516    0.4124 H       1  LIG1        0.0660
     12 H           4.0579    0.7951   -1.3137 H       1  LIG1        0.0660
     13 H          -0.3887    1.9034   -0.5684 H       1  LIG1        0.0676
     14 C          -1.7414   -0.6552    0.1268 C.ar    1  LIG1        0.1057
     15 C          -2.9019    0.0584    0.3954 C.ar    1  LIG1        0.1473
     16 C          -3.9960   -0.8492    0.4547 C.ar    1  LIG1        0.0076
     17 C          -3.4907   -2.1166    0.2086 C.ar    1  LIG1        0.0705
     18 N          -2.1142   -2.0030    0.0545 N.ar    1  LIG1       -0.3488
     19 H          -1.6046   -2.6372   -0.5448 H       1  LIG1        0.1661
     20 O          -2.8964    1.4063    0.5921 O.3     1  LIG1       -0.4929
     21 C          -4.1478    1.9949    0.9070 C.3     1  LIG1        0.0789
     22 H          -3.9624    3.0633    1.0291 H       1  LIG1        0.0660
     23 H          -4.8784    1.8441    0.1015 H       1  LIG1        0.0660
     24 H          -4.5600    1.5901    1.8407 H       1  LIG1        0.0660
     25 H          -5.0283   -0.6309    0.6764 H       1  LIG1        0.0676
     26 C          -4.1562   -3.3910    0.1280 C.ar    1  LIG1        0.1052
     27 C          -5.4880   -3.7143   -0.1223 C.ar    1  LIG1        0.1467
     28 C          -5.6176   -5.1314   -0.1249 C.ar    1  LIG1       -0.0019
     29 C          -4.3630   -5.6480    0.1320 C.ar    1  LIG1        0.0058
     30 N          -3.4867   -4.6016    0.2614 N.ar    1  LIG1       -0.3566
     31 H          -2.5569   -4.6786    0.6407 H       1  LIG1        0.1655
     32 H          -4.0341   -6.6713    0.2300 H       1  LIG1        0.0808
     33 O          -6.4384   -2.7585   -0.3361 O.3     1  LIG1       -0.4929
     34 C          -7.7341   -3.2349   -0.6581 C.3     1  LIG1        0.0789
     35 H          -8.3578   -2.3527   -0.8112 H       1  LIG1        0.0660
     36 H          -7.7259   -3.8356   -1.5774 H       1  LIG1        0.0660
     37 H          -8.1564   -3.8378    0.1569 H       1  LIG1        0.0660
     38 H          -6.5125   -5.7073   -0.3056 H       1  LIG1        0.0669
@<TRIPOS>BOND
     1    36    34    1
     2    12     9    1
     3    10     9    1
     4    35    34    1
     5    34    33    1
     6    34    37    1
     7     8     9    1
     8     8     2    1
     9     9    11    1
    10    13     3    1
    11    19    18    1
    12     2     3   ar
    13     2     1   ar
    14    33    27    1
    15     3     4   ar
    16    38    28    1
    17    28    27   ar
    18    28    29   ar
    19    27    26   ar
    20     1     7    1
    21     1     5   ar
    22     4     5   ar
    23     4    14    1
    24    18    14   ar
    25    18    17   ar
    26    23    21    1
    27     5     6    1
    28    14    15   ar
    29    26    17    1
    30    26    30   ar
    31    29    32    1
    32    29    30   ar
    33    17    16   ar
    34    30    31    1
    35    15    16   ar
    36    15    20    1
    37    16    25    1
    38    20    21    1
    39    21    22    1
    40    21    24    1
