@<TRIPOS>MOLECULE
mol_data/opt/b3lyp/geoms/mol2/13la13la-.out
 26 27 0 0 0
SMALL
GASTEIGER

@<TRIPOS>ATOM
      1 C           1.1372   -0.4404   -0.0000 C.ar    1  LIG1        0.0444
      2 C           0.7924    0.9007    0.0000 C.ar    1  LIG1        0.1379
      3 C          -0.6242    0.9993    0.0004 C.ar    1  LIG1        0.0069
      4 C          -1.1212   -0.2997    0.0003 C.ar    1  LIG1        0.0701
      5 N          -0.0460   -1.1542    0.0002 N.ar    1  LIG1       -0.3564
      6 H          -0.1466   -2.1575   -0.0001 H       1  LIG1        0.1655
      7 H           2.0946   -0.9348   -0.0002 H       1  LIG1        0.0844
      8 O           1.6017    1.9998   -0.0001 O.3     1  LIG1       -0.4936
      9 C           2.9900    1.7253   -0.0005 C.3     1  LIG1        0.0789
     10 H           3.5017    2.6893   -0.0005 H       1  LIG1        0.0660
     11 H           3.2868    1.1568    0.8924 H       1  LIG1        0.0660
     12 H           3.2864    1.1569   -0.8935 H       1  LIG1        0.0660
     13 H          -1.1881    1.9209    0.0006 H       1  LIG1        0.0676
     14 C          -2.4709   -0.8108    0.0005 C.ar    1  LIG1        0.1052
     15 C          -2.9422   -2.1209    0.0003 C.ar    1  LIG1        0.1467
     16 C          -4.3627   -2.0981    0.0006 C.ar    1  LIG1       -0.0019
     17 C          -4.7331   -0.7659    0.0006 C.ar    1  LIG1        0.0058
     18 N          -3.5948   -0.0057    0.0008 N.ar    1  LIG1       -0.3566
     19 H          -3.5657    1.0003    0.0007 H       1  LIG1        0.1655
     20 H          -5.7116   -0.3123    0.0008 H       1  LIG1        0.0808
     21 O          -2.0847   -3.1947    0.0000 O.3     1  LIG1       -0.4929
     22 C          -2.6965   -4.4744   -0.0005 C.3     1  LIG1        0.0789
     23 H          -1.8872   -5.2064   -0.0008 H       1  LIG1        0.0660
     24 H          -3.3170   -4.6211    0.8930 H       1  LIG1        0.0660
     25 H          -3.3171   -4.6204   -0.8942 H       1  LIG1        0.0660
     26 H          -5.0357   -2.9418    0.0006 H       1  LIG1        0.0669
@<TRIPOS>BOND
     1    25    22    1
     2    12     9    1
     3    23    22    1
     4    10     9    1
     5    22    21    1
     6    22    24    1
     7     9     8    1
     8     9    11    1
     9     7     1    1
    10     6     5    1
    11     8     2    1
    12     1     2   ar
    13     1     5   ar
    14     2     3   ar
    15    21    15    1
    16     5     4   ar
    17    15    14   ar
    18    15    16   ar
    19     4     3   ar
    20     4    14    1
    21     3    13    1
    22    14    18   ar
    23    16    26    1
    24    16    17   ar
    25    17    20    1
    26    17    18   ar
    27    19    18    1
