@<TRIPOS>MOLECULE
mol_data/opt/b3lyp/geoms/mol2/13la13la-13la.out
 38 40 0 0 0
SMALL
GASTEIGER

@<TRIPOS>ATOM
      1 C           1.4274   -0.6981   -0.0900 C.ar    1  LIG1        0.0444
      2 C           1.0654    0.6384   -0.0629 C.ar    1  LIG1        0.1379
      3 C          -0.3514    0.7193   -0.0322 C.ar    1  LIG1        0.0069
      4 C          -0.8330   -0.5861   -0.0412 C.ar    1  LIG1        0.0701
      5 N           0.2535   -1.4273   -0.0761 N.ar    1  LIG1       -0.3564
      6 H           0.1667   -2.4315   -0.0893 H       1  LIG1        0.1655
      7 H           2.3905   -1.1802   -0.1169 H       1  LIG1        0.0844
      8 O           1.8617    1.7477   -0.0632 O.3     1  LIG1       -0.4936
      9 C           3.2525    1.4901   -0.0959 C.3     1  LIG1        0.0789
     10 H           3.7534    2.4599   -0.0922 H       1  LIG1        0.0660
     11 H           3.5745    0.9122    0.7821 H       1  LIG1        0.0660
     12 H           3.5373    0.9383   -1.0031 H       1  LIG1        0.0660
     13 H          -0.9295    1.6315   -0.0067 H       1  LIG1        0.0676
     14 C          -2.1754   -1.1090   -0.0210 C.ar    1  LIG1        0.1057
     15 C          -2.6328   -2.4260   -0.0308 C.ar    1  LIG1        0.1473
     16 C          -4.0482   -2.4231   -0.0014 C.ar    1  LIG1        0.0076
     17 C          -4.4446   -1.0840    0.0264 C.ar    1  LIG1        0.0705
     18 N          -3.3057   -0.3172    0.0140 N.ar    1  LIG1       -0.3488
     19 H          -3.3253    0.6916    0.0289 H       1  LIG1        0.1661
     20 O          -1.7634   -3.4892   -0.0644 O.3     1  LIG1       -0.4929
     21 C          -2.3581   -4.7761   -0.0712 C.3     1  LIG1        0.0789
     22 H          -1.5402   -5.4981   -0.0987 H       1  LIG1        0.0660
     23 H          -2.9584   -4.9437    0.8327 H       1  LIG1        0.0660
     24 H          -2.9951   -4.9173   -0.9542 H       1  LIG1        0.0660
     25 H          -4.7007   -3.2836   -0.0005 H       1  LIG1        0.0676
     26 C          -5.7473   -0.4722    0.0623 C.ar    1  LIG1        0.1052
     27 C          -6.1093    0.8733    0.0893 C.ar    1  LIG1        0.1467
     28 C          -7.5259    0.9672    0.1200 C.ar    1  LIG1       -0.0019
     29 C          -8.0058   -0.3293    0.1112 C.ar    1  LIG1        0.0058
     30 N          -6.9348   -1.1823    0.0766 N.ar    1  LIG1       -0.3566
     31 H          -6.9923   -2.1867    0.0638 H       1  LIG1        0.1655
     32 H          -9.0188   -0.7004    0.1268 H       1  LIG1        0.0808
     33 O          -5.1653    1.8695    0.0840 O.3     1  LIG1       -0.4929
     34 C          -5.6629    3.1984    0.1141 C.3     1  LIG1        0.0789
     35 H          -4.7926    3.8563    0.1059 H       1  LIG1        0.0660
     36 H          -6.2863    3.4103   -0.7641 H       1  LIG1        0.0660
     37 H          -6.2495    3.3837    1.0230 H       1  LIG1        0.0660
     38 H          -8.1261    1.8638    0.1453 H       1  LIG1        0.0669
@<TRIPOS>BOND
     1    12     9    1
     2    24    21    1
     3    36    34    1
     4     7     1    1
     5    22    21    1
     6     9    10    1
     7     9     8    1
     8     9    11    1
     9     1     5   ar
    10     1     2   ar
    11     6     5    1
    12     5     4   ar
    13    21    20    1
    14    21    23    1
    15    20    15    1
    16     8     2    1
    17     2     3   ar
    18     4     3   ar
    19     4    14    1
    20     3    13    1
    21    15    14   ar
    22    15    16   ar
    23    14    18   ar
    24    16    25    1
    25    16    17   ar
    26    18    17   ar
    27    18    19    1
    28    17    26    1
    29    26    30   ar
    30    26    27   ar
    31    31    30    1
    32    30    29   ar
    33    33    27    1
    34    33    34    1
    35    27    28   ar
    36    35    34    1
    37    29    28   ar
    38    29    32    1
    39    34    37    1
    40    28    38    1
