@<TRIPOS>MOLECULE
mol_data/opt/b3lyp/geoms/mol2/13ld13ld-.out
 28 29 0 0 0
SMALL
GASTEIGER

@<TRIPOS>ATOM
      1 C           1.1561   -0.4561   -0.0003 C.ar    1  LIG1        0.0457
      2 C           0.8268    0.8829   -0.0001 C.ar    1  LIG1        0.1553
      3 C          -0.6034    0.9804    0.0002 C.ar    1  LIG1        0.1200
      4 C          -1.1063   -0.3327    0.0003 C.ar    1  LIG1        0.0878
      5 N          -0.0325   -1.1701    0.0000 N.ar    1  LIG1       -0.3553
      6 H          -0.1317   -2.1747   -0.0000 H       1  LIG1        0.1655
      7 H           2.1103   -0.9552   -0.0005 H       1  LIG1        0.0845
      8 O           1.6179    1.9787   -0.0001 O.3     1  LIG1       -0.4923
      9 C           3.0167    1.7268   -0.0004 C.3     1  LIG1        0.0789
     10 H           3.5055    2.7012   -0.0005 H       1  LIG1        0.0660
     11 H           3.3172    1.1660    0.8942 H       1  LIG1        0.0660
     12 H           3.3168    1.1661   -0.8953 H       1  LIG1        0.0660
     13 N          -2.1411    3.0473    0.0008 N.1     1  LIG1       -0.1907
     14 C          -1.3996    2.1452    0.0004 C.1     1  LIG1        0.1050
     15 C          -2.4596   -0.8219    0.0006 C.ar    1  LIG1        0.1078
     16 C          -2.9262   -2.1333    0.0006 C.ar    1  LIG1        0.1640
     17 C          -4.3600   -2.0884    0.0009 C.ar    1  LIG1        0.1112
     18 C          -4.7092   -0.7359    0.0015 C.ar    1  LIG1        0.0233
     19 N          -3.5765   -0.0001    0.0010 N.ar    1  LIG1       -0.3553
     20 H          -3.5319    1.0115    0.0010 H       1  LIG1        0.1655
     21 H          -5.6894   -0.2860    0.0020 H       1  LIG1        0.0821
     22 O          -2.0568   -3.1805    0.0003 O.3     1  LIG1       -0.4916
     23 C          -2.5860   -4.5099   -0.0004 C.3     1  LIG1        0.0789
     24 H          -1.7199   -5.1724   -0.0008 H       1  LIG1        0.0660
     25 H          -3.1904   -4.6950    0.8924 H       1  LIG1        0.0660
     26 H          -3.1904   -4.6940   -0.8934 H       1  LIG1        0.0660
     27 N          -6.0899   -4.0071    0.0013 N.1     1  LIG1       -0.1907
     28 C          -5.3027   -3.1482    0.0009 C.1     1  LIG1        0.1044
@<TRIPOS>BOND
     1    12     9    1
     2    26    23    1
     3    24    23    1
     4     7     1    1
     5    10     9    1
     6     9     8    1
     7     9    11    1
     8    23    22    1
     9    23    25    1
    10     1     2   ar
    11     1     5   ar
    12     8     2    1
    13     2     3   ar
    14     6     5    1
    15     5     4   ar
    16     3     4   ar
    17     3    14    1
    18     4    15    1
    19    22    16    1
    20    14    13    3
    21    16    15   ar
    22    16    17   ar
    23    15    19   ar
    24    17    28    1
    25    17    18   ar
    26    28    27    3
    27    20    19    1
    28    19    18   ar
    29    18    21    1
