@<TRIPOS>MOLECULE
mol_data/opt/b3lyp/geoms/mol2/13ld13ld13ld13ld.out
 54 57 0 0 0
SMALL
GASTEIGER

@<TRIPOS>ATOM
      1 C           1.2871    1.3301    0.0148 C.ar    1  LIG1        0.0457
      2 C           1.6931    0.0636   -0.3482 C.ar    1  LIG1        0.1553
      3 C           0.5396   -0.7888   -0.3220 C.ar    1  LIG1        0.1200
      4 C          -0.5556    0.0130    0.0637 C.ar    1  LIG1        0.0878
      5 N          -0.0790    1.2714    0.2573 N.ar    1  LIG1       -0.3553
      6 H          -0.6691    2.0327    0.5592 H       1  LIG1        0.1655
      7 H           1.8360    2.2504    0.1205 H       1  LIG1        0.0845
      8 O           2.9163   -0.4012   -0.6831 O.3     1  LIG1       -0.4923
      9 C           3.9662    0.5587   -0.6639 C.3     1  LIG1        0.0789
     10 H           4.8734    0.0285   -0.9538 H       1  LIG1        0.0660
     11 H           3.7711    1.3697   -1.3774 H       1  LIG1        0.0660
     12 H           4.0938    0.9829    0.3403 H       1  LIG1        0.0660
     13 N           0.2387   -3.3037   -0.7882 N.1     1  LIG1       -0.1907
     14 C           0.4502   -2.1701   -0.5930 C.1     1  LIG1        0.1050
     15 C          -1.9312   -0.3459    0.2467 C.ar    1  LIG1        0.1083
     16 C          -3.0214    0.3840    0.7093 C.ar    1  LIG1        0.1647
     17 C          -4.1650   -0.4856    0.7276 C.ar    1  LIG1        0.1207
     18 C          -3.7238   -1.7384    0.2490 C.ar    1  LIG1        0.0883
     19 N          -2.3940   -1.6227   -0.0164 N.ar    1  LIG1       -0.3478
     20 H          -1.8482   -2.3238   -0.4988 H       1  LIG1        0.1661
     21 O          -2.8721    1.6837    1.0744 O.3     1  LIG1       -0.4916
     22 C          -4.0438    2.4625    1.3469 C.3     1  LIG1        0.0789
     23 H          -3.6886    3.4803    1.5109 H       1  LIG1        0.0660
     24 H          -4.7330    2.4441    0.4972 H       1  LIG1        0.0660
     25 H          -4.5585    2.1033    2.2415 H       1  LIG1        0.0660
     26 N          -6.5225   -0.0148    1.6681 N.1     1  LIG1       -0.1907
     27 C          -5.4628   -0.2254    1.2309 C.1     1  LIG1        0.1050
     28 C          -4.3500   -3.0195    0.0658 C.ar    1  LIG1        0.1083
     29 C          -5.6328   -3.4186   -0.2760 C.ar    1  LIG1        0.1647
     30 C          -5.6131   -4.8457   -0.4682 C.ar    1  LIG1        0.1207
     31 C          -4.3005   -5.2801   -0.2357 C.ar    1  LIG1        0.0883
     32 N          -3.5527   -4.1673    0.0520 N.ar    1  LIG1       -0.3478
     33 H          -2.6716   -4.2218    0.5437 H       1  LIG1        0.1661
     34 O          -6.6380   -2.5546   -0.5259 O.3     1  LIG1       -0.4916
     35 C          -7.8873   -2.7883    0.1507 C.3     1  LIG1        0.0789
     36 H          -8.5516   -1.9907   -0.1800 H       1  LIG1        0.0660
     37 H          -8.3106   -3.7591   -0.1203 H       1  LIG1        0.0660
     38 H          -7.7510   -2.7184    1.2340 H       1  LIG1        0.0660
     39 N          -7.5683   -6.2590   -1.3852 N.1     1  LIG1       -0.1907
     40 C          -6.6797   -5.6355   -0.9616 C.1     1  LIG1        0.1050
     41 C          -3.6772   -6.5764   -0.3086 C.ar    1  LIG1        0.1078
     42 C          -4.1706   -7.8504   -0.0501 C.ar    1  LIG1        0.1640
     43 C          -3.0901   -8.7785   -0.2473 C.ar    1  LIG1        0.1112
     44 C          -1.9753   -8.0295   -0.6115 C.ar    1  LIG1        0.0233
     45 N          -2.3269   -6.7205   -0.6259 N.ar    1  LIG1       -0.3553
     46 H          -1.7317   -5.9740   -0.9569 H       1  LIG1        0.1655
     47 H          -0.9778   -8.3581   -0.8588 H       1  LIG1        0.0821
     48 O          -5.4153   -8.0724    0.4189 O.3     1  LIG1       -0.4916
     49 C          -6.1772   -9.1284   -0.1942 C.3     1  LIG1        0.0789
     50 H          -7.1496   -9.1082    0.2965 H       1  LIG1        0.0660
     51 H          -6.3092   -8.9324   -1.2623 H       1  LIG1        0.0660
     52 H          -5.7037  -10.1014   -0.0395 H       1  LIG1        0.0660
     53 N          -3.1005  -11.3384    0.0978 N.1     1  LIG1       -0.1907
     54 C          -3.0973  -10.1842   -0.0588 C.1     1  LIG1        0.1044
@<TRIPOS>BOND
     1    39    40    3
     2    11     9    1
     3    51    49    1
     4    40    30    1
     5    46    45    1
     6    10     9    1
     7    47    44    1
     8    13    14    3
     9     8     9    1
    10     8     2    1
    11     9    12    1
    12    45    44   ar
    13    45    41   ar
    14    44    43   ar
    15    14     3    1
    16    34    29    1
    17    34    35    1
    18    20    19    1
    19    30    29   ar
    20    30    31   ar
    21     2     3   ar
    22     2     1   ar
    23     3     4   ar
    24    41    31    1
    25    41    42   ar
    26    29    28   ar
    27    43    54    1
    28    43    42   ar
    29    31    32   ar
    30    49    52    1
    31    49    50    1
    32    49    48    1
    33    36    35    1
    34    37    35    1
    35    54    53    3
    36    42    48    1
    37    19    15   ar
    38    19    18   ar
    39     1     7    1
    40     1     5   ar
    41    32    28   ar
    42    32    33    1
    43     4    15    1
    44     4     5   ar
    45    28    18    1
    46    35    38    1
    47    15    16   ar
    48    18    17   ar
    49     5     6    1
    50    24    22    1
    51    16    17   ar
    52    16    21    1
    53    17    27    1
    54    21    22    1
    55    27    26    3
    56    22    23    1
    57    22    25    1
