@<TRIPOS>MOLECULE
mol_data/opt/b3lyp/geoms/mol2/13ld6hi-4eh13ll-.out
 59 62 0 0 0
SMALL
GASTEIGER

@<TRIPOS>ATOM
      1 C           1.6029   -0.3163   -0.4760 C.ar    1  LIG1        0.0457
      2 C           1.3382    0.9395    0.0306 C.ar    1  LIG1        0.1552
      3 C          -0.0777    1.0474    0.2191 C.ar    1  LIG1        0.1186
      4 C          -0.6467   -0.1739   -0.1852 C.ar    1  LIG1        0.0710
      5 N           0.3887   -0.9613   -0.6073 N.ar    1  LIG1       -0.3565
      6 H           0.2435   -1.9163   -0.9105 H       1  LIG1        0.1655
      7 H           2.5268   -0.7901   -0.7627 H       1  LIG1        0.0845
      8 O           2.1793    1.9586    0.3182 O.3     1  LIG1       -0.4923
      9 C           3.5561    1.7054    0.0791 C.3     1  LIG1        0.0789
     10 H           4.0908    2.6119    0.3639 H       1  LIG1        0.0660
     11 H           3.9152    0.8630    0.6851 H       1  LIG1        0.0660
     12 H           3.7413    1.4896   -0.9816 H       1  LIG1        0.0660
     13 N          -1.2931    3.1460    1.1020 N.1     1  LIG1       -0.1907
     14 C          -0.7468    2.1979    0.7005 C.1     1  LIG1        0.1050
     15 C          -2.4915   -1.7291   -0.9484 C.ar    1  LIG1        0.1261
     16 C          -2.0292   -0.6537   -0.1486 C.ar    1  LIG1        0.0395
     17 C          -2.9634   -0.1112    0.7423 C.ar    1  LIG1       -0.0444
     18 C          -4.2659   -0.6034    0.8475 C.ar    1  LIG1       -0.0237
     19 C          -4.5993   -1.6912    0.0165 C.ar    1  LIG1        0.0772
     20 N          -3.7182   -2.2315   -0.8453 N.ar    1  LIG1       -0.2315
     21 H          -2.6597    0.6997    1.3954 H       1  LIG1        0.0628
     22 N          -1.6454   -2.3712   -1.8829 N.pl3   1  LIG1       -0.3426
     23 H          -2.1915   -3.0608   -2.3908 H       1  LIG1        0.1437
     24 H          -1.2220   -1.7175   -2.5368 H       1  LIG1        0.1437
     25 C          -5.2156   -0.0128    1.8603 C.3     1  LIG1       -0.0377
     26 H          -5.8018   -0.7888    2.3607 H       1  LIG1        0.0278
     27 H          -5.9249    0.6730    1.3871 H       1  LIG1        0.0278
     28 H          -4.6639    0.5450    2.6217 H       1  LIG1        0.0278
     29 C          -7.1409   -1.7256   -0.2761 C.ar    1  LIG1        0.0346
     30 C          -8.3445   -2.4435   -0.1847 C.ar    1  LIG1       -0.0347
     31 C          -5.9285   -2.3707    0.0636 C.ar    1  LIG1        0.0178
     32 C          -8.3967   -3.7860    0.2120 C.ar    1  LIG1        0.0238
     33 H          -9.2707   -1.9406   -0.4326 H       1  LIG1        0.0637
     34 C          -5.9716   -3.7228    0.4072 C.ar    1  LIG1       -0.0300
     35 C          -7.1659   -4.4435    0.4784 C.ar    1  LIG1        0.0346
     36 H          -5.0341   -4.2330    0.6121 H       1  LIG1        0.0643
     37 C          -7.1791   -0.3782   -0.7531 C.1     1  LIG1       -0.0690
     38 C          -7.2449    0.7548   -1.1754 C.1     1  LIG1       -0.1139
     39 H          -7.2905    1.7517   -1.5481 H       1  LIG1        0.1232
     40 N          -7.1429   -5.8050    0.8585 N.pl3   1  LIG1       -0.3574
     41 H          -7.7301   -6.3854    0.2668 H       1  LIG1        0.1423
     42 H          -6.2015   -6.1804    0.8769 H       1  LIG1        0.1423
     43 C          -9.6933   -4.4525    0.3503 C.ar    1  LIG1        0.0943
     44 C         -10.9358   -4.1629   -0.2139 C.ar    1  LIG1        0.1869
     45 C         -11.8916   -5.0712    0.3283 C.ar    1  LIG1        0.1794
     46 C         -11.2246   -5.8946    1.2131 C.ar    1  LIG1        0.0481
     47 N          -9.9039   -5.5256    1.2039 N.ar    1  LIG1       -0.3546
     48 H          -9.1825   -5.8802    1.8147 H       1  LIG1        0.1656
     49 H         -11.5904   -6.7126    1.8137 H       1  LIG1        0.0845
     50 O         -11.1988   -3.1557   -1.1084 O.3     1  LIG1       -0.4895
     51 C         -11.5740   -3.6189   -2.4118 C.3     1  LIG1        0.0791
     52 H         -11.7882   -2.7286   -3.0065 H       1  LIG1        0.0660
     53 H         -10.7540   -4.1800   -2.8765 H       1  LIG1        0.0660
     54 H         -12.4641   -4.2549   -2.3623 H       1  LIG1        0.0660
     55 O         -13.2185   -5.1618   -0.0062 O.3     1  LIG1       -0.4900
     56 C         -13.9930   -4.0272    0.3973 C.3     1  LIG1        0.0790
     57 H         -15.0122   -4.2087    0.0493 H       1  LIG1        0.0660
     58 H         -13.9937   -3.9233    1.4898 H       1  LIG1        0.0660
     59 H         -13.6097   -3.1034   -0.0493 H       1  LIG1        0.0660
@<TRIPOS>BOND
     1    52    51    1
     2    53    51    1
     3    24    22    1
     4    51    54    1
     5    51    50    1
     6    23    22    1
     7    22    15    1
     8    39    38    1
     9    38    37    3
    10    50    44    1
    11    12     9    1
    12    15    20   ar
    13    15    16   ar
    14     6     5    1
    15    20    19   ar
    16     7     1    1
    17    37    29    1
    18     5     1   ar
    19     5     4   ar
    20     1     2   ar
    21    33    30    1
    22    29    30   ar
    23    29    31   ar
    24    44    45   ar
    25    44    43   ar
    26     4    16    1
    27     4     3   ar
    28    30    32   ar
    29    16    17   ar
    30    59    56    1
    31    55    45    1
    32    55    56    1
    33    19    31    1
    34    19    18   ar
    35     2     3   ar
    36     2     8    1
    37    57    56    1
    38    31    34   ar
    39     9     8    1
    40     9    10    1
    41     9    11    1
    42    32    43    1
    43    32    35   ar
    44     3    14    1
    45    41    40    1
    46    45    46   ar
    47    43    47   ar
    48    56    58    1
    49    34    35   ar
    50    34    36    1
    51    35    40    1
    52    14    13    3
    53    17    18   ar
    54    17    21    1
    55    18    25    1
    56    40    42    1
    57    47    46   ar
    58    47    48    1
    59    46    49    1
    60    27    25    1
    61    25    26    1
    62    25    28    1
