@<TRIPOS>MOLECULE
mol_data/opt/b3lyp/geoms/mol2/13ld13ld13ld.out
 41 43 0 0 0
SMALL
GASTEIGER

@<TRIPOS>ATOM
      1 C           0.8200    1.4007   -0.0036 C.ar    1  LIG1        0.0457
      2 C           0.8204    0.6395   -1.1528 C.ar    1  LIG1        0.1553
      3 C          -0.3230   -0.2253   -1.1072 C.ar    1  LIG1        0.1200
      4 C          -0.9961    0.0468    0.0988 C.ar    1  LIG1        0.0878
      5 N          -0.2894    1.0225    0.7364 N.ar    1  LIG1       -0.3553
      6 H          -0.5705    1.3961    1.6309 H       1  LIG1        0.1655
      7 H           1.4955    2.1624    0.3473 H       1  LIG1        0.0845
      8 O           1.6843    0.6271   -2.1924 O.3     1  LIG1       -0.4923
      9 C           2.7698    1.5394   -2.0990 C.3     1  LIG1        0.0789
     10 H           3.3641    1.4057   -3.0031 H       1  LIG1        0.0660
     11 H           2.4112    2.5758   -2.0459 H       1  LIG1        0.0660
     12 H           3.3896    1.3269   -1.2181 H       1  LIG1        0.0660
     13 N          -1.0858   -1.9719   -2.8429 N.1     1  LIG1       -0.1907
     14 C          -0.7150   -1.1739   -2.0759 C.1     1  LIG1        0.1050
     15 C          -2.1919   -0.5171    0.6612 C.ar    1  LIG1        0.1083
     16 C          -2.8302   -0.2210    1.8610 C.ar    1  LIG1        0.1647
     17 C          -3.9874   -1.0582    1.9644 C.ar    1  LIG1        0.1207
     18 C          -4.0146   -1.8556    0.7944 C.ar    1  LIG1        0.0883
     19 N          -2.9371   -1.5096    0.0438 N.ar    1  LIG1       -0.3478
     20 H          -2.7297   -1.9414   -0.8509 H       1  LIG1        0.1661
     21 O          -2.3370    0.7266    2.7035 O.3     1  LIG1       -0.4916
     22 C          -3.0239    0.9680    3.9338 C.3     1  LIG1        0.0789
     23 H          -2.4554    1.7458    4.4444 H       1  LIG1        0.0660
     24 H          -4.0446    1.3195    3.7541 H       1  LIG1        0.0660
     25 H          -3.0507    0.0670    4.5545 H       1  LIG1        0.0660
     26 N          -5.8256   -1.3054    3.7537 N.1     1  LIG1       -0.1907
     27 C          -4.9683   -1.1534    2.9746 C.1     1  LIG1        0.1050
     28 C          -4.9390   -2.8654    0.3629 C.ar    1  LIG1        0.1078
     29 C          -4.9059   -3.6192   -0.8107 C.ar    1  LIG1        0.1640
     30 C          -6.0387   -4.4962   -0.7988 C.ar    1  LIG1        0.1112
     31 C          -6.7215   -4.2381    0.3929 C.ar    1  LIG1        0.0233
     32 N          -6.0618   -3.2731    1.0702 N.ar    1  LIG1       -0.3553
     33 H          -6.3382   -2.8938    1.9662 H       1  LIG1        0.1655
     34 H          -7.6239   -4.6920    0.7714 H       1  LIG1        0.0821
     35 O          -3.9103   -3.4370   -1.7046 O.3     1  LIG1       -0.4916
     36 C          -3.8797   -4.2003   -2.9189 C.3     1  LIG1        0.0789
     37 H          -2.9909   -3.8522   -3.4436 H       1  LIG1        0.0660
     38 H          -3.8009   -5.2697   -2.7031 H       1  LIG1        0.0660
     39 H          -4.7749   -4.0115   -3.5184 H       1  LIG1        0.0660
     40 N          -6.8065   -6.2501   -2.5331 N.1     1  LIG1       -0.1907
     41 C          -6.4503   -5.4564   -1.7585 C.1     1  LIG1        0.1044
@<TRIPOS>BOND
     1    39    36    1
     2    37    36    1
     3    10     9    1
     4    36    38    1
     5    36    35    1
     6    13    14    3
     7    40    41    3
     8     8     9    1
     9     8     2    1
    10     9    11    1
    11     9    12    1
    12    14     3    1
    13    41    30    1
    14    35    29    1
    15     2     3   ar
    16     2     1   ar
    17     3     4   ar
    18    20    19    1
    19    29    30   ar
    20    29    28   ar
    21    30    31   ar
    22     1     7    1
    23     1     5   ar
    24    19    15   ar
    25    19    18   ar
    26     4    15    1
    27     4     5   ar
    28    28    18    1
    29    28    32   ar
    30    31    34    1
    31    31    32   ar
    32    15    16   ar
    33     5     6    1
    34    18    17   ar
    35    32    33    1
    36    16    17   ar
    37    16    21    1
    38    17    27    1
    39    21    22    1
    40    27    26    3
    41    24    22    1
    42    22    23    1
    43    22    25    1
