@<TRIPOS>MOLECULE
mol_data/opt/b3lyp/geoms/mol2/13ld13ld-13ld-13ld-.out
 54 57 0 0 0
SMALL
GASTEIGER

@<TRIPOS>ATOM
      1 C           1.1057   -0.3028    0.0506 C.ar    1  LIG1        0.0457
      2 C           0.6303    0.9814    0.2096 C.ar    1  LIG1        0.1553
      3 C          -0.8030    0.9198    0.2065 C.ar    1  LIG1        0.1200
      4 C          -1.1560   -0.4366    0.0441 C.ar    1  LIG1        0.0878
      5 N           0.0030   -1.1415   -0.0459 N.ar    1  LIG1       -0.3553
      6 H           0.0186   -2.1411   -0.1858 H       1  LIG1        0.1655
      7 H           2.1095   -0.6887   -0.0021 H       1  LIG1        0.0845
      8 O           1.2940    2.1495    0.3488 O.3     1  LIG1       -0.4923
      9 C           2.7135    2.0570    0.3317 C.3     1  LIG1        0.0789
     10 H           3.0897    3.0728    0.4535 H       1  LIG1        0.0660
     11 H           3.0770    1.4297    1.1557 H       1  LIG1        0.0660
     12 H           3.0699    1.6453   -0.6212 H       1  LIG1        0.0660
     13 N          -2.6106    2.7448    0.3926 N.1     1  LIG1       -0.1907
     14 C          -1.7367    1.9714    0.3151 C.1     1  LIG1        0.1050
     15 C          -2.4538   -1.0408   -0.0292 C.ar    1  LIG1        0.1083
     16 C          -2.8488   -2.3515   -0.2768 C.ar    1  LIG1        0.1647
     17 C          -4.2850   -2.3922   -0.2752 C.ar    1  LIG1        0.1207
     18 C          -4.7232   -1.0779   -0.0042 C.ar    1  LIG1        0.0883
     19 N          -3.6128   -0.3017    0.1257 N.ar    1  LIG1       -0.3478
     20 H          -3.6234    0.6537    0.4559 H       1  LIG1        0.1661
     21 O          -1.9203   -3.3185   -0.4951 O.3     1  LIG1       -0.4916
     22 C          -2.3463   -4.6861   -0.5398 C.3     1  LIG1        0.0789
     23 H          -1.4326   -5.2762   -0.6166 H       1  LIG1        0.0660
     24 H          -2.8864   -4.9584    0.3722 H       1  LIG1        0.0660
     25 H          -2.9809   -4.8747   -1.4092 H       1  LIG1        0.0660
     26 N          -5.8337   -4.3651   -0.8865 N.1     1  LIG1       -0.1907
     27 C          -5.1368   -3.4767   -0.5973 C.1     1  LIG1        0.1050
     28 C          -6.0130   -0.4497    0.0890 C.ar    1  LIG1        0.1083
     29 C          -7.2590   -0.8798    0.5181 C.ar    1  LIG1        0.1647
     30 C          -8.1379    0.2611    0.5311 C.ar    1  LIG1        0.1207
     31 C          -7.3908    1.3683    0.1047 C.ar    1  LIG1        0.0883
     32 N          -6.1127    0.9278   -0.1251 N.ar    1  LIG1       -0.3478
     33 H          -5.4655    1.4337   -0.7134 H       1  LIG1        0.1661
     34 O          -7.4965   -2.1244    0.9804 O.3     1  LIG1       -0.4916
     35 C          -8.6225   -2.8277    0.4228 C.3     1  LIG1        0.0789
     36 H          -8.6347   -3.7978    0.9184 H       1  LIG1        0.0660
     37 H          -9.5587   -2.2991    0.6204 H       1  LIG1        0.0660
     38 H          -8.4841   -2.9735   -0.6526 H       1  LIG1        0.0660
     39 N         -10.5391    0.2894    1.4769 N.1     1  LIG1       -0.1907
     40 C          -9.4597    0.2899    1.0380 C.1     1  LIG1        0.1050
     41 C          -7.7187    2.7621   -0.0503 C.ar    1  LIG1        0.1078
     42 C          -8.9046    3.3942   -0.4073 C.ar    1  LIG1        0.1640
     43 C          -8.6442    4.8079   -0.4449 C.ar    1  LIG1        0.1112
     44 C          -7.3032    4.9808   -0.1159 C.ar    1  LIG1        0.0233
     45 N          -6.7553    3.7594    0.0973 N.ar    1  LIG1       -0.3553
     46 H          -5.8205    3.6076    0.4498 H       1  LIG1        0.1655
     47 H          -6.7308    5.8905   -0.0213 H       1  LIG1        0.0821
     48 O         -10.0169    2.7188   -0.7607 O.3     1  LIG1       -0.4916
     49 C         -11.2675    3.1604   -0.2017 C.3     1  LIG1        0.0789
     50 H         -12.0160    2.4633   -0.5766 H       1  LIG1        0.0660
     51 H         -11.2379    3.1034    0.8904 H       1  LIG1        0.0660
     52 H         -11.5109    4.1756   -0.5254 H       1  LIG1        0.0660
     53 N         -10.2616    6.7132   -1.0975 N.1     1  LIG1       -0.1907
     54 C          -9.5336    5.8534   -0.8021 C.1     1  LIG1        0.1044
@<TRIPOS>BOND
     1    25    22    1
     2    53    54    3
     3    26    27    3
     4    54    43    1
     5    48    42    1
     6    48    49    1
     7    33    32    1
     8    38    35    1
     9    12     9    1
    10    23    22    1
    11    27    17    1
    12    50    49    1
    13    22    21    1
    14    22    24    1
    15    52    49    1
    16    21    16    1
    17    43    42   ar
    18    43    44   ar
    19    42    41   ar
    20    16    17   ar
    21    16    15   ar
    22    17    18   ar
    23    49    51    1
    24     6     5    1
    25    32    28   ar
    26    32    31   ar
    27    44    47    1
    28    44    45   ar
    29    41    45   ar
    30    41    31    1
    31     5     4   ar
    32     5     1   ar
    33    15     4    1
    34    15    19   ar
    35    18    28    1
    36    18    19   ar
    37     7     1    1
    38     4     3   ar
    39     1     2   ar
    40    28    29   ar
    41    45    46    1
    42    31    30   ar
    43    19    20    1
    44     3     2   ar
    45     3    14    1
    46     2     8    1
    47    14    13    3
    48     9     8    1
    49     9    10    1
    50     9    11    1
    51    35    37    1
    52    35    36    1
    53    35    34    1
    54    29    30   ar
    55    29    34    1
    56    30    40    1
    57    40    39    3
