@<TRIPOS>MOLECULE
mol_data/opt/b3lyp/geoms/mol2/13ld13ld13ld13ld-.out
 54 57 0 0 0
SMALL
GASTEIGER

@<TRIPOS>ATOM
      1 C           1.1641    1.3506   -0.2883 C.ar    1  LIG1        0.0457
      2 C           1.7001    0.0999   -0.5129 C.ar    1  LIG1        0.1553
      3 C           0.6293   -0.8517   -0.4440 C.ar    1  LIG1        0.1200
      4 C          -0.5480   -0.1283   -0.1748 C.ar    1  LIG1        0.0878
      5 N          -0.1979    1.1836   -0.0882 N.ar    1  LIG1       -0.3553
      6 H          -0.8765    1.9078    0.1001 H       1  LIG1        0.1655
      7 H           1.6204    2.3254   -0.2578 H       1  LIG1        0.0845
      8 O           2.9743   -0.2750   -0.7590 O.3     1  LIG1       -0.4923
      9 C           3.9285    0.7788   -0.8013 C.3     1  LIG1        0.0789
     10 H           4.8926    0.3132   -1.0065 H       1  LIG1        0.0660
     11 H           3.6897    1.4948   -1.5983 H       1  LIG1        0.0660
     12 H           3.9737    1.3085    0.1590 H       1  LIG1        0.0660
     13 N           0.6444   -3.4147   -0.6928 N.1     1  LIG1       -0.1907
     14 C           0.6930   -2.2527   -0.5868 C.1     1  LIG1        0.1050
     15 C          -1.9017   -0.5745    0.0014 C.ar    1  LIG1        0.1083
     16 C          -3.0254    0.1304    0.4085 C.ar    1  LIG1        0.1647
     17 C          -4.1367   -0.7739    0.4347 C.ar    1  LIG1        0.1207
     18 C          -3.6471   -2.0312    0.0242 C.ar    1  LIG1        0.0883
     19 N          -2.3111   -1.8785   -0.2261 N.ar    1  LIG1       -0.3478
     20 H          -1.7159   -2.5860   -0.6353 H       1  LIG1        0.1661
     21 O          -2.9855    1.4692    0.6681 O.3     1  LIG1       -0.4916
     22 C          -3.5891    1.9133    1.8982 C.3     1  LIG1        0.0789
     23 H          -3.3766    2.9810    1.9646 H       1  LIG1        0.0660
     24 H          -4.6693    1.7557    1.8893 H       1  LIG1        0.0660
     25 H          -3.1460    1.3923    2.7540 H       1  LIG1        0.0660
     26 N          -6.5165   -0.1754    1.2335 N.1     1  LIG1       -0.1907
     27 C          -5.4535   -0.4697    0.8561 C.1     1  LIG1        0.1050
     28 C          -4.2799   -3.3163   -0.1098 C.ar    1  LIG1        0.1083
     29 C          -5.5949   -3.6688   -0.3960 C.ar    1  LIG1        0.1647
     30 C          -5.6602   -5.1005   -0.4506 C.ar    1  LIG1        0.1207
     31 C          -4.3566   -5.5838   -0.2126 C.ar    1  LIG1        0.0883
     32 N          -3.5527   -4.5017   -0.0284 N.ar    1  LIG1       -0.3478
     33 H          -2.5843   -4.6061    0.2485 H       1  LIG1        0.1661
     34 O          -6.5481   -2.7583   -0.6706 O.3     1  LIG1       -0.4916
     35 C          -7.8682   -2.9906   -0.1572 C.3     1  LIG1        0.0789
     36 H          -8.4147   -2.0638   -0.3267 H       1  LIG1        0.0660
     37 H          -8.3579   -3.8157   -0.6829 H       1  LIG1        0.0660
     38 H          -7.8345   -3.1978    0.9170 H       1  LIG1        0.0660
     39 N          -7.6049   -6.7147   -0.9558 N.1     1  LIG1       -0.1907
     40 C          -6.7578   -5.9415   -0.7351 C.1     1  LIG1        0.1050
     41 C          -3.8379   -6.9199   -0.1438 C.ar    1  LIG1        0.1078
     42 C          -2.5193   -7.3296    0.0514 C.ar    1  LIG1        0.1640
     43 C          -2.5003   -8.7621    0.0285 C.ar    1  LIG1        0.1112
     44 C          -3.8194   -9.1692   -0.1837 C.ar    1  LIG1        0.0233
     45 N          -4.6011   -8.0709   -0.2782 N.ar    1  LIG1       -0.3553
     46 H          -5.5982   -8.0741   -0.4504 H       1  LIG1        0.1655
     47 H          -4.2190  -10.1678   -0.2648 H       1  LIG1        0.0821
     48 O          -1.5315   -6.4234    0.2458 O.3     1  LIG1       -0.4916
     49 C          -0.1676   -6.8118   -0.0089 C.3     1  LIG1        0.0789
     50 H           0.3980   -5.8810   -0.0330 H       1  LIG1        0.0660
     51 H           0.1989   -7.4707    0.7822 H       1  LIG1        0.0660
     52 H          -0.0892   -7.3180   -0.9756 H       1  LIG1        0.0660
     53 N          -0.5219  -10.3886    0.3645 N.1     1  LIG1       -0.1907
     54 C          -1.4083   -9.6487    0.2112 C.1     1  LIG1        0.1044
@<TRIPOS>BOND
     1    11     9    1
     2    10     9    1
     3    52    49    1
     4    39    40    3
     5     9     8    1
     6     9    12    1
     7     8     2    1
     8    40    30    1
     9    13    14    3
    10    37    35    1
    11    34    29    1
    12    34    35    1
    13    20    19    1
    14    14     3    1
    15     2     3   ar
    16     2     1   ar
    17    30    29   ar
    18    30    31   ar
    19    46    45    1
    20     3     4   ar
    21    29    28   ar
    22    36    35    1
    23     1     7    1
    24     1     5   ar
    25    45    44   ar
    26    45    41   ar
    27    47    44    1
    28    19    15   ar
    29    19    18   ar
    30    31    41    1
    31    31    32   ar
    32    44    43   ar
    33     4     5   ar
    34     4    15    1
    35    35    38    1
    36    41    42   ar
    37    28    32   ar
    38    28    18    1
    39     5     6    1
    40    50    49    1
    41    32    33    1
    42    49    48    1
    43    49    51    1
    44    15    16   ar
    45    18    17   ar
    46    43    42   ar
    47    43    54    1
    48    42    48    1
    49    54    53    3
    50    16    17   ar
    51    16    21    1
    52    17    27    1
    53    21    22    1
    54    27    26    3
    55    24    22    1
    56    22    23    1
    57    22    25    1
