@<TRIPOS>MOLECULE
mol_data/opt/b3lyp/geoms/mol2/13ld13ld-13ld13ld-.out
 54 57 0 0 0
SMALL
GASTEIGER

@<TRIPOS>ATOM
      1 C           1.3210   -0.7965   -0.0012 C.ar    1  LIG1        0.0457
      2 C           1.1008    0.5635   -0.0015 C.ar    1  LIG1        0.1553
      3 C          -0.3177    0.7765   -0.0007 C.ar    1  LIG1        0.1200
      4 C          -0.9287   -0.4926    0.0002 C.ar    1  LIG1        0.0878
      5 N           0.0797   -1.4112   -0.0001 N.ar    1  LIG1       -0.3553
      6 H          -0.0999   -2.4045    0.0002 H       1  LIG1        0.1655
      7 H           2.2314   -1.3716   -0.0016 H       1  LIG1        0.0845
      8 O           1.9754    1.5931   -0.0024 O.3     1  LIG1       -0.4923
      9 C           3.3504    1.2314   -0.0032 C.3     1  LIG1        0.0789
     10 H           3.9145    2.1642   -0.0039 H       1  LIG1        0.0660
     11 H           3.6057    0.6490    0.8916 H       1  LIG1        0.0660
     12 H           3.6045    0.6485   -0.8981 H       1  LIG1        0.0660
     13 N          -1.5843    3.0183   -0.0004 N.1     1  LIG1       -0.1907
     14 C          -0.9847    2.0164   -0.0006 C.1     1  LIG1        0.1050
     15 C          -2.3085   -0.8981    0.0012 C.ar    1  LIG1        0.1083
     16 C          -2.8326   -2.1809    0.0018 C.ar    1  LIG1        0.1647
     17 C          -4.2606   -2.0765    0.0028 C.ar    1  LIG1        0.1207
     18 C          -4.5881   -0.6883    0.0027 C.ar    1  LIG1        0.0883
     19 N          -3.3930   -0.0281    0.0018 N.ar    1  LIG1       -0.3478
     20 H          -3.2866    0.9737    0.0013 H       1  LIG1        0.1661
     21 O          -2.0081   -3.2631    0.0016 O.3     1  LIG1       -0.4916
     22 C          -2.5540   -4.5860    0.0012 C.3     1  LIG1        0.0789
     23 H          -1.6930   -5.2552    0.0006 H       1  LIG1        0.0660
     24 H          -3.1572   -4.7665    0.8950 H       1  LIG1        0.0660
     25 H          -3.1579   -4.7657   -0.8922 H       1  LIG1        0.0660
     26 N          -5.9021   -4.0648    0.0048 N.1     1  LIG1       -0.1907
     27 C          -5.1653   -3.1594    0.0039 C.1     1  LIG1        0.1050
     28 C          -5.9005   -0.0679    0.0034 C.ar    1  LIG1        0.1083
     29 C          -6.4273    1.2440    0.0040 C.ar    1  LIG1        0.1647
     30 C          -7.8498    1.1427    0.0047 C.ar    1  LIG1        0.1207
     31 C          -8.1926   -0.2163    0.0045 C.ar    1  LIG1        0.0883
     32 N          -7.0290   -0.9112    0.0037 N.ar    1  LIG1       -0.3478
     33 H          -7.0123   -1.9240    0.0033 H       1  LIG1        0.1661
     34 O          -5.9488    2.5044    0.0043 O.3     1  LIG1       -0.4916
     35 C          -4.5719    2.8441    0.0029 C.3     1  LIG1        0.0789
     36 H          -4.5302    3.9326    0.0035 H       1  LIG1        0.0660
     37 H          -4.0666    2.4921    0.9080 H       1  LIG1        0.0660
     38 H          -4.0687    2.4932   -0.9037 H       1  LIG1        0.0660
     39 N          -9.6024    3.0309    0.0062 N.1     1  LIG1       -0.1907
     40 C          -8.7673    2.2152    0.0055 C.1     1  LIG1        0.1050
     41 C          -9.4855   -0.8398    0.0048 C.ar    1  LIG1        0.1078
     42 C          -9.8172   -2.1940    0.0044 C.ar    1  LIG1        0.1640
     43 C         -11.2468   -2.2940    0.0050 C.ar    1  LIG1        0.1112
     44 C         -11.7308   -0.9825    0.0058 C.ar    1  LIG1        0.0233
     45 N         -10.6823   -0.1339    0.0057 N.ar    1  LIG1       -0.3553
     46 H         -10.7457    0.8764    0.0060 H       1  LIG1        0.1655
     47 H         -12.7520   -0.6351    0.0064 H       1  LIG1        0.0821
     48 O          -8.8476   -3.1315    0.0037 O.3     1  LIG1       -0.4916
     49 C          -9.2050   -4.5200    0.0025 C.3     1  LIG1        0.0789
     50 H          -8.2553   -5.0515    0.0019 H       1  LIG1        0.0660
     51 H          -9.7835   -4.7727    0.8960 H       1  LIG1        0.0660
     52 H          -9.7839   -4.7712   -0.8911 H       1  LIG1        0.0660
     53 N         -12.7775   -4.3749    0.0049 N.1     1  LIG1       -0.1907
     54 C         -12.0766   -3.4445    0.0049 C.1     1  LIG1        0.1044
@<TRIPOS>BOND
     1    38    35    1
     2    12     9    1
     3    25    22    1
     4    52    49    1
     5    10     9    1
     6     9     8    1
     7     9    11    1
     8     8     2    1
     9     7     1    1
    10     2     1   ar
    11     2     3   ar
    12     1     5   ar
    13     3    14    1
    14     3     4   ar
    15    14    13    3
    16     5     4   ar
    17     5     6    1
    18     4    15    1
    19    23    22    1
    20    15    19   ar
    21    15    16   ar
    22    22    21    1
    23    22    24    1
    24    20    19    1
    25    21    16    1
    26    19    18   ar
    27    16    17   ar
    28    50    49    1
    29    49    48    1
    30    49    51    1
    31    18    17   ar
    32    18    28    1
    33    17    27    1
    34    35    36    1
    35    35    34    1
    36    35    37    1
    37    33    32    1
    38    28    32   ar
    39    28    29   ar
    40    48    42    1
    41    32    31   ar
    42    27    26    3
    43    29    34    1
    44    29    30   ar
    45    42    41   ar
    46    42    43   ar
    47    31    30   ar
    48    31    41    1
    49    30    40    1
    50    41    45   ar
    51    53    54    3
    52    54    43    1
    53    43    44   ar
    54    40    39    3
    55    45    44   ar
    56    45    46    1
    57    44    47    1
