@<TRIPOS>MOLECULE
mol_data/opt/b3lyp/geoms/mol2/13ld13ld-13ld.out
 41 43 0 0 0
SMALL
GASTEIGER

@<TRIPOS>ATOM
      1 C           1.3440   -0.6826   -0.0020 C.ar    1  LIG1        0.0457
      2 C           1.0663    0.6670   -0.0033 C.ar    1  LIG1        0.1553
      3 C          -0.3597    0.8195   -0.0027 C.ar    1  LIG1        0.1200
      4 C          -0.9160   -0.4742   -0.0010 C.ar    1  LIG1        0.0878
      5 N           0.1298   -1.3497   -0.0007 N.ar    1  LIG1       -0.3553
      6 H          -0.0056   -2.3499    0.0006 H       1  LIG1        0.1655
      7 H           2.2783   -1.2180   -0.0020 H       1  LIG1        0.0845
      8 O           1.8964    1.7327   -0.0049 O.3     1  LIG1       -0.4923
      9 C           3.2857    1.4302   -0.0052 C.3     1  LIG1        0.0789
     10 H           3.8090    2.3864   -0.0065 H       1  LIG1        0.0660
     11 H           3.5655    0.8602    0.8902 H       1  LIG1        0.0660
     12 H           3.5646    0.8582   -0.8997 H       1  LIG1        0.0660
     13 N          -1.7350    2.9964   -0.0031 N.1     1  LIG1       -0.1907
     14 C          -1.0840    2.0271   -0.0030 C.1     1  LIG1        0.1050
     15 C          -2.2788   -0.9331    0.0002 C.ar    1  LIG1        0.1083
     16 C          -2.7553   -2.2345    0.0026 C.ar    1  LIG1        0.1647
     17 C          -4.1853   -2.1816    0.0031 C.ar    1  LIG1        0.1207
     18 C          -4.5623   -0.8058    0.0007 C.ar    1  LIG1        0.0883
     19 N          -3.3945   -0.1030   -0.0010 N.ar    1  LIG1       -0.3478
     20 H          -3.3259    0.9028   -0.0041 H       1  LIG1        0.1661
     21 O          -1.8962   -3.2886    0.0044 O.3     1  LIG1       -0.4916
     22 C          -2.4098   -4.6244    0.0056 C.3     1  LIG1        0.0789
     23 H          -1.5342   -5.2742    0.0062 H       1  LIG1        0.0660
     24 H          -3.0090   -4.8175    0.8997 H       1  LIG1        0.0660
     25 H          -3.0089   -4.8191   -0.8883 H       1  LIG1        0.0660
     26 N          -5.8385   -4.1615    0.0082 N.1     1  LIG1       -0.1907
     27 C          -5.0692   -3.2822    0.0063 C.1     1  LIG1        0.1050
     28 C          -5.9041   -0.2436   -0.0006 C.ar    1  LIG1        0.1078
     29 C          -6.5110    1.0344    0.0039 C.ar    1  LIG1        0.1640
     30 C          -7.9304    0.8441   -0.0008 C.ar    1  LIG1        0.1112
     31 C          -8.1686   -0.5194   -0.0080 C.ar    1  LIG1        0.0233
     32 N          -6.9791   -1.1481   -0.0079 N.ar    1  LIG1       -0.3553
     33 H          -6.8772   -2.1530   -0.0119 H       1  LIG1        0.1655
     34 H          -9.1021   -1.0604   -0.0130 H       1  LIG1        0.0821
     35 O          -6.0971    2.3169    0.0123 O.3     1  LIG1       -0.4916
     36 C          -4.7351    2.7102    0.0151 C.3     1  LIG1        0.0789
     37 H          -4.7346    3.7994    0.0232 H       1  LIG1        0.0660
     38 H          -4.2176    2.3701    0.9181 H       1  LIG1        0.0660
     39 H          -4.2182    2.3842   -0.8935 H       1  LIG1        0.0660
     40 N          -9.7146    2.7102    0.0036 N.1     1  LIG1       -0.1907
     41 C          -8.9044    1.8742    0.0017 C.1     1  LIG1        0.1044
@<TRIPOS>BOND
     1    12     9    1
     2    39    36    1
     3    25    22    1
     4    34    31    1
     5    33    32    1
     6    31    32   ar
     7    31    30   ar
     8    32    28   ar
     9    10     9    1
    10     9     8    1
    11     9    11    1
    12     8     2    1
    13    20    19    1
    14     2     3   ar
    15     2     1   ar
    16    13    14    3
    17    14     3    1
    18     3     4   ar
    19     1     7    1
    20     1     5   ar
    21    19    15   ar
    22    19    18   ar
    23     4     5   ar
    24     4    15    1
    25    30    41    1
    26    30    29   ar
    27     5     6    1
    28    28    18    1
    29    28    29   ar
    30    15    16   ar
    31    18    17   ar
    32    41    40    3
    33    16    17   ar
    34    16    21    1
    35    17    27    1
    36    29    35    1
    37    21    22    1
    38    22    23    1
    39    22    24    1
    40    27    26    3
    41    35    36    1
    42    36    37    1
    43    36    38    1
