@<TRIPOS>MOLECULE
mol_data/opt/b3lyp/geoms/mol2/13ld13ld-13ld-13ld.out
 54 57 0 0 0
SMALL
GASTEIGER

@<TRIPOS>ATOM
      1 C           1.1801   -0.6185    0.0338 C.ar    1  LIG1        0.0457
      2 C           0.7944    0.6807   -0.2191 C.ar    1  LIG1        0.1553
      3 C          -0.6395    0.7144   -0.2363 C.ar    1  LIG1        0.1200
      4 C          -1.0861   -0.5986    0.0098 C.ar    1  LIG1        0.0878
      5 N           0.0229   -1.3718    0.1671 N.ar    1  LIG1       -0.3553
      6 H          -0.0354   -2.3565    0.3829 H       1  LIG1        0.1655
      7 H           2.1548   -1.0658    0.1299 H       1  LIG1        0.0845
      8 O           1.5373    1.7902   -0.4251 O.3     1  LIG1       -0.4923
      9 C           2.9463    1.6050   -0.3726 C.3     1  LIG1        0.0789
     10 H           3.3926    2.5827   -0.5543 H       1  LIG1        0.0660
     11 H           3.2589    1.2362    0.6129 H       1  LIG1        0.0660
     12 H           3.2801    0.9000   -1.1449 H       1  LIG1        0.0660
     13 N          -2.2663    2.6828   -0.5663 N.1     1  LIG1       -0.1907
     14 C          -1.4851    1.8258   -0.4252 C.1     1  LIG1        0.1050
     15 C          -2.4154   -1.1317    0.1035 C.ar    1  LIG1        0.1083
     16 C          -2.8421   -2.4167    0.4145 C.ar    1  LIG1        0.1647
     17 C          -4.2751   -2.4279    0.4049 C.ar    1  LIG1        0.1207
     18 C          -4.6877   -1.1228    0.0574 C.ar    1  LIG1        0.0883
     19 N          -3.5582   -0.3721   -0.0993 N.ar    1  LIG1       -0.3478
     20 H          -3.5374    0.5719   -0.4617 H       1  LIG1        0.1661
     21 O          -1.9480   -3.3992    0.7109 O.3     1  LIG1       -0.4916
     22 C          -2.3455   -4.7636    0.5063 C.3     1  LIG1        0.0789
     23 H          -1.4359   -5.3555    0.6154 H       1  LIG1        0.0660
     24 H          -3.0803   -5.0779    1.2501 H       1  LIG1        0.0660
     25 H          -2.7588   -4.9016   -0.4982 H       1  LIG1        0.0660
     26 N          -5.7949   -4.3562    1.2008 N.1     1  LIG1       -0.1907
     27 C          -5.1238   -3.4813    0.8224 C.1     1  LIG1        0.1050
     28 C          -5.9928   -0.5364   -0.0885 C.ar    1  LIG1        0.1083
     29 C          -7.2166   -1.0904   -0.4505 C.ar    1  LIG1        0.1647
     30 C          -8.1813   -0.0293   -0.4838 C.ar    1  LIG1        0.1207
     31 C          -7.5001    1.1609   -0.1560 C.ar    1  LIG1        0.0883
     32 N          -6.1975    0.8331    0.0607 N.ar    1  LIG1       -0.3478
     33 H          -5.5308    1.5173    0.3959 H       1  LIG1        0.1661
     34 O          -7.3600   -2.3819   -0.8080 O.3     1  LIG1       -0.4916
     35 C          -8.5107   -3.0856   -0.3139 C.3     1  LIG1        0.0789
     36 H          -8.3678   -4.1243   -0.6090 H       1  LIG1        0.0660
     37 H          -8.5592   -3.0256    0.7775 H       1  LIG1        0.0660
     38 H          -9.4332   -2.6971   -0.7554 H       1  LIG1        0.0660
     39 N         -10.6871   -0.0082   -1.0867 N.1     1  LIG1       -0.1907
     40 C          -9.5506   -0.0700   -0.8248 C.1     1  LIG1        0.1050
     41 C          -7.9585    2.5154   -0.0364 C.ar    1  LIG1        0.1078
     42 C          -7.2130    3.6625    0.2326 C.ar    1  LIG1        0.1640
     43 C          -8.1133    4.7770    0.2330 C.ar    1  LIG1        0.1112
     44 C          -9.3809    4.2584   -0.0403 C.ar    1  LIG1        0.0233
     45 N          -9.2768    2.9194   -0.1915 N.ar    1  LIG1       -0.3553
     46 H         -10.0397    2.2938   -0.4161 H       1  LIG1        0.1655
     47 H         -10.3241    4.7748   -0.1261 H       1  LIG1        0.0821
     48 O          -5.8803    3.5898    0.4653 O.3     1  LIG1       -0.4916
     49 C          -5.0689    4.7578    0.2306 C.3     1  LIG1        0.0789
     50 H          -4.0408    4.3980    0.2112 H       1  LIG1        0.0660
     51 H          -5.3202    5.2085   -0.7340 H       1  LIG1        0.0660
     52 H          -5.2110    5.4912    1.0281 H       1  LIG1        0.0660
     53 N          -7.6357    7.2722    0.7000 N.1     1  LIG1       -0.1907
     54 C          -7.8437    6.1461    0.4877 C.1     1  LIG1        0.1044
@<TRIPOS>BOND
     1    12     9    1
     2    39    40    3
     3    40    30    1
     4    34    29    1
     5    34    35    1
     6    38    35    1
     7    51    49    1
     8    36    35    1
     9    13    14    3
    10    10     9    1
    11    25    22    1
    12    30    29   ar
    13    30    31   ar
    14    20    19    1
    15    29    28   ar
    16    14     3    1
    17     8     9    1
    18     8     2    1
    19    46    45    1
    20     9    11    1
    21    35    37    1
    22     3     2   ar
    23     3     4   ar
    24     2     1   ar
    25    45    44   ar
    26    45    41   ar
    27    31    41    1
    28    31    32   ar
    29    47    44    1
    30    19    18   ar
    31    19    15   ar
    32    28    18    1
    33    28    32   ar
    34    44    43   ar
    35    41    42   ar
    36     4    15    1
    37     4     5   ar
    38     1     7    1
    39     1     5   ar
    40    18    17   ar
    41    32    33    1
    42    15    16   ar
    43     5     6    1
    44    50    49    1
    45    49    48    1
    46    49    52    1
    47    42    43   ar
    48    42    48    1
    49    43    54    1
    50    17    16   ar
    51    17    27    1
    52    16    21    1
    53    54    53    3
    54    22    23    1
    55    22    21    1
    56    22    24    1
    57    27    26    3
