@<TRIPOS>MOLECULE
mol_data/opt/b3lyp/geoms/mol2/13ld13ld13ld-13ld.out
 54 57 0 0 0
SMALL
GASTEIGER

@<TRIPOS>ATOM
      1 C           1.3021    0.0509    1.0874 C.ar    1  LIG1        0.0457
      2 C           1.2848    0.6677   -0.1474 C.ar    1  LIG1        0.1553
      3 C          -0.0298    0.5099   -0.6961 C.ar    1  LIG1        0.1200
      4 C          -0.7950   -0.1936    0.2420 C.ar    1  LIG1        0.0878
      5 N           0.0369   -0.4677    1.2959 N.ar    1  LIG1       -0.3553
      6 H          -0.2721   -0.9159    2.1443 H       1  LIG1        0.1655
      7 H           2.0864   -0.0624    1.8170 H       1  LIG1        0.0845
      8 O           2.2670    1.3154   -0.8114 O.3     1  LIG1       -0.4923
      9 C           3.5187    1.3916   -0.1419 C.3     1  LIG1        0.0789
     10 H           4.1882    1.9417   -0.8032 H       1  LIG1        0.0660
     11 H           3.4249    1.9269    0.8121 H       1  LIG1        0.0660
     12 H           3.9295    0.3907    0.0447 H       1  LIG1        0.0660
     13 N          -0.8328    1.3476   -3.0020 N.1     1  LIG1       -0.1907
     14 C          -0.4676    0.9637   -1.9646 C.1     1  LIG1        0.1050
     15 C          -2.1678   -0.6882    0.2080 C.ar    1  LIG1        0.1083
     16 C          -3.4257   -0.0982    0.2902 C.ar    1  LIG1        0.1647
     17 C          -4.4044   -1.1451    0.2567 C.ar    1  LIG1        0.1207
     18 C          -3.7163   -2.3665    0.1532 C.ar    1  LIG1        0.0883
     19 N          -2.3900   -2.0707    0.1427 N.ar    1  LIG1       -0.3478
     20 H          -1.6791   -2.7677   -0.0291 H       1  LIG1        0.1661
     21 O          -3.8314    1.1769    0.4320 O.3     1  LIG1       -0.4916
     22 C          -2.8684    2.2285    0.3774 C.3     1  LIG1        0.0789
     23 H          -3.4305    3.1467    0.5504 H       1  LIG1        0.0660
     24 H          -2.1085    2.1137    1.1579 H       1  LIG1        0.0660
     25 H          -2.3880    2.2718   -0.6044 H       1  LIG1        0.0660
     26 N          -6.9698   -0.9257    0.3862 N.1     1  LIG1       -0.1907
     27 C          -5.8061   -0.9903    0.3282 C.1     1  LIG1        0.1050
     28 C          -4.1966   -3.7154    0.0497 C.ar    1  LIG1        0.1083
     29 C          -3.4812   -4.8966   -0.1185 C.ar    1  LIG1        0.1647
     30 C          -4.4197   -5.9754   -0.1830 C.ar    1  LIG1        0.1207
     31 C          -5.7069   -5.3999   -0.0497 C.ar    1  LIG1        0.0883
     32 N          -5.5390   -4.0600    0.0916 N.ar    1  LIG1       -0.3478
     33 H          -6.3180   -3.4180    0.1970 H       1  LIG1        0.1661
     34 O          -2.1225   -4.8960   -0.1752 O.3     1  LIG1       -0.4916
     35 C          -1.4649   -6.0677   -0.6707 C.3     1  LIG1        0.0789
     36 H          -0.4076   -5.8097   -0.7373 H       1  LIG1        0.0660
     37 H          -1.5927   -6.9113    0.0134 H       1  LIG1        0.0660
     38 H          -1.8405   -6.3386   -1.6626 H       1  LIG1        0.0660
     39 N          -4.1392   -8.5247   -0.4364 N.1     1  LIG1       -0.1907
     40 C          -4.2122   -7.3641   -0.3251 C.1     1  LIG1        0.1050
     41 C          -7.0117   -5.9971   -0.0485 C.ar    1  LIG1        0.1078
     42 C          -8.2489   -5.3645    0.0819 C.ar    1  LIG1        0.1640
     43 C          -9.2638   -6.3730    0.0146 C.ar    1  LIG1        0.1112
     44 C          -8.5971   -7.5895   -0.1545 C.ar    1  LIG1        0.0233
     45 N          -7.2673   -7.3544   -0.1883 N.ar    1  LIG1       -0.3553
     46 H          -6.5514   -8.0600   -0.3006 H       1  LIG1        0.1655
     47 H          -9.0079   -8.5825   -0.2477 H       1  LIG1        0.0821
     48 O          -8.3123   -4.0266    0.2514 O.3     1  LIG1       -0.4916
     49 C          -9.5799   -3.3536    0.2278 C.3     1  LIG1        0.0789
     50 H         -10.1025   -3.5461   -0.7138 H       1  LIG1        0.0660
     51 H         -10.2042   -3.6724    1.0670 H       1  LIG1        0.0660
     52 H          -9.3341   -2.2962    0.3156 H       1  LIG1        0.0660
     53 N         -11.8330   -6.1599    0.1796 N.1     1  LIG1       -0.1907
     54 C         -10.6737   -6.2440    0.1053 C.1     1  LIG1        0.1044
@<TRIPOS>BOND
     1    13    14    3
     2    14     3    1
     3    38    35    1
     4     8     2    1
     5     8     9    1
     6    10     9    1
     7    36    35    1
     8    50    49    1
     9     3     2   ar
    10     3     4   ar
    11    35    34    1
    12    35    37    1
    13    25    22    1
    14    39    40    3
    15    40    30    1
    16    46    45    1
    17    47    44    1
    18    45    44   ar
    19    45    41   ar
    20    30    29   ar
    21    30    31   ar
    22    34    29    1
    23    44    43   ar
    24     2     1   ar
    25     9    12    1
    26     9    11    1
    27    29    28   ar
    28    31    41    1
    29    31    32   ar
    30    41    42   ar
    31    20    19    1
    32    43    42   ar
    33    43    54    1
    34    28    32   ar
    35    28    18    1
    36    42    48    1
    37    32    33    1
    38    54    53    3
    39    19    18   ar
    40    19    15   ar
    41    18    17   ar
    42    15     4    1
    43    15    16   ar
    44    49    48    1
    45    49    52    1
    46    49    51    1
    47     4     5   ar
    48    17    16   ar
    49    17    27    1
    50    16    21    1
    51    27    26    3
    52    22    21    1
    53    22    23    1
    54    22    24    1
    55     1     5   ar
    56     1     7    1
    57     5     6    1
