@<TRIPOS>MOLECULE
mol_data/opt/b3lyp/geoms/mol2/13le13le-.out
 30 31 0 0 0
SMALL
GASTEIGER

@<TRIPOS>ATOM
      1 C           1.1591   -0.4342   -0.0002 C.ar    1  LIG1        0.0457
      2 C           0.8030    0.8983   -0.0001 C.ar    1  LIG1        0.1533
      3 C          -0.6297    0.9819    0.0004 C.ar    1  LIG1        0.0930
      4 C          -1.1032   -0.3417    0.0005 C.ar    1  LIG1        0.0857
      5 N          -0.0158   -1.1674    0.0002 N.ar    1  LIG1       -0.3554
      6 H          -0.1029   -2.1725    0.0001 H       1  LIG1        0.1655
      7 H           2.1224   -0.9158   -0.0005 H       1  LIG1        0.0845
      8 O           1.5861    2.0066   -0.0003 O.3     1  LIG1       -0.4924
      9 C           2.9828    1.7632   -0.0007 C.3     1  LIG1        0.0789
     10 H           3.4696    2.7394   -0.0008 H       1  LIG1        0.0660
     11 H           3.2897    1.2028    0.8930 H       1  LIG1        0.0660
     12 H           3.2891    1.2029   -0.8947 H       1  LIG1        0.0660
     13 C          -1.4112    2.1601    0.0007 C.1     1  LIG1       -0.0638
     14 C          -2.1041    3.1573    0.0010 C.1     1  LIG1       -0.1137
     15 H          -2.6710    4.0589    0.0015 H       1  LIG1        0.1232
     16 C          -2.4458   -0.8591    0.0009 C.ar    1  LIG1        0.1077
     17 C          -2.9017   -2.1744    0.0009 C.ar    1  LIG1        0.1620
     18 C          -4.3380   -2.1526    0.0013 C.ar    1  LIG1        0.0842
     19 C          -4.6946   -0.8015    0.0017 C.ar    1  LIG1        0.0213
     20 N          -3.5672   -0.0497    0.0014 N.ar    1  LIG1       -0.3554
     21 H          -3.5116    0.9604    0.0015 H       1  LIG1        0.1655
     22 H          -5.6796   -0.3622    0.0022 H       1  LIG1        0.0820
     23 O          -2.0091   -3.2111    0.0005 O.3     1  LIG1       -0.4917
     24 C          -2.5141   -4.5446   -0.0005 C.3     1  LIG1        0.0789
     25 H          -1.6370   -5.1941   -0.0010 H       1  LIG1        0.0660
     26 H          -3.1183   -4.7416    0.8901 H       1  LIG1        0.0660
     27 H          -3.1183   -4.7402   -0.8915 H       1  LIG1        0.0660
     28 C          -5.2791   -3.2156    0.0016 C.1     1  LIG1       -0.0645
     29 C          -6.1176   -4.0900    0.0018 C.1     1  LIG1       -0.1137
     30 H          -6.8513   -4.8618    0.0025 H       1  LIG1        0.1232
@<TRIPOS>BOND
     1    12     9    1
     2    27    24    1
     3    25    24    1
     4    10     9    1
     5     9     8    1
     6     9    11    1
     7    24    23    1
     8    24    26    1
     9     7     1    1
    10     8     2    1
    11     1     2   ar
    12     1     5   ar
    13     2     3   ar
    14     6     5    1
    15     5     4   ar
    16     3     4   ar
    17     3    13    1
    18    23    17    1
    19     4    16    1
    20    13    14    3
    21    17    16   ar
    22    17    18   ar
    23    16    20   ar
    24    14    15    1
    25    18    28    1
    26    18    19   ar
    27    20    21    1
    28    20    19   ar
    29    28    29    3
    30    19    22    1
    31    29    30    1
