@<TRIPOS>MOLECULE
mol_data/opt/b3lyp/geoms/mol2/13le13le13le.out
 44 46 0 0 0
SMALL
GASTEIGER

@<TRIPOS>ATOM
      1 C           0.3645    1.5203   -1.3959 C.ar    1  LIG1        0.0457
      2 C           0.9160    0.3012   -1.0577 C.ar    1  LIG1        0.1533
      3 C          -0.1314   -0.5464   -0.5641 C.ar    1  LIG1        0.0930
      4 C          -1.3125    0.2121   -0.6230 C.ar    1  LIG1        0.0858
      5 N          -0.9891    1.4427   -1.1220 N.ar    1  LIG1       -0.3554
      6 H          -1.6848    2.1573   -1.2779 H       1  LIG1        0.1655
      7 H           0.8066    2.4162   -1.7985 H       1  LIG1        0.0845
      8 O           2.2039   -0.1190   -1.1358 O.3     1  LIG1       -0.4924
      9 C           3.1234    0.8345   -1.6409 C.3     1  LIG1        0.0789
     10 H           4.1022    0.3530   -1.6436 H       1  LIG1        0.0660
     11 H           2.8624    1.1359   -2.6647 H       1  LIG1        0.0660
     12 H           3.1589    1.7296   -1.0048 H       1  LIG1        0.0660
     13 C           0.0022   -1.8689   -0.0826 C.1     1  LIG1       -0.0638
     14 C           0.0984   -3.0042    0.3350 C.1     1  LIG1       -0.1137
     15 H           0.2100   -3.9809    0.7444 H       1  LIG1        0.1232
     16 C          -2.6685   -0.1142   -0.2691 C.ar    1  LIG1        0.1081
     17 C          -3.7971    0.6949   -0.2443 C.ar    1  LIG1        0.1627
     18 C          -4.9193   -0.1005    0.1529 C.ar    1  LIG1        0.0937
     19 C          -4.4206   -1.4023    0.3607 C.ar    1  LIG1        0.0862
     20 N          -3.0806   -1.3808    0.0977 N.ar    1  LIG1       -0.3478
     21 H          -2.4749   -2.1879    0.1961 H       1  LIG1        0.1661
     22 O          -3.7832    2.0185   -0.6089 O.3     1  LIG1       -0.4917
     23 C          -4.2249    2.9327    0.4061 C.3     1  LIG1        0.0789
     24 H          -4.1387    3.9322   -0.0244 H       1  LIG1        0.0660
     25 H          -5.2664    2.7431    0.6799 H       1  LIG1        0.0660
     26 H          -3.5929    2.8577    1.2989 H       1  LIG1        0.0660
     27 C          -6.2690    0.3057    0.2717 C.1     1  LIG1       -0.0638
     28 C          -7.4310    0.6402    0.3879 C.1     1  LIG1       -0.1137
     29 H          -8.4464    0.9574    0.4457 H       1  LIG1        0.1232
     30 C          -5.0884   -2.6137    0.7547 C.ar    1  LIG1        0.1077
     31 C          -4.5975   -3.9110    0.8490 C.ar    1  LIG1        0.1620
     32 C          -5.6616   -4.7660    1.2885 C.ar    1  LIG1        0.0842
     33 C          -6.7742   -3.9419    1.4431 C.ar    1  LIG1        0.0213
     34 N          -6.4187   -2.6664    1.1311 N.ar    1  LIG1       -0.3554
     35 H          -7.0242   -1.8575    1.1337 H       1  LIG1        0.1655
     36 H          -7.7742   -4.1947    1.7591 H       1  LIG1        0.0820
     37 O          -3.2910   -4.2310    0.5982 O.3     1  LIG1       -0.4917
     38 C          -3.0859   -5.2226   -0.4203 C.3     1  LIG1        0.0789
     39 H          -2.0059   -5.2930   -0.5585 H       1  LIG1        0.0660
     40 H          -3.4877   -6.1912   -0.1106 H       1  LIG1        0.0660
     41 H          -3.5560   -4.9143   -1.3615 H       1  LIG1        0.0660
     42 C          -5.6087   -6.1577    1.5542 C.1     1  LIG1       -0.0645
     43 C          -5.5658   -7.3471    1.7795 C.1     1  LIG1       -0.1137
     44 H          -5.5259   -8.3893    1.9948 H       1  LIG1        0.1232
@<TRIPOS>BOND
     1    11     9    1
     2     7     1    1
     3    10     9    1
     4     9     8    1
     5     9    12    1
     6     1     5   ar
     7     1     2   ar
     8    41    38    1
     9     6     5    1
    10     8     2    1
    11     5     4   ar
    12     2     3   ar
    13     4     3   ar
    14     4    16    1
    15    22    17    1
    16    22    23    1
    17     3    13    1
    18    39    38    1
    19    38    40    1
    20    38    37    1
    21    16    17   ar
    22    16    20   ar
    23    17    18   ar
    24    13    14    3
    25    24    23    1
    26    20    21    1
    27    20    19   ar
    28    18    27    1
    29    18    19   ar
    30    27    28    3
    31    14    15    1
    32    19    30    1
    33    28    29    1
    34    23    25    1
    35    23    26    1
    36    37    31    1
    37    30    31   ar
    38    30    34   ar
    39    31    32   ar
    40    34    35    1
    41    34    33   ar
    42    32    33   ar
    43    32    42    1
    44    33    36    1
    45    42    43    3
    46    43    44    1
