@<TRIPOS>MOLECULE
mol_data/opt/b3lyp/geoms/mol2/13le13le-13le13le-.out
 58 61 0 0 0
SMALL
GASTEIGER

@<TRIPOS>ATOM
      1 C           1.3332   -0.6572    0.2152 C.ar    1  LIG1        0.0457
      2 C           0.9928    0.5994   -0.2429 C.ar    1  LIG1        0.1533
      3 C          -0.4371    0.6741   -0.3353 C.ar    1  LIG1        0.0930
      4 C          -0.9247   -0.5760    0.0824 C.ar    1  LIG1        0.0858
      5 N           0.1527   -1.3530    0.4042 N.ar    1  LIG1       -0.3554
      6 H           0.0484   -2.2935    0.7557 H       1  LIG1        0.1655
      7 H           2.2903   -1.1069    0.4195 H       1  LIG1        0.0845
      8 O           1.7900    1.6456   -0.5774 O.3     1  LIG1       -0.4924
      9 C           3.1817    1.4190   -0.4315 C.3     1  LIG1        0.0789
     10 H           3.6812    2.3403   -0.7340 H       1  LIG1        0.0660
     11 H           3.4408    1.1892    0.6112 H       1  LIG1        0.0660
     12 H           3.5205    0.5933   -1.0723 H       1  LIG1        0.0660
     13 C          -1.2032    1.7738   -0.7848 C.1     1  LIG1       -0.0638
     14 C          -1.8778    2.7072   -1.1676 C.1     1  LIG1       -0.1137
     15 H          -2.4506    3.5177   -1.5534 H       1  LIG1        0.1232
     16 C          -2.2677   -1.0759    0.2078 C.ar    1  LIG1        0.1081
     17 C          -2.7128   -2.3486    0.5443 C.ar    1  LIG1        0.1627
     18 C          -4.1435   -2.3412    0.5646 C.ar    1  LIG1        0.0937
     19 C          -4.5313   -1.0274    0.2290 C.ar    1  LIG1        0.0862
     20 N          -3.3936   -0.2969    0.0278 N.ar    1  LIG1       -0.3478
     21 H          -3.3909    0.6782   -0.2490 H       1  LIG1        0.1661
     22 O          -1.8627   -3.3800    0.8570 O.3     1  LIG1       -0.4917
     23 C          -2.0346   -4.5722    0.0764 C.3     1  LIG1        0.0789
     24 H          -1.2778   -5.2772    0.4257 H       1  LIG1        0.0660
     25 H          -3.0291   -5.0006    0.2268 H       1  LIG1        0.0660
     26 H          -1.8835   -4.3645   -0.9896 H       1  LIG1        0.0660
     27 C          -5.0123   -3.3989    0.9208 C.1     1  LIG1       -0.0638
     28 C          -5.7732   -4.2963    1.2208 C.1     1  LIG1       -0.1137
     29 H          -6.4351   -5.0647    1.5464 H       1  LIG1        0.1232
     30 C          -5.8336   -0.4331    0.1065 C.ar    1  LIG1        0.1082
     31 C          -6.1841    0.8998   -0.0789 C.ar    1  LIG1        0.1627
     32 C          -7.6106    0.9909   -0.1376 C.ar    1  LIG1        0.0937
     33 C          -8.0934   -0.3244    0.0146 C.ar    1  LIG1        0.0862
     34 N          -7.0147   -1.1502    0.1531 N.ar    1  LIG1       -0.3478
     35 H          -7.0928   -2.1476    0.3124 H       1  LIG1        0.1661
     36 O          -5.2658    1.9034   -0.2261 O.3     1  LIG1       -0.4917
     37 C          -5.3205    2.9351    0.7717 C.3     1  LIG1        0.0789
     38 H          -4.4700    3.5897    0.5750 H       1  LIG1        0.0660
     39 H          -6.2527    3.5028    0.6987 H       1  LIG1        0.0660
     40 H          -5.2295    2.5077    1.7769 H       1  LIG1        0.0660
     41 C          -8.3932    2.1506   -0.3479 C.1     1  LIG1       -0.0638
     42 C          -9.0801    3.1378   -0.5171 C.1     1  LIG1       -0.1137
     43 H          -9.6503    4.0189   -0.7000 H       1  LIG1        0.1232
     44 C          -9.4358   -0.8399    0.0245 C.ar    1  LIG1        0.1077
     45 C          -9.8856   -2.1546    0.0744 C.ar    1  LIG1        0.1620
     46 C         -11.3194   -2.1423    0.0670 C.ar    1  LIG1        0.0842
     47 C         -11.6893   -0.8004    0.0091 C.ar    1  LIG1        0.0213
     48 N         -10.5627   -0.0381   -0.0078 N.ar    1  LIG1       -0.3554
     49 H         -10.5210    0.9701   -0.0641 H       1  LIG1        0.1655
     50 H         -12.6750   -0.3626   -0.0131 H       1  LIG1        0.0820
     51 O          -9.0409   -3.2286    0.1664 O.3     1  LIG1       -0.4917
     52 C          -9.1679   -4.1981   -0.8855 C.3     1  LIG1        0.0789
     53 H          -8.3867   -4.9393   -0.7081 H       1  LIG1        0.0660
     54 H         -10.1499   -4.6782   -0.8595 H       1  LIG1        0.0660
     55 H          -9.0141   -3.7300   -1.8648 H       1  LIG1        0.0660
     56 C         -12.2006   -3.2506    0.1397 C.1     1  LIG1       -0.0645
     57 C         -12.9538   -4.1975    0.1988 C.1     1  LIG1       -0.1137
     58 H         -13.6189   -5.0263    0.2682 H       1  LIG1        0.1232
@<TRIPOS>BOND
     1    55    52    1
     2    15    14    1
     3    14    13    3
     4    12     9    1
     5    26    23    1
     6    52    54    1
     7    52    53    1
     8    52    51    1
     9    13     3    1
    10    10     9    1
    11    43    42    1
    12     8     9    1
    13     8     2    1
    14    42    41    3
    15     9    11    1
    16    41    32    1
    17     3     2   ar
    18     3     4   ar
    19    21    20    1
    20     2     1   ar
    21    36    31    1
    22    36    37    1
    23    32    31   ar
    24    32    33   ar
    25    31    30   ar
    26    49    48    1
    27    50    47    1
    28    48    47   ar
    29    48    44   ar
    30    47    46   ar
    31    33    44    1
    32    33    34   ar
    33    44    45   ar
    34    20    16   ar
    35    20    19   ar
    36    46    45   ar
    37    46    56    1
    38    45    51    1
    39    23    25    1
    40    23    24    1
    41    23    22    1
    42     4    16    1
    43     4     5   ar
    44    30    34   ar
    45    30    19    1
    46    56    57    3
    47    34    35    1
    48    57    58    1
    49    16    17   ar
    50     1     5   ar
    51     1     7    1
    52    19    18   ar
    53     5     6    1
    54    17    18   ar
    55    17    22    1
    56    18    27    1
    57    38    37    1
    58    39    37    1
    59    37    40    1
    60    27    28    3
    61    28    29    1
