@<TRIPOS>MOLECULE
mol_data/opt/b3lyp/geoms/mol2/13le6fe6dd6lf-.out
 53 56 0 0 0
SMALL
GASTEIGER

@<TRIPOS>ATOM
      1 C           1.2826   -0.1560   -0.8135 C.ar    1  LIG1        0.0456
      2 C           1.0142    0.9808   -0.0832 C.ar    1  LIG1        0.1532
      3 C          -0.3610    0.9372    0.3327 C.ar    1  LIG1        0.0916
      4 C          -0.8973   -0.2524   -0.1699 C.ar    1  LIG1        0.0709
      5 N           0.1243   -0.9192   -0.8241 N.ar    1  LIG1       -0.3565
      6 H          -0.0497   -1.6440   -1.5057 H       1  LIG1        0.1655
      7 H           2.1824   -0.4997   -1.2961 H       1  LIG1        0.0845
      8 O           1.8287    2.0020    0.2616 O.3     1  LIG1       -0.4924
      9 C           3.1662    1.9087   -0.2094 C.3     1  LIG1        0.0789
     10 H           3.6833    2.7981    0.1514 H       1  LIG1        0.0660
     11 H           3.6629    1.0120    0.1841 H       1  LIG1        0.0660
     12 H           3.1997    1.8868   -1.3066 H       1  LIG1        0.0660
     13 C          -1.0054    1.9041    1.1414 C.1     1  LIG1       -0.0639
     14 C          -1.5467    2.7424    1.8271 C.1     1  LIG1       -0.1137
     15 H          -2.0146    3.4749    2.4430 H       1  LIG1        0.1232
     16 C          -2.4987   -2.2002   -0.0068 C.ar    1  LIG1        0.2223
     17 C          -2.2489   -0.8011   -0.0812 C.ar    1  LIG1        0.0621
     18 C          -3.3726    0.0240   -0.0578 C.ar    1  LIG1       -0.0300
     19 C          -4.6704   -0.5130   -0.0066 C.ar    1  LIG1        0.0516
     20 C          -4.7844   -1.9232   -0.0004 C.ar    1  LIG1        0.0929
     21 N          -3.7117   -2.7233    0.0101 N.ar    1  LIG1       -0.2111
     22 H          -3.2463    1.0995   -0.0822 H       1  LIG1        0.0639
     23 O          -1.4932   -3.1098    0.0286 O.3     1  LIG1       -0.4919
     24 H          -0.6722   -2.6630    0.2888 H       1  LIG1        0.2937
     25 C          -5.7945    0.3653    0.0457 C.1     1  LIG1       -0.0675
     26 C          -6.7235    1.1397    0.0909 C.1     1  LIG1       -0.1138
     27 H          -7.5477    1.8140    0.1346 H       1  LIG1        0.1232
     28 C          -6.3645   -3.7138    0.8641 C.ar    1  LIG1        0.1500
     29 C          -6.0942   -2.6244    0.0035 C.ar    1  LIG1        0.0388
     30 C          -7.1140   -2.2717   -0.8792 C.ar    1  LIG1       -0.0303
     31 C          -8.3160   -2.9887   -0.8950 C.ar    1  LIG1        0.0785
     32 C          -8.4836   -4.0687    0.0069 C.ar    1  LIG1        0.0950
     33 N          -7.5129   -4.4010    0.8629 N.ar    1  LIG1       -0.2342
     34 H          -6.9738   -1.4524   -1.5736 H       1  LIG1        0.0638
     35 N          -4.7242   -4.4764    2.7399 N.1     1  LIG1       -0.1893
     36 C          -5.4228   -4.1324    1.8778 C.1     1  LIG1        0.1198
     37 N         -10.1163   -2.3043   -2.6350 N.1     1  LIG1       -0.1908
     38 C          -9.3237   -2.6273   -1.8471 C.1     1  LIG1        0.1013
     39 C          -9.7212   -6.2793   -0.0532 C.ar    1  LIG1        0.2241
     40 C          -9.7365   -4.8643    0.0692 C.ar    1  LIG1        0.0666
     41 C         -10.9685   -4.2543    0.2752 C.ar    1  LIG1       -0.0043
     42 C         -12.1244   -5.0374    0.3789 C.ar    1  LIG1        0.1357
     43 C         -11.9886   -6.4171    0.2667 C.ar    1  LIG1        0.0728
     44 N         -10.8123   -7.0222    0.0470 N.ar    1  LIG1       -0.2171
     45 H         -11.0513   -3.1778    0.3788 H       1  LIG1        0.0663
     46 H         -12.8593   -7.0680    0.3545 H       1  LIG1        0.0868
     47 O          -8.5352   -6.8655   -0.3182 O.3     1  LIG1       -0.4792
     48 C          -8.5190   -8.2923   -0.4115 C.3     1  LIG1        0.0804
     49 H          -7.4784   -8.5546   -0.6045 H       1  LIG1        0.0660
     50 H          -8.8597   -8.7508    0.5210 H       1  LIG1        0.0660
     51 H          -9.1589   -8.6419   -1.2268 H       1  LIG1        0.0660
     52 O         -13.3140   -4.4035    0.5994 O.3     1  LIG1       -0.5052
     53 H         -14.0214   -5.0605    0.6438 H       1  LIG1        0.2922
@<TRIPOS>BOND
     1    37    38    3
     2    38    31    1
     3    34    30    1
     4     6     5    1
     5    12     9    1
     6     7     1    1
     7    51    48    1
     8    31    30   ar
     9    31    32   ar
    10    30    29   ar
    11     5     1   ar
    12     5     4   ar
    13     1     2   ar
    14    49    48    1
    15    48    47    1
    16    48    50    1
    17    47    39    1
    18     9    10    1
    19     9    11    1
    20     9     8    1
    21     4    17    1
    22     4     3   ar
    23     2     8    1
    24     2     3   ar
    25    22    18    1
    26    17    18   ar
    27    17    16   ar
    28    18    19   ar
    29    39    44   ar
    30    39    40   ar
    31    16    21   ar
    32    16    23    1
    33    19    20   ar
    34    19    25    1
    35    20    29    1
    36    20    21   ar
    37    29    28   ar
    38    32    40    1
    39    32    33   ar
    40    23    24    1
    41    25    26    3
    42    44    43   ar
    43    40    41   ar
    44    26    27    1
    45    43    46    1
    46    43    42   ar
    47    41    45    1
    48    41    42   ar
    49     3    13    1
    50    42    52    1
    51    52    53    1
    52    33    28   ar
    53    28    36    1
    54    13    14    3
    55    14    15    1
    56    36    35    3
