@<TRIPOS>MOLECULE
mol_data/opt/b3lyp/geoms/mol2/13le13le-13le-13le-.out
 58 61 0 0 0
SMALL
GASTEIGER

@<TRIPOS>ATOM
      1 C           1.0760   -0.3952   -0.3084 C.ar    1  LIG1        0.0457
      2 C           0.6242    0.8219   -0.7770 C.ar    1  LIG1        0.1533
      3 C          -0.8069    0.8410   -0.6730 C.ar    1  LIG1        0.0930
      4 C          -1.1794   -0.4010   -0.1311 C.ar    1  LIG1        0.0858
      5 N          -0.0378   -1.1206    0.0764 N.ar    1  LIG1       -0.3554
      6 H          -0.0547   -2.0422    0.4885 H       1  LIG1        0.1655
      7 H           2.0701   -0.7992   -0.2161 H       1  LIG1        0.0845
      8 O           1.3226    1.8752   -1.2701 O.3     1  LIG1       -0.4924
      9 C           2.7297    1.7042   -1.3140 C.3     1  LIG1        0.0789
     10 H           3.1424    2.6235   -1.7315 H       1  LIG1        0.0660
     11 H           3.1428    1.5424   -0.3090 H       1  LIG1        0.0660
     12 H           3.0075    0.8557   -1.9540 H       1  LIG1        0.0660
     13 C          -1.6749    1.8918   -1.0499 C.1     1  LIG1       -0.0638
     14 C          -2.4424    2.7794   -1.3629 C.1     1  LIG1       -0.1137
     15 H          -3.0776    3.5782   -1.6686 H       1  LIG1        0.1232
     16 C          -2.4741   -0.9377    0.1899 C.ar    1  LIG1        0.1081
     17 C          -2.8336   -2.1930    0.6601 C.ar    1  LIG1        0.1627
     18 C          -4.2556   -2.2301    0.8319 C.ar    1  LIG1        0.0937
     19 C          -4.7314   -0.9700    0.4318 C.ar    1  LIG1        0.0862
     20 N          -3.6429   -0.2084    0.0779 N.ar    1  LIG1       -0.3478
     21 H          -3.6770    0.6874   -0.3920 H       1  LIG1        0.1661
     22 O          -1.9092   -3.1606    0.9634 O.3     1  LIG1       -0.4917
     23 C          -2.1339   -4.4395    0.3495 C.3     1  LIG1        0.0789
     24 H          -1.3140   -5.0813    0.6775 H       1  LIG1        0.0660
     25 H          -3.0863   -4.8670    0.6716 H       1  LIG1        0.0660
     26 H          -2.1215   -4.3526   -0.7435 H       1  LIG1        0.0660
     27 C          -5.0140   -3.2780    1.4080 C.1     1  LIG1       -0.0638
     28 C          -5.6425   -4.1796    1.9168 C.1     1  LIG1       -0.1137
     29 H          -6.2162   -4.9562    2.3660 H       1  LIG1        0.1232
     30 C          -6.0636   -0.4103    0.4129 C.ar    1  LIG1        0.1082
     31 C          -7.2918   -0.9366    0.0357 C.ar    1  LIG1        0.1627
     32 C          -8.2865    0.0909    0.1642 C.ar    1  LIG1        0.0937
     33 C          -7.6247    1.2412    0.6134 C.ar    1  LIG1        0.0862
     34 N          -6.2989    0.9134    0.7623 N.ar    1  LIG1       -0.3478
     35 H          -5.5848    1.5596    1.0605 H       1  LIG1        0.1661
     36 O          -7.4841   -2.2249   -0.3527 O.3     1  LIG1       -0.4917
     37 C          -7.9747   -2.3953   -1.6869 C.3     1  LIG1        0.0789
     38 H          -8.0551   -3.4726   -1.8429 H       1  LIG1        0.0660
     39 H          -8.9580   -1.9324   -1.8150 H       1  LIG1        0.0660
     40 H          -7.2741   -1.9717   -2.4171 H       1  LIG1        0.0660
     41 C          -9.6797   -0.0649   -0.0368 C.1     1  LIG1       -0.0638
     42 C         -10.8674   -0.2373   -0.2042 C.1     1  LIG1       -0.1137
     43 H         -11.9118   -0.3976   -0.3367 H       1  LIG1        0.1232
     44 C          -8.1141    2.5594    0.9625 C.ar    1  LIG1        0.1077
     45 C          -8.9403    3.4459    0.2890 C.ar    1  LIG1        0.1620
     46 C          -9.0418    4.6496    1.0753 C.ar    1  LIG1        0.0842
     47 C          -8.2629    4.4447    2.2069 C.ar    1  LIG1        0.0213
     48 N          -7.6898    3.2107    2.1189 N.ar    1  LIG1       -0.3554
     49 H          -7.2195    2.7437    2.8784 H       1  LIG1        0.1655
     50 H          -8.0870    5.0981    3.0474 H       1  LIG1        0.0820
     51 O          -9.4364    3.2184   -0.9551 O.3     1  LIG1       -0.4917
     52 C         -10.8582    3.3321   -1.0895 C.3     1  LIG1        0.0789
     53 H         -11.0778    3.1170   -2.1366 H       1  LIG1        0.0660
     54 H         -11.3626    2.5972   -0.4533 H       1  LIG1        0.0660
     55 H         -11.2030    4.3407   -0.8430 H       1  LIG1        0.0660
     56 C          -9.7323    5.8459    0.7531 C.1     1  LIG1       -0.0645
     57 C         -10.3194    6.8711    0.4859 C.1     1  LIG1       -0.1137
     58 H         -10.8243    7.7768    0.2432 H       1  LIG1        0.1232
@<TRIPOS>BOND
     1    40    37    1
     2    53    52    1
     3    12     9    1
     4    38    37    1
     5    39    37    1
     6    10     9    1
     7    37    36    1
     8    15    14    1
     9    14    13    3
    10     9     8    1
    11     9    11    1
    12     8     2    1
    13    52    51    1
    14    52    55    1
    15    52    54    1
    16    13     3    1
    17    51    45    1
    18     2     3   ar
    19     2     1   ar
    20    26    23    1
    21     3     4   ar
    22    21    20    1
    23    36    31    1
    24    43    42    1
    25     1     7    1
    26     1     5   ar
    27    42    41    3
    28     4     5   ar
    29     4    16    1
    30    41    32    1
    31    31    32   ar
    32    31    30   ar
    33     5     6    1
    34    20    16   ar
    35    20    19   ar
    36    32    33   ar
    37    16    17   ar
    38    58    57    1
    39    45    44   ar
    40    45    46   ar
    41    23    25    1
    42    23    24    1
    43    23    22    1
    44    30    19    1
    45    30    34   ar
    46    19    18   ar
    47    57    56    3
    48    33    34   ar
    49    33    44    1
    50    17    18   ar
    51    17    22    1
    52    56    46    1
    53    34    35    1
    54    18    27    1
    55    44    48   ar
    56    46    47   ar
    57    27    28    3
    58    28    29    1
    59    48    47   ar
    60    48    49    1
    61    47    50    1
