@<TRIPOS>MOLECULE
mol_data/opt/b3lyp/geoms/mol2/13le13le-13le.out
 44 46 0 0 0
SMALL
GASTEIGER

@<TRIPOS>ATOM
      1 C           1.3184   -0.6727    0.1855 C.ar    1  LIG1        0.0457
      2 C           0.9848    0.6267   -0.1390 C.ar    1  LIG1        0.1533
      3 C          -0.4435    0.7126   -0.2459 C.ar    1  LIG1        0.0930
      4 C          -0.9368   -0.5746    0.0256 C.ar    1  LIG1        0.0858
      5 N           0.1354   -1.3834    0.2789 N.ar    1  LIG1       -0.3554
      6 H           0.0264   -2.3565    0.5238 H       1  LIG1        0.1655
      7 H           2.2724   -1.1432    0.3548 H       1  LIG1        0.0845
      8 O           1.7870    1.7015   -0.3457 O.3     1  LIG1       -0.4924
      9 C           3.1765    1.4569   -0.2075 C.3     1  LIG1        0.0789
     10 H           3.6809    2.4045   -0.4009 H       1  LIG1        0.0660
     11 H           3.4215    1.1137    0.8071 H       1  LIG1        0.0660
     12 H           3.5226    0.7053   -0.9303 H       1  LIG1        0.0660
     13 C          -1.2024    1.8552   -0.5884 C.1     1  LIG1       -0.0638
     14 C          -1.8697    2.8254   -0.8814 C.1     1  LIG1       -0.1137
     15 H          -2.4347    3.6738   -1.1893 H       1  LIG1        0.1232
     16 C          -2.2813   -1.0853    0.0715 C.ar    1  LIG1        0.1081
     17 C          -2.7284   -2.3889    0.2429 C.ar    1  LIG1        0.1627
     18 C          -4.1601   -2.3832    0.2419 C.ar    1  LIG1        0.0937
     19 C          -4.5447   -1.0388    0.0656 C.ar    1  LIG1        0.0862
     20 N          -3.4064   -0.2900   -0.0281 N.ar    1  LIG1       -0.3478
     21 H          -3.4031    0.7119   -0.1836 H       1  LIG1        0.1661
     22 O          -1.8853   -3.4552    0.4357 O.3     1  LIG1       -0.4917
     23 C          -2.0092   -4.5100   -0.5304 C.3     1  LIG1        0.0789
     24 H          -1.2703   -5.2649   -0.2549 H       1  LIG1        0.0660
     25 H          -3.0088   -4.9524   -0.5038 H       1  LIG1        0.0660
     26 H          -1.8008   -4.1385   -1.5408 H       1  LIG1        0.0660
     27 C          -5.0301   -3.4833    0.4265 C.1     1  LIG1       -0.0638
     28 C          -5.7914   -4.4183    0.5739 C.1     1  LIG1       -0.1137
     29 H          -6.4309   -5.2537    0.7413 H       1  LIG1        0.1232
     30 C          -5.8480   -0.4340   -0.0006 C.ar    1  LIG1        0.1077
     31 C          -6.2049    0.9080   -0.0660 C.ar    1  LIG1        0.1620
     32 C          -7.6356    0.9932   -0.1157 C.ar    1  LIG1        0.0842
     33 C          -8.0978   -0.3204   -0.0750 C.ar    1  LIG1        0.0213
     34 N          -7.0272   -1.1576   -0.0150 N.ar    1  LIG1       -0.3554
     35 H          -7.0571   -2.1659    0.0434 H       1  LIG1        0.1655
     36 H          -9.1112   -0.6900   -0.0929 H       1  LIG1        0.0820
     37 O          -5.2850    1.9194   -0.1228 O.3     1  LIG1       -0.4917
     38 C          -5.3899    2.9047    0.9168 C.3     1  LIG1        0.0789
     39 H          -4.5413    3.5769    0.7807 H       1  LIG1        0.0660
     40 H          -6.3266    3.4629    0.8345 H       1  LIG1        0.0660
     41 H          -5.3291    2.4337    1.9048 H       1  LIG1        0.0660
     42 C          -8.4366    2.1583   -0.2222 C.1     1  LIG1       -0.0645
     43 C          -9.1222    3.1529   -0.3106 C.1     1  LIG1       -0.1137
     44 H          -9.7261    4.0249   -0.4060 H       1  LIG1        0.1232
@<TRIPOS>BOND
     1    26    23    1
     2    15    14    1
     3    12     9    1
     4    14    13    3
     5    13     3    1
     6    23    25    1
     7    23    24    1
     8    23    22    1
     9    44    43    1
    10    10     9    1
    11     8     9    1
    12     8     2    1
    13    43    42    3
    14     3     2   ar
    15     3     4   ar
    16    42    32    1
    17     9    11    1
    18    21    20    1
    19     2     1   ar
    20    37    31    1
    21    37    38    1
    22    32    33   ar
    23    32    31   ar
    24    36    33    1
    25    33    34   ar
    26    31    30   ar
    27    20    19   ar
    28    20    16   ar
    29    34    30   ar
    30    34    35    1
    31    30    19    1
    32     4    16    1
    33     4     5   ar
    34    19    18   ar
    35    16    17   ar
    36     1     5   ar
    37     1     7    1
    38    18    17   ar
    39    18    27    1
    40    17    22    1
    41     5     6    1
    42    27    28    3
    43    28    29    1
    44    39    38    1
    45    40    38    1
    46    38    41    1
