@<TRIPOS>MOLECULE
mol_data/opt/b3lyp/geoms/mol2/13le13le.out
 30 31 0 0 0
SMALL
GASTEIGER

@<TRIPOS>ATOM
      1 C           0.8804    0.6264   -1.0706 C.ar    1  LIG1        0.0457
      2 C           1.2190    0.8751    0.2438 C.ar    1  LIG1        0.1533
      3 C           0.0640    0.6308    1.0600 C.ar    1  LIG1        0.0930
      4 C          -0.9602    0.2334    0.1849 C.ar    1  LIG1        0.0857
      5 N          -0.4484    0.2395   -1.0805 N.ar    1  LIG1       -0.3554
      6 H          -0.9967   -0.0420   -1.8802 H       1  LIG1        0.1655
      7 H           1.4555    0.6868   -1.9792 H       1  LIG1        0.0845
      8 O           2.3994    1.2823    0.7742 O.3     1  LIG1       -0.4924
      9 C           3.4504    1.4746   -0.1582 C.3     1  LIG1        0.0789
     10 H           4.3214    1.7938    0.4156 H       1  LIG1        0.0660
     11 H           3.6854    0.5429   -0.6907 H       1  LIG1        0.0660
     12 H           3.1939    2.2498   -0.8932 H       1  LIG1        0.0660
     13 C          -0.0286    0.7630    2.4649 C.1     1  LIG1       -0.0638
     14 C          -0.1322    0.8642    3.6703 C.1     1  LIG1       -0.1137
     15 H          -0.1792    0.9747    4.7285 H       1  LIG1        0.1232
     16 C          -2.3282   -0.1389    0.4372 C.ar    1  LIG1        0.1077
     17 C          -3.3423   -0.4729   -0.4512 C.ar    1  LIG1        0.1620
     18 C          -4.5194   -0.7908    0.3052 C.ar    1  LIG1        0.0842
     19 C          -4.1670   -0.6288    1.6435 C.ar    1  LIG1        0.0213
     20 N          -2.8624   -0.2494    1.7072 N.ar    1  LIG1       -0.3554
     21 H          -2.3314   -0.0498    2.5446 H       1  LIG1        0.1655
     22 H          -4.7657   -0.7684    2.5300 H       1  LIG1        0.0820
     23 O          -3.1540   -0.5269   -1.8101 O.3     1  LIG1       -0.4917
     24 C          -4.0632    0.2687   -2.5855 C.3     1  LIG1        0.0789
     25 H          -3.7818    0.1217   -3.6300 H       1  LIG1        0.0660
     26 H          -5.0957   -0.0567   -2.4356 H       1  LIG1        0.0660
     27 H          -3.9721    1.3297   -2.3233 H       1  LIG1        0.0660
     28 C          -5.7811   -1.2219   -0.1772 C.1     1  LIG1       -0.0645
     29 C          -6.8604   -1.5891   -0.5869 C.1     1  LIG1       -0.1137
     30 H          -7.8052   -1.9288   -0.9422 H       1  LIG1        0.1232
@<TRIPOS>BOND
     1    25    24    1
     2    24    26    1
     3    24    27    1
     4    24    23    1
     5     7     1    1
     6     6     5    1
     7    23    17    1
     8     5     1   ar
     9     5     4   ar
    10     1     2   ar
    11    30    29    1
    12    12     9    1
    13    11     9    1
    14    29    28    3
    15    17    18   ar
    16    17    16   ar
    17    28    18    1
    18     9    10    1
    19     9     8    1
    20     4    16    1
    21     4     3   ar
    22     2     8    1
    23     2     3   ar
    24    18    19   ar
    25    16    20   ar
    26     3    13    1
    27    19    20   ar
    28    19    22    1
    29    20    21    1
    30    13    14    3
    31    14    15    1
