@<TRIPOS>MOLECULE
mol_data/opt/b3lyp/geoms/mol2/13le12ae4ai4lf-.out
 52 55 0 0 0
SMALL
GASTEIGER

@<TRIPOS>ATOM
      1 C           1.3315   -0.0782   -0.4367 C.ar    1  LIG1        0.0444
      2 C           0.8645    1.2248   -0.3441 C.ar    1  LIG1        0.1380
      3 C          -0.5382    1.1862   -0.1420 C.ar    1  LIG1        0.0085
      4 C          -0.9026   -0.1554   -0.1154 C.ar    1  LIG1        0.0895
      5 N           0.2355   -0.9056   -0.2962 N.ar    1  LIG1       -0.3551
      6 H           0.2510   -1.9119   -0.3078 H       1  LIG1        0.1655
      7 H           2.3213   -0.4763   -0.5864 H       1  LIG1        0.0844
      8 O           1.5611    2.3934   -0.4228 O.3     1  LIG1       -0.4936
      9 C           2.9553    2.2555   -0.6292 C.3     1  LIG1        0.0789
     10 H           3.3677    3.2648   -0.6720 H       1  LIG1        0.0660
     11 H           3.4301    1.7042    0.1946 H       1  LIG1        0.0660
     12 H           3.1711    1.7349   -1.5729 H       1  LIG1        0.0660
     13 H          -1.2003    2.0306   -0.0309 H       1  LIG1        0.0676
     14 C          -2.1859   -0.7706    0.0576 C.ar    1  LIG1        0.1968
     15 C          -3.4538   -0.2743    0.2507 C.ar    1  LIG1        0.2073
     16 C          -4.3193   -1.3956    0.3630 C.ar    1  LIG1        0.2059
     17 C          -3.5540   -2.5344    0.2446 C.ar    1  LIG1        0.1822
     18 O          -2.2457   -2.1464    0.0433 O.2     1  LIG1       -0.4457
     19 O          -3.8133    1.0349    0.3113 O.3     1  LIG1       -0.5008
     20 H          -4.7761    1.0657    0.4092 H       1  LIG1        0.2924
     21 O          -5.6676   -1.2385    0.5486 O.3     1  LIG1       -0.5008
     22 H          -6.1355   -1.9544    0.0970 H       1  LIG1        0.2924
     23 C          -2.9738   -4.9076   -0.2561 C.ar    1  LIG1        0.0390
     24 C          -3.8669   -3.9451    0.2503 C.ar    1  LIG1        0.0394
     25 C          -5.0728   -4.4367    0.7813 C.ar    1  LIG1       -0.0446
     26 C          -5.3734   -5.7973    0.7534 C.ar    1  LIG1       -0.0237
     27 C          -4.4179   -6.6627    0.1701 C.ar    1  LIG1        0.0774
     28 N          -3.2351   -6.2106   -0.2885 N.ar    1  LIG1       -0.2539
     29 H          -5.7624   -3.7574    1.2761 H       1  LIG1        0.0628
     30 H          -2.0088   -4.5970   -0.6488 H       1  LIG1        0.0837
     31 C          -6.6484   -6.2972    1.3845 C.3     1  LIG1       -0.0377
     32 H          -6.4750   -7.2158    1.9525 H       1  LIG1        0.0278
     33 H          -7.3979   -6.5299    0.6226 H       1  LIG1        0.0278
     34 H          -7.0650   -5.5478    2.0636 H       1  LIG1        0.0278
     35 C          -5.6724   -8.7573   -0.5762 C.ar    1  LIG1        0.1293
     36 C          -5.7617  -10.1512   -0.6228 C.ar    1  LIG1       -0.0190
     37 C          -4.5947   -8.1436    0.0995 C.ar    1  LIG1        0.0425
     38 C          -4.7802  -10.9373   -0.0155 C.ar    1  LIG1       -0.0553
     39 H          -6.5804  -10.6353   -1.1411 H       1  LIG1        0.0654
     40 C          -3.6183   -8.9645    0.6710 C.ar    1  LIG1       -0.0461
     41 C          -3.6891  -10.3625    0.6382 C.ar    1  LIG1       -0.0496
     42 H          -2.7741   -8.4799    1.1533 H       1  LIG1        0.0628
     43 H          -4.8692  -12.0197   -0.0654 H       1  LIG1        0.0621
     44 O          -6.5683   -7.9197   -1.1883 O.3     1  LIG1       -0.4945
     45 C          -7.6013   -8.4961   -1.9716 C.3     1  LIG1        0.0788
     46 H          -8.1573   -7.6598   -2.3980 H       1  LIG1        0.0660
     47 H          -7.1949   -9.1113   -2.7840 H       1  LIG1        0.0660
     48 H          -8.2811   -9.1082   -1.3649 H       1  LIG1        0.0660
     49 C          -2.6275  -11.2082    1.3015 C.3     1  LIG1       -0.0397
     50 H          -2.7333  -11.2047    2.3935 H       1  LIG1        0.0278
     51 H          -1.6223  -10.8377    1.0751 H       1  LIG1        0.0278
     52 H          -2.6834  -12.2493    0.9706 H       1  LIG1        0.0278
@<TRIPOS>BOND
     1    47    45    1
     2    46    45    1
     3    45    48    1
     4    45    44    1
     5    12     9    1
     6    44    35    1
     7    39    36    1
     8    10     9    1
     9    30    23    1
    10     9     8    1
    11     9    11    1
    12    36    35   ar
    13    36    38   ar
    14     7     1    1
    15    35    37   ar
    16     1     2   ar
    17     1     5   ar
    18     8     2    1
    19     2     3   ar
    20     6     5    1
    21     5     4   ar
    22    28    23   ar
    23    28    27   ar
    24    23    24   ar
    25     3     4   ar
    26     3    13    1
    27     4    14    1
    28    43    38    1
    29    38    41   ar
    30    18    14   ar
    31    18    17   ar
    32    14    15   ar
    33    22    21    1
    34    37    27    1
    35    37    40   ar
    36    27    26   ar
    37    17    24    1
    38    17    16   ar
    39    24    25   ar
    40    15    19    1
    41    15    16   ar
    42    19    20    1
    43    16    21    1
    44    33    31    1
    45    41    40   ar
    46    41    49    1
    47    40    42    1
    48    26    25   ar
    49    26    31    1
    50    25    29    1
    51    52    49    1
    52    51    49    1
    53    49    50    1
    54    31    32    1
    55    31    34    1
