@<TRIPOS>MOLECULE
mol_data/opt/b3lyp/geoms/mol2/13le13al4fa13fe12id-4df-6ih13lh-.out
 101 108 0 0 0
SMALL
GASTEIGER

@<TRIPOS>ATOM
      1 C           0.9768    0.3580   -0.4162 C.ar    1  LIG1        0.0457
      2 C           0.5042    1.6517   -0.4054 C.ar    1  LIG1        0.1533
      3 C          -0.9078    1.6193   -0.1389 C.ar    1  LIG1        0.0929
      4 C          -1.2540    0.2702    0.0093 C.ar    1  LIG1        0.0822
      5 N          -0.1135   -0.4737   -0.1919 N.ar    1  LIG1       -0.3555
      6 H          -0.0291   -1.4318    0.1089 H       1  LIG1        0.1655
      7 H           1.9638   -0.0419   -0.5784 H       1  LIG1        0.0845
      8 O           1.1643    2.8159   -0.6199 O.3     1  LIG1       -0.4924
      9 C           2.5550    2.6907   -0.8671 C.3     1  LIG1        0.0789
     10 H           2.9379    3.7016   -1.0124 H       1  LIG1        0.0660
     11 H           3.0703    2.2243   -0.0162 H       1  LIG1        0.0660
     12 H           2.7470    2.0947   -1.7699 H       1  LIG1        0.0660
     13 C          -1.7695    2.7393   -0.0811 C.1     1  LIG1       -0.0638
     14 C          -2.4969    3.7068   -0.0252 C.1     1  LIG1       -0.1137
     15 H          -3.1296    4.5625    0.0066 H       1  LIG1        0.1232
     16 C          -2.5210   -0.3541    0.2951 C.ar    1  LIG1        0.0682
     17 C          -3.6542    0.1392    0.9267 C.ar    1  LIG1        0.0075
     18 C          -4.6167   -0.9046    0.9392 C.ar    1  LIG1        0.1460
     19 C          -4.0719   -2.0249    0.3111 C.ar    1  LIG1        0.0927
     20 N          -2.7648   -1.6757   -0.0287 N.ar    1  LIG1       -0.3500
     21 H          -2.2759   -2.1504   -0.7734 H       1  LIG1        0.1661
     22 H          -3.7409    1.1245    1.3560 H       1  LIG1        0.0676
     23 O          -5.8402   -0.9105    1.5269 O.3     1  LIG1       -0.4930
     24 C          -6.2612    0.3157    2.1021 C.3     1  LIG1        0.0789
     25 H          -7.2638    0.1404    2.4955 H       1  LIG1        0.0660
     26 H          -5.6007    0.6252    2.9230 H       1  LIG1        0.0660
     27 H          -6.3002    1.1192    1.3552 H       1  LIG1        0.0660
     28 C          -5.8784   -3.6481   -0.3739 C.ar    1  LIG1        0.1267
     29 C          -6.3109   -4.9552   -0.5854 C.ar    1  LIG1       -0.0103
     30 C          -4.5638   -3.3771    0.0767 C.ar    1  LIG1        0.0433
     31 C          -5.4514   -6.0531   -0.3983 C.ar    1  LIG1        0.0054
     32 H          -7.3274   -5.1283   -0.9241 H       1  LIG1        0.0661
     33 C          -3.7139   -4.4857    0.2441 C.ar    1  LIG1       -0.0484
     34 C          -4.1301   -5.7894    0.0084 C.ar    1  LIG1       -0.0517
     35 H          -2.7016   -4.3085    0.5957 H       1  LIG1        0.0625
     36 O          -6.6943   -2.5865   -0.6222 O.3     1  LIG1       -0.5061
     37 H          -7.5575   -2.9167   -0.9042 H       1  LIG1        0.2922
     38 H          -3.4151   -6.5959    0.1425 H       1  LIG1        0.0624
     39 C          -5.9293   -7.4107   -0.6176 C.ar    1  LIG1        0.0904
     40 C          -7.0984   -7.9021   -1.1912 C.ar    1  LIG1        0.1581
     41 C          -7.0697   -9.3285   -1.1703 C.ar    1  LIG1        0.0949
     42 C          -5.8596   -9.6950   -0.5559 C.ar    1  LIG1        0.1021
     43 N          -5.1999   -8.5340   -0.2546 N.ar    1  LIG1       -0.3478
     44 H          -4.3449   -8.5126    0.2772 H       1  LIG1        0.1661
     45 O          -8.0962   -7.1471   -1.7208 O.3     1  LIG1       -0.5035
     46 H          -8.7608   -7.7539   -2.0830 H       1  LIG1        0.2923
     47 C          -8.0735  -10.1157   -1.7802 C.1     1  LIG1       -0.0637
     48 C          -8.9881  -10.6837   -2.3397 C.1     1  LIG1       -0.1137
     49 H          -9.7680  -11.2196   -2.8295 H       1  LIG1        0.1232
     50 C          -5.2687  -10.9715   -0.2503 C.ar    1  LIG1        0.1572
     51 C          -5.7486  -12.2239    0.0491 C.ar    1  LIG1        0.0148
     52 C          -4.5791  -13.0294    0.2979 C.ar    1  LIG1        0.1010
     53 C          -3.4703  -12.2172    0.1692 C.ar    1  LIG1        0.1547
     54 O          -3.8872  -10.9666   -0.1772 O.2     1  LIG1       -0.4517
     55 C          -7.1649  -12.6954    0.1514 C.3     1  LIG1       -0.0348
     56 H          -7.2504  -13.4706    0.9178 H       1  LIG1        0.0279
     57 H          -7.5181  -13.1222   -0.7933 H       1  LIG1        0.0279
     58 H          -7.8353  -11.8731    0.4075 H       1  LIG1        0.0279
     59 N          -4.6625  -15.5830    0.6796 N.1     1  LIG1       -0.1907
     60 C          -4.5989  -14.4306    0.5311 C.1     1  LIG1        0.1032
     61 C          -1.4018  -13.1977    1.2393 C.ar    1  LIG1        0.0632
     62 C          -0.0102  -13.3848    1.2004 C.ar    1  LIG1       -0.0324
     63 C          -2.0274  -12.4321    0.2274 C.ar    1  LIG1        0.0394
     64 C           0.7995  -12.8242    0.2113 C.ar    1  LIG1        0.0266
     65 H           0.4575  -13.9641    1.9890 H       1  LIG1        0.0638
     66 C          -1.2206  -11.8530   -0.7607 C.ar    1  LIG1       -0.0076
     67 C           0.1606  -12.0464   -0.7813 C.ar    1  LIG1        0.1253
     68 H          -1.6927  -11.2719   -1.5481 H       1  LIG1        0.0662
     69 N          -2.6702  -14.0993    3.3149 N.1     1  LIG1       -0.1908
     70 C          -2.1250  -13.7063    2.3649 C.1     1  LIG1        0.0999
     71 O           0.9342  -11.5273   -1.7722 O.3     1  LIG1       -0.5061
     72 H           0.3768  -11.0429   -2.3961 H       1  LIG1        0.2922
     73 C           3.2355  -12.0703    0.3196 C.ar    1  LIG1        0.0469
     74 C           2.2630  -13.0886    0.2051 C.ar    1  LIG1        0.0084
     75 C           2.7080  -14.4103    0.1469 C.ar    1  LIG1       -0.0294
     76 C           4.0719  -14.7341    0.1668 C.ar    1  LIG1        0.0531
     77 C           4.9777  -13.6375    0.2002 C.ar    1  LIG1        0.1116
     78 N           4.5355  -12.3692    0.3078 N.ar    1  LIG1       -0.2478
     79 H           1.9786  -15.2150    0.0906 H       1  LIG1        0.0643
     80 C           2.8850  -10.6113    0.4803 C.3     1  LIG1       -0.0217
     81 H           2.0381  -10.4688    1.1592 H       1  LIG1        0.0293
     82 H           2.6127  -10.1625   -0.4810 H       1  LIG1        0.0293
     83 H           3.7500  -10.0764    0.8767 H       1  LIG1        0.0293
     84 N           4.4788  -16.0493    0.2277 N.pl3   1  LIG1       -0.3563
     85 H           3.7845  -16.7460    0.0050 H       1  LIG1        0.1424
     86 H           5.4301  -16.2779   -0.0424 H       1  LIG1        0.1424
     87 C           6.4373  -13.7625    0.1941 C.ar    1  LIG1        0.1108
     88 C           7.3758  -14.7262   -0.1930 C.ar    1  LIG1        0.1673
     89 C           8.6831  -14.2274    0.0547 C.ar    1  LIG1        0.0851
     90 C           8.5220  -12.9532    0.5759 C.ar    1  LIG1        0.0267
     91 N           7.1778  -12.6945    0.6391 N.ar    1  LIG1       -0.3548
     92 H           6.7179  -11.8395    0.9146 H       1  LIG1        0.1655
     93 H           9.2564  -12.2380    0.9129 H       1  LIG1        0.0827
     94 O           7.1397  -15.9719   -0.7555 O.3     1  LIG1       -0.4911
     95 C           7.0108  -15.9379   -2.1850 C.3     1  LIG1        0.0790
     96 H           7.9120  -15.5181   -2.6456 H       1  LIG1        0.0660
     97 H           6.8795  -16.9718   -2.5129 H       1  LIG1        0.0660
     98 H           6.1436  -15.3405   -2.4881 H       1  LIG1        0.0660
     99 N           9.8819  -14.9425   -0.1397 N.pl3   1  LIG1       -0.3540
    100 H           9.6925  -15.8587   -0.5301 H       1  LIG1        0.1425
    101 H          10.5493  -14.4554   -0.7272 H       1  LIG1        0.1425
@<TRIPOS>BOND
     1    49    48    1
     2    96    95    1
     3    97    95    1
     4    98    95    1
     5    72    71    1
     6    48    47    3
     7    95    94    1
     8    46    45    1
     9    47    41    1
    10    71    67    1
    11    12     9    1
    12    45    40    1
    13    68    66    1
    14    40    41   ar
    15    40    39   ar
    16    41    42   ar
    17    10     9    1
    18    32    29    1
    19    37    36    1
    20     9     8    1
    21     9    11    1
    22    57    55    1
    23    67    66   ar
    24    67    64   ar
    25    21    20    1
    26    66    63   ar
    27    94    88    1
    28   101    99    1
    29    36    28    1
    30     8     2    1
    31    39    31    1
    32    39    43   ar
    33    29    31   ar
    34    29    28   ar
    35     7     1    1
    36    42    43   ar
    37    42    50    1
    38   100    99    1
    39    82    80    1
    40     1     2   ar
    41     1     5   ar
    42     2     3   ar
    43    31    34   ar
    44    28    30   ar
    45    43    44    1
    46    50    54   ar
    47    50    51   ar
    48    88    89   ar
    49    88    87   ar
    50     5     4   ar
    51     5     6    1
    52    54    53   ar
    53    99    89    1
    54     3    13    1
    55     3     4   ar
    56    13    14    3
    57    86    84    1
    58    20    16   ar
    59    20    19   ar
    60    14    15    1
    61    85    84    1
    62    34    38    1
    63    34    33   ar
    64     4    16    1
    65    51    55    1
    66    51    52   ar
    67    89    90   ar
    68    30    33   ar
    69    30    19    1
    70    79    75    1
    71    75    76   ar
    72    75    74   ar
    73    55    58    1
    74    55    56    1
    75    76    77   ar
    76    76    84    1
    77    53    63    1
    78    53    52   ar
    79    87    77    1
    80    87    91   ar
    81    77    78   ar
    82    74    64    1
    83    74    73   ar
    84    64    62   ar
    85    63    61   ar
    86    33    35    1
    87    16    17   ar
    88    52    60    1
    89    78    73   ar
    90    19    18   ar
    91    73    80    1
    92    80    83    1
    93    80    81    1
    94    60    59    3
    95    90    91   ar
    96    90    93    1
    97    91    92    1
    98    17    18   ar
    99    17    22    1
   100    18    23    1
   101    62    61   ar
   102    62    65    1
   103    61    70    1
   104    27    24    1
   105    23    24    1
   106    24    25    1
   107    24    26    1
   108    70    69    3
