@<TRIPOS>MOLECULE
mol_data/opt/b3lyp/geoms/mol2/13le13le13le-13le-.out
 58 61 0 0 0
SMALL
GASTEIGER

@<TRIPOS>ATOM
      1 C           1.0644   -0.1048    1.1149 C.ar    1  LIG1        0.0457
      2 C           0.9971    0.6983   -0.0040 C.ar    1  LIG1        0.1533
      3 C          -0.3376    0.6313   -0.5304 C.ar    1  LIG1        0.0930
      4 C          -1.0625   -0.2146    0.3183 C.ar    1  LIG1        0.0858
      5 N          -0.1913   -0.6645    1.2833 N.ar    1  LIG1       -0.3554
      6 H          -0.4849   -1.1793    2.0980 H       1  LIG1        0.1655
      7 H           1.8769   -0.3308    1.7851 H       1  LIG1        0.0845
      8 O           1.9661    1.4389   -0.5970 O.3     1  LIG1       -0.4924
      9 C           3.2386    1.3876    0.0266 C.3     1  LIG1        0.0789
     10 H           3.9002    2.0237   -0.5627 H       1  LIG1        0.0660
     11 H           3.1929    1.7653    1.0574 H       1  LIG1        0.0660
     12 H           3.6343    0.3628    0.0402 H       1  LIG1        0.0660
     13 C          -0.8032    1.2543   -1.7132 C.1     1  LIG1       -0.0638
     14 C          -1.2012    1.7938   -2.7218 C.1     1  LIG1       -0.1137
     15 H          -1.5512    2.2577   -3.6141 H       1  LIG1        0.1232
     16 C          -2.4270   -0.7098    0.2620 C.ar    1  LIG1        0.1081
     17 C          -3.6822   -0.1182    0.1339 C.ar    1  LIG1        0.1627
     18 C          -4.6694   -1.1593    0.1183 C.ar    1  LIG1        0.0937
     19 C          -3.9819   -2.3762    0.2464 C.ar    1  LIG1        0.0862
     20 N          -2.6548   -2.0848    0.3544 N.ar    1  LIG1       -0.3478
     21 H          -1.9442   -2.8031    0.3506 H       1  LIG1        0.1661
     22 O          -4.0644    1.1767    0.0578 O.3     1  LIG1       -0.4917
     23 C          -3.2291    2.1719    0.6474 C.3     1  LIG1        0.0789
     24 H          -3.8479    3.0678    0.7267 H       1  LIG1        0.0660
     25 H          -2.9009    1.8655    1.6478 H       1  LIG1        0.0660
     26 H          -2.3581    2.3856    0.0236 H       1  LIG1        0.0660
     27 C          -6.0700   -0.9900    0.0179 C.1     1  LIG1       -0.0638
     28 C          -7.2758   -0.8744   -0.0633 C.1     1  LIG1       -0.1137
     29 H          -8.3254   -0.7212   -0.1606 H       1  LIG1        0.1232
     30 C          -4.4561   -3.7322    0.2660 C.ar    1  LIG1        0.1082
     31 C          -3.7499   -4.9267    0.2844 C.ar    1  LIG1        0.1627
     32 C          -4.6842   -6.0125    0.3068 C.ar    1  LIG1        0.0937
     33 C          -5.9632   -5.4306    0.2790 C.ar    1  LIG1        0.0862
     34 N          -5.7976   -4.0676    0.2793 N.ar    1  LIG1       -0.3478
     35 H          -6.5287   -3.3865    0.1177 H       1  LIG1        0.1661
     36 O          -2.3802   -4.9775    0.3394 O.3     1  LIG1       -0.4917
     37 C          -1.7550   -5.7581   -0.6935 C.3     1  LIG1        0.0789
     38 H          -0.6796   -5.6770   -0.5252 H       1  LIG1        0.0660
     39 H          -2.0589   -6.8056   -0.6310 H       1  LIG1        0.0660
     40 H          -2.0060   -5.3611   -1.6839 H       1  LIG1        0.0660
     41 C          -4.3725   -7.3856    0.4554 C.1     1  LIG1       -0.0638
     42 C          -4.0638   -8.5480    0.6051 C.1     1  LIG1       -0.1137
     43 H          -3.7969   -9.5694    0.7451 H       1  LIG1        0.1232
     44 C          -7.2857   -6.0129    0.3177 C.ar    1  LIG1        0.1077
     45 C          -7.8363   -7.1179   -0.3168 C.ar    1  LIG1        0.1620
     46 C          -9.2314   -7.1875    0.0364 C.ar    1  LIG1        0.0842
     47 C          -9.4761   -6.1086    0.8776 C.ar    1  LIG1        0.0213
     48 N          -8.3214   -5.4002    1.0182 N.ar    1  LIG1       -0.3554
     49 H          -8.1804   -4.6556    1.6827 H       1  LIG1        0.1655
     50 H         -10.3911   -5.8150    1.3684 H       1  LIG1        0.0820
     51 O          -7.1568   -7.8856   -1.2073 O.3     1  LIG1       -0.4917
     52 C          -7.1901   -9.2978   -0.9742 C.3     1  LIG1        0.0789
     53 H          -6.5878   -9.7458   -1.7663 H       1  LIG1        0.0660
     54 H          -6.7479   -9.5379   -0.0011 H       1  LIG1        0.0660
     55 H          -8.2109   -9.6871   -1.0251 H       1  LIG1        0.0660
     56 C         -10.2068   -8.1116   -0.4183 C.1     1  LIG1       -0.0645
     57 C         -11.0499   -8.8936   -0.7987 C.1     1  LIG1       -0.1137
     58 H         -11.7926   -9.5729   -1.1468 H       1  LIG1        0.1232
@<TRIPOS>BOND
     1    15    14    1
     2    14    13    3
     3    53    52    1
     4    13     3    1
     5    40    37    1
     6    51    52    1
     7    51    45    1
     8    58    57    1
     9    55    52    1
    10    52    54    1
    11    57    56    3
    12    37    39    1
    13    37    38    1
    14    37    36    1
    15     8     2    1
    16     8     9    1
    17    10     9    1
    18     3     2   ar
    19     3     4   ar
    20    56    46    1
    21    45    46   ar
    22    45    44   ar
    23    29    28    1
    24    28    27    3
    25     2     1   ar
    26    27    18    1
    27    26    23    1
    28     9    12    1
    29     9    11    1
    30    46    47   ar
    31    22    17    1
    32    22    23    1
    33    35    34    1
    34    18    17   ar
    35    18    19   ar
    36    17    16   ar
    37    19    30    1
    38    19    20   ar
    39    16     4    1
    40    16    20   ar
    41    30    34   ar
    42    30    31   ar
    43    33    34   ar
    44    33    32   ar
    45    33    44    1
    46    31    32   ar
    47    31    36    1
    48    32    41    1
    49    44    48   ar
    50     4     5   ar
    51    21    20    1
    52    41    42    3
    53    42    43    1
    54    23    24    1
    55    23    25    1
    56    47    48   ar
    57    47    50    1
    58    48    49    1
    59     1     5   ar
    60     1     7    1
    61     5     6    1
