@<TRIPOS>MOLECULE
mol_data/opt/b3lyp/geoms/mol2/13le13le13le13le.out
 58 61 0 0 0
SMALL
GASTEIGER

@<TRIPOS>ATOM
      1 C           1.3002   -0.2473    0.3323 C.ar    1  LIG1        0.0457
      2 C           0.9728    0.8570   -0.4264 C.ar    1  LIG1        0.1533
      3 C          -0.4572    0.9152   -0.5468 C.ar    1  LIG1        0.0930
      4 C          -0.9670   -0.1696    0.1774 C.ar    1  LIG1        0.0858
      5 N           0.1100   -0.8675    0.6731 N.ar    1  LIG1       -0.3554
      6 H           0.0221   -1.6167    1.3405 H       1  LIG1        0.1655
      7 H           2.2523   -0.6429    0.6448 H       1  LIG1        0.0845
      8 O           1.7806    1.7707   -1.0180 O.3     1  LIG1       -0.4924
      9 C           3.1714    1.5740   -0.8201 C.3     1  LIG1        0.0789
     10 H           3.6783    2.3800   -1.3519 H       1  LIG1        0.0660
     11 H           3.4325    1.6200    0.2460 H       1  LIG1        0.0660
     12 H           3.4985    0.6070   -1.2260 H       1  LIG1        0.0660
     13 C          -1.1967    1.8611   -1.2970 C.1     1  LIG1       -0.0638
     14 C          -1.8273    2.6747   -1.9350 C.1     1  LIG1       -0.1137
     15 H          -2.3812    3.3861   -2.5019 H       1  LIG1        0.1232
     16 C          -2.3240   -0.6599    0.3625 C.ar    1  LIG1        0.1081
     17 C          -3.5077   -0.1221    0.8490 C.ar    1  LIG1        0.1627
     18 C          -4.5446   -1.1141    0.7244 C.ar    1  LIG1        0.0937
     19 C          -3.9653   -2.2434    0.1429 C.ar    1  LIG1        0.0862
     20 N          -2.6205   -1.9824   -0.0145 N.ar    1  LIG1       -0.3478
     21 H          -2.0680   -2.4538   -0.7164 H       1  LIG1        0.1661
     22 O          -3.7927    1.0600    1.4334 O.3     1  LIG1       -0.4917
     23 C          -2.7220    1.8771    1.9012 C.3     1  LIG1        0.0789
     24 H          -3.1886    2.6471    2.5180 H       1  LIG1        0.0660
     25 H          -2.0212    1.2958    2.5121 H       1  LIG1        0.0660
     26 H          -2.1854    2.3464    1.0728 H       1  LIG1        0.0660
     27 C          -5.8689   -0.9852    1.2059 C.1     1  LIG1       -0.0638
     28 C          -7.0037   -0.8764    1.6134 C.1     1  LIG1       -0.1137
     29 H          -8.0016   -0.7877    1.9743 H       1  LIG1        0.1232
     30 C          -4.5095   -3.5399   -0.1922 C.ar    1  LIG1        0.1082
     31 C          -5.7325   -3.9765   -0.6910 C.ar    1  LIG1        0.1627
     32 C          -5.7023   -5.4112   -0.7659 C.ar    1  LIG1        0.0937
     33 C          -4.4552   -5.8255   -0.2932 C.ar    1  LIG1        0.0862
     34 N          -3.7305   -4.6863   -0.0085 N.ar    1  LIG1       -0.3478
     35 H          -2.9389   -4.6982    0.6176 H       1  LIG1        0.1661
     36 O          -6.8158   -3.2727   -1.0977 O.3     1  LIG1       -0.4917
     37 C          -6.5910   -2.1633   -1.9714 C.3     1  LIG1        0.0789
     38 H          -7.5747   -1.8765   -2.3468 H       1  LIG1        0.0660
     39 H          -6.1454   -1.3150   -1.4460 H       1  LIG1        0.0660
     40 H          -5.9506   -2.4558   -2.8121 H       1  LIG1        0.0660
     41 C          -6.7234   -6.2337   -1.3016 C.1     1  LIG1       -0.0638
     42 C          -7.5960   -6.9389   -1.7564 C.1     1  LIG1       -0.1137
     43 H          -8.3612   -7.5601   -2.1598 H       1  LIG1        0.1232
     44 C          -3.8428   -7.1372   -0.1756 C.ar    1  LIG1        0.1077
     45 C          -4.2089   -8.3482    0.4074 C.ar    1  LIG1        0.1620
     46 C          -3.1680   -9.3061    0.1418 C.ar    1  LIG1        0.0842
     47 C          -2.1953   -8.6458   -0.5926 C.ar    1  LIG1        0.0213
     48 N          -2.5818   -7.3499   -0.7483 N.ar    1  LIG1       -0.3554
     49 H          -2.1694   -6.7025   -1.4011 H       1  LIG1        0.1655
     50 H          -1.2651   -9.0184   -0.9930 H       1  LIG1        0.0820
     51 O          -5.2787   -8.7035    1.1518 O.3     1  LIG1       -0.4917
     52 C          -6.0171   -7.6871    1.8266 C.3     1  LIG1        0.0789
     53 H          -6.6379   -8.2091    2.5571 H       1  LIG1        0.0660
     54 H          -5.3459   -6.9943    2.3482 H       1  LIG1        0.0660
     55 H          -6.6566   -7.1300    1.1376 H       1  LIG1        0.0660
     56 C          -3.1305  -10.6523    0.5832 C.1     1  LIG1       -0.0645
     57 C          -3.0929  -11.8029    0.9573 C.1     1  LIG1       -0.1137
     58 H          -3.0693  -12.8148    1.2878 H       1  LIG1        0.1232
@<TRIPOS>BOND
     1    40    37    1
     2    15    14    1
     3    38    37    1
     4    43    42    1
     5    37    39    1
     6    37    36    1
     7    14    13    3
     8    42    41    3
     9    49    48    1
    10    10     9    1
    11    41    32    1
    12    13     3    1
    13    12     9    1
    14    36    31    1
    15     8     9    1
    16     8     2    1
    17    50    47    1
    18     9    11    1
    19    32    31   ar
    20    32    33   ar
    21    48    47   ar
    22    48    44   ar
    23    21    20    1
    24    31    30   ar
    25    47    46   ar
    26     3     2   ar
    27     3     4   ar
    28     2     1   ar
    29    33    44    1
    30    33    34   ar
    31    30    34   ar
    32    30    19    1
    33    44    45   ar
    34    20    19   ar
    35    20    16   ar
    36    34    35    1
    37    46    45   ar
    38    46    56    1
    39    19    18   ar
    40     4    16    1
    41     4     5   ar
    42     1     7    1
    43     1     5   ar
    44    16    17   ar
    45    45    51    1
    46    56    57    3
    47     5     6    1
    48    18    17   ar
    49    18    27    1
    50    17    22    1
    51    57    58    1
    52    26    23    1
    53    55    52    1
    54    51    52    1
    55    27    28    3
    56    22    23    1
    57    28    29    1
    58    52    54    1
    59    52    53    1
    60    23    25    1
    61    23    24    1
