@<TRIPOS>MOLECULE
mol_data/opt/b3lyp/geoms/mol2/13le13le13le-13le.out
 58 61 0 0 0
SMALL
GASTEIGER

@<TRIPOS>ATOM
      1 C           1.2373   -0.1619    1.1861 C.ar    1  LIG1        0.0457
      2 C           1.2011    0.7580    0.1603 C.ar    1  LIG1        0.1533
      3 C          -0.1122    0.7382   -0.4220 C.ar    1  LIG1        0.0930
      4 C          -0.8563   -0.2036    0.2996 C.ar    1  LIG1        0.0858
      5 N          -0.0159   -0.7520    1.2415 N.ar    1  LIG1       -0.3554
      6 H          -0.3394   -1.3336    1.9979 H       1  LIG1        0.1655
      7 H           2.0270   -0.4530    1.8586 H       1  LIG1        0.0845
      8 O           2.1820    1.5666   -0.3121 O.3     1  LIG1       -0.4924
      9 C           3.4296    1.4629    0.3535 C.3     1  LIG1        0.0789
     10 H           4.1048    2.1637   -0.1392 H       1  LIG1        0.0660
     11 H           3.3385    1.7301    1.4154 H       1  LIG1        0.0660
     12 H           3.8392    0.4464    0.2765 H       1  LIG1        0.0660
     13 C          -0.5405    1.4814   -1.5477 C.1     1  LIG1       -0.0638
     14 C          -0.9087    2.1223   -2.5069 C.1     1  LIG1       -0.1137
     15 H          -1.2351    2.6768   -3.3553 H       1  LIG1        0.1232
     16 C          -2.2122   -0.6920    0.1411 C.ar    1  LIG1        0.1081
     17 C          -3.4499   -0.0840   -0.0597 C.ar    1  LIG1        0.1627
     18 C          -4.4431   -1.1125   -0.1700 C.ar    1  LIG1        0.0937
     19 C          -3.7775   -2.3394   -0.0253 C.ar    1  LIG1        0.0862
     20 N          -2.4564   -2.0644    0.1858 N.ar    1  LIG1       -0.3478
     21 H          -1.7532   -2.7898    0.1965 H       1  LIG1        0.1661
     22 O          -3.7976    1.2223   -0.1405 O.3     1  LIG1       -0.4917
     23 C          -3.1256    2.1504    0.7112 C.3     1  LIG1        0.0789
     24 H          -3.7365    3.0553    0.7051 H       1  LIG1        0.0660
     25 H          -3.0587    1.7629    1.7350 H       1  LIG1        0.0660
     26 H          -2.1253    2.3880    0.3418 H       1  LIG1        0.0660
     27 C          -5.8292   -0.9253   -0.3795 C.1     1  LIG1       -0.0638
     28 C          -7.0213   -0.7885   -0.5584 C.1     1  LIG1       -0.1137
     29 H          -8.0562   -0.6492   -0.7670 H       1  LIG1        0.1232
     30 C          -4.2575   -3.6934   -0.0696 C.ar    1  LIG1        0.1082
     31 C          -3.5444   -4.8860   -0.0716 C.ar    1  LIG1        0.1627
     32 C          -4.4755   -5.9725   -0.1085 C.ar    1  LIG1        0.0937
     33 C          -5.7581   -5.3870   -0.1289 C.ar    1  LIG1        0.0862
     34 N          -5.5969   -4.0317   -0.1007 N.ar    1  LIG1       -0.3478
     35 H          -6.3665   -3.3725   -0.1362 H       1  LIG1        0.1661
     36 O          -2.1750   -4.9422    0.0025 O.3     1  LIG1       -0.4917
     37 C          -1.5343   -5.6333   -1.0823 C.3     1  LIG1        0.0789
     38 H          -0.4612   -5.5688   -0.8930 H       1  LIG1        0.0660
     39 H          -1.8374   -6.6832   -1.1128 H       1  LIG1        0.0660
     40 H          -1.7708   -5.1555   -2.0401 H       1  LIG1        0.0660
     41 C          -4.1920   -7.3583   -0.0814 C.1     1  LIG1       -0.0638
     42 C          -3.9665   -8.5517   -0.0676 C.1     1  LIG1       -0.1137
     43 H          -3.7361   -9.5908   -0.0211 H       1  LIG1        0.1232
     44 C          -7.0656   -5.9855   -0.1533 C.ar    1  LIG1        0.1077
     45 C          -8.3191   -5.3906   -0.0603 C.ar    1  LIG1        0.1620
     46 C          -9.3143   -6.4203   -0.1354 C.ar    1  LIG1        0.0842
     47 C          -8.6150   -7.6178   -0.2699 C.ar    1  LIG1        0.0213
     48 N          -7.2826   -7.3454   -0.2872 N.ar    1  LIG1       -0.3554
     49 H          -6.5337   -8.0202   -0.3566 H       1  LIG1        0.1655
     50 H          -8.9930   -8.6242   -0.3600 H       1  LIG1        0.0820
     51 O          -8.4926   -4.0365    0.0324 O.3     1  LIG1       -0.4917
     52 C          -9.2423   -3.5877    1.1719 C.3     1  LIG1        0.0789
     53 H          -9.2083   -2.4975    1.1438 H       1  LIG1        0.0660
     54 H         -10.2790   -3.9310    1.1191 H       1  LIG1        0.0660
     55 H          -8.7847   -3.9448    2.1019 H       1  LIG1        0.0660
     56 C         -10.7246   -6.2745   -0.1176 C.1     1  LIG1       -0.0645
     57 C         -11.9296   -6.1527   -0.1000 C.1     1  LIG1       -0.1137
     58 H         -12.9893   -6.0465   -0.1027 H       1  LIG1        0.1232
@<TRIPOS>BOND
     1    15    14    1
     2    14    13    3
     3    40    37    1
     4    13     3    1
     5    39    37    1
     6    37    38    1
     7    37    36    1
     8    29    28    1
     9    28    27    3
    10     3     2   ar
    11     3     4   ar
    12    27    18    1
    13    50    47    1
    14    49    48    1
    15     8     2    1
    16     8     9    1
    17    48    47   ar
    18    48    44   ar
    19    47    46   ar
    20    18    17   ar
    21    18    19   ar
    22    44    33    1
    23    44    45   ar
    24    22    17    1
    25    22    23    1
    26    10     9    1
    27    35    34    1
    28    46    56    1
    29    46    45   ar
    30    33    32   ar
    31    33    34   ar
    32    56    57    3
    33    32    41    1
    34    32    31   ar
    35    58    57    1
    36    34    30   ar
    37    41    42    3
    38    31    30   ar
    39    31    36    1
    40    30    19    1
    41    42    43    1
    42    45    51    1
    43    17    16   ar
    44    19    20   ar
    45    51    52    1
    46    16    20   ar
    47    16     4    1
    48     2     1   ar
    49    20    21    1
    50    12     9    1
    51     4     5   ar
    52    26    23    1
    53     9    11    1
    54    24    23    1
    55    23    25    1
    56    54    52    1
    57    53    52    1
    58    52    55    1
    59     1     5   ar
    60     1     7    1
    61     5     6    1
