@<TRIPOS>MOLECULE
mol_data/opt/b3lyp/geoms/mol2/13le13le-13le-13le.out
 58 61 0 0 0
SMALL
GASTEIGER

@<TRIPOS>ATOM
      1 C           1.1003   -0.4017    0.0045 C.ar    1  LIG1        0.0457
      2 C           0.6405    0.8648   -0.2953 C.ar    1  LIG1        0.1533
      3 C          -0.7923    0.8205   -0.3584 C.ar    1  LIG1        0.0930
      4 C          -1.1569   -0.5109   -0.0895 C.ar    1  LIG1        0.0858
      5 N          -0.0101   -1.2212    0.1189 N.ar    1  LIG1       -0.3554
      6 H          -0.0247   -2.1922    0.3940 H       1  LIG1        0.1655
      7 H           2.0979   -0.7843    0.1402 H       1  LIG1        0.0845
      8 O           1.3339    2.0107   -0.5112 O.3     1  LIG1       -0.4924
      9 C           2.7436    1.8968   -0.4081 C.3     1  LIG1        0.0789
     10 H           3.1517    2.8893   -0.6034 H       1  LIG1        0.0660
     11 H           3.0443    1.5699    0.5968 H       1  LIG1        0.0660
     12 H           3.1407    1.1873   -1.1469 H       1  LIG1        0.0660
     13 C          -1.6807    1.8930   -0.6076 C.1     1  LIG1       -0.0638
     14 C          -2.4864    2.7793   -0.8122 C.1     1  LIG1       -0.1137
     15 H          -3.1941    3.5599   -0.9760 H       1  LIG1        0.1232
     16 C          -2.4554   -1.1202   -0.0068 C.ar    1  LIG1        0.1081
     17 C          -2.8386   -2.4148    0.3115 C.ar    1  LIG1        0.1627
     18 C          -4.2718   -2.4853    0.3078 C.ar    1  LIG1        0.0937
     19 C          -4.7267   -1.2008   -0.0488 C.ar    1  LIG1        0.0862
     20 N          -3.6192   -0.4073   -0.2111 N.ar    1  LIG1       -0.3478
     21 H          -3.6141    0.5307   -0.5906 H       1  LIG1        0.1661
     22 O          -1.9355   -3.3937    0.6410 O.3     1  LIG1       -0.4917
     23 C          -2.0363   -4.6027   -0.1277 C.3     1  LIG1        0.0789
     24 H          -1.2461   -5.2613    0.2383 H       1  LIG1        0.0660
     25 H          -3.0079   -5.0808    0.0171 H       1  LIG1        0.0660
     26 H          -1.8840   -4.3986   -1.1943 H       1  LIG1        0.0660
     27 C          -5.0449   -3.5966    0.7210 C.1     1  LIG1       -0.0638
     28 C          -5.6554   -4.5702    1.1069 C.1     1  LIG1       -0.1137
     29 H          -6.1991   -5.4192    1.4494 H       1  LIG1        0.1232
     30 C          -6.0349   -0.6083   -0.1829 C.ar    1  LIG1        0.1082
     31 C          -7.2785   -1.1002   -0.5644 C.ar    1  LIG1        0.1627
     32 C          -8.2028   -0.0002   -0.6109 C.ar    1  LIG1        0.0937
     33 C          -7.4742    1.1504   -0.2618 C.ar    1  LIG1        0.0862
     34 N          -6.1877    0.7637   -0.0248 N.ar    1  LIG1       -0.3478
     35 H          -5.4936    1.4152    0.3157 H       1  LIG1        0.1661
     36 O          -7.5101   -2.3835   -0.9432 O.3     1  LIG1       -0.4917
     37 C          -8.5210   -3.0789   -0.2063 C.3     1  LIG1        0.0789
     38 H          -8.5869   -4.0733   -0.6509 H       1  LIG1        0.0660
     39 H          -8.2358   -3.1704    0.8476 H       1  LIG1        0.0660
     40 H          -9.4909   -2.5784   -0.2876 H       1  LIG1        0.0660
     41 C          -9.5626   -0.0268   -1.0020 C.1     1  LIG1       -0.0638
     42 C         -10.7321   -0.0204   -1.3296 C.1     1  LIG1       -0.1137
     43 H         -11.7478   -0.0539   -1.6489 H       1  LIG1        0.1232
     44 C          -7.8596    2.5295   -0.1342 C.ar    1  LIG1        0.1077
     45 C          -7.0931    3.6369    0.2151 C.ar    1  LIG1        0.1620
     46 C          -7.9327    4.7986    0.1708 C.ar    1  LIG1        0.0842
     47 C          -9.1950    4.3420   -0.2047 C.ar    1  LIG1        0.0213
     48 N          -9.1361    2.9960   -0.3878 N.ar    1  LIG1       -0.3554
     49 H          -9.8952    2.3930   -0.6742 H       1  LIG1        0.1655
     50 H         -10.1065    4.8997   -0.3522 H       1  LIG1        0.0820
     51 O          -5.7479    3.5516    0.4757 O.3     1  LIG1       -0.4917
     52 C          -5.3062    4.1493    1.7077 C.3     1  LIG1        0.0789
     53 H          -4.2337    3.9557    1.7639 H       1  LIG1        0.0660
     54 H          -5.4910    5.2260    1.7079 H       1  LIG1        0.0660
     55 H          -5.8139    3.6898    2.5636 H       1  LIG1        0.0660
     56 C          -7.5780    6.1508    0.4087 C.1     1  LIG1       -0.0645
     57 C          -7.2819    7.3081    0.6097 C.1     1  LIG1       -0.1137
     58 H          -7.0204    8.3280    0.7705 H       1  LIG1        0.1232
@<TRIPOS>BOND
     1    43    42    1
     2    42    41    3
     3    26    23    1
     4    12     9    1
     5    41    32    1
     6    15    14    1
     7    36    31    1
     8    36    37    1
     9    14    13    3
    10    49    48    1
    11    38    37    1
    12    32    31   ar
    13    32    33   ar
    14    13     3    1
    15    10     9    1
    16    21    20    1
    17    31    30   ar
    18     8     9    1
    19     8     2    1
    20     9    11    1
    21    48    47   ar
    22    48    44   ar
    23     3     2   ar
    24     3     4   ar
    25    50    47    1
    26     2     1   ar
    27    40    37    1
    28    33    44    1
    29    33    34   ar
    30    20    19   ar
    31    20    16   ar
    32    37    39    1
    33    47    46   ar
    34    30    19    1
    35    30    34   ar
    36    44    45   ar
    37    23    25    1
    38    23    24    1
    39    23    22    1
    40     4    16    1
    41     4     5   ar
    42    19    18   ar
    43    34    35    1
    44    16    17   ar
    45     1     5   ar
    46     1     7    1
    47     5     6    1
    48    46    45   ar
    49    46    56    1
    50    45    51    1
    51    18    17   ar
    52    18    27    1
    53    17    22    1
    54    56    57    3
    55    51    52    1
    56    57    58    1
    57    27    28    3
    58    28    29    1
    59    52    54    1
    60    52    53    1
    61    52    55    1
