@<TRIPOS>MOLECULE
mol_data/opt/b3lyp/geoms/mol2/13le13le13le13le-.out
 58 61 0 0 0
SMALL
GASTEIGER

@<TRIPOS>ATOM
      1 C           0.4565    1.5165   -1.3431 C.ar    1  LIG1        0.0457
      2 C           1.0929    0.2920   -1.3005 C.ar    1  LIG1        0.1533
      3 C           0.1121   -0.7153   -1.0148 C.ar    1  LIG1        0.0930
      4 C          -1.1169   -0.0431   -0.8908 C.ar    1  LIG1        0.0858
      5 N          -0.8853    1.2868   -1.0906 N.ar    1  LIG1       -0.3554
      6 H          -1.6272    1.9708   -1.0649 H       1  LIG1        0.1655
      7 H           0.8321    2.5087   -1.5287 H       1  LIG1        0.0845
      8 O           2.4028   -0.0112   -1.4798 O.3     1  LIG1       -0.4924
      9 C           3.2492    1.0903   -1.7651 C.3     1  LIG1        0.0789
     10 H           4.2558    0.6871   -1.8835 H       1  LIG1        0.0660
     11 H           2.9468    1.5949   -2.6928 H       1  LIG1        0.0660
     12 H           3.2432    1.8204   -0.9441 H       1  LIG1        0.0660
     13 C           0.3155   -2.1079   -0.8694 C.1     1  LIG1       -0.0638
     14 C           0.4318   -3.3107   -0.7413 C.1     1  LIG1       -0.1137
     15 H           0.5322   -4.3652   -0.6174 H       1  LIG1        0.1232
     16 C          -2.4288   -0.5537   -0.6036 C.ar    1  LIG1        0.1081
     17 C          -3.6298    0.0983   -0.3625 C.ar    1  LIG1        0.1627
     18 C          -4.6458   -0.8850   -0.1196 C.ar    1  LIG1        0.0937
     19 C          -4.0138   -2.1395   -0.2343 C.ar    1  LIG1        0.0862
     20 N          -2.6927   -1.9047   -0.5233 N.ar    1  LIG1       -0.3478
     21 H          -2.0074   -2.6055   -0.7736 H       1  LIG1        0.1661
     22 O          -3.7532    1.4642   -0.4013 O.3     1  LIG1       -0.4917
     23 C          -4.2178    2.0723    0.8149 C.3     1  LIG1        0.0789
     24 H          -4.2567    3.1461    0.6222 H       1  LIG1        0.0660
     25 H          -5.2144    1.7100    1.0780 H       1  LIG1        0.0660
     26 H          -3.5238    1.8693    1.6394 H       1  LIG1        0.0660
     27 C          -5.9998   -0.6334    0.2081 C.1     1  LIG1       -0.0638
     28 C          -7.1525   -0.3923    0.4926 C.1     1  LIG1       -0.1137
     29 H          -8.1727   -0.2105    0.7379 H       1  LIG1        0.1232
     30 C          -4.4595   -3.4992   -0.0444 C.ar    1  LIG1        0.1082
     31 C          -5.6763   -4.1577   -0.2091 C.ar    1  LIG1        0.1627
     32 C          -5.4783   -5.5479    0.0767 C.ar    1  LIG1        0.0937
     33 C          -4.1235   -5.7039    0.4114 C.ar    1  LIG1        0.0862
     34 N          -3.5375   -4.4739    0.3175 N.ar    1  LIG1       -0.3478
     35 H          -2.5781   -4.3229    0.5991 H       1  LIG1        0.1661
     36 O          -6.8726   -3.6242   -0.5764 O.3     1  LIG1       -0.4917
     37 C          -6.9764   -3.2639   -1.9578 C.3     1  LIG1        0.0789
     38 H          -7.9878   -2.8788   -2.0969 H       1  LIG1        0.0660
     39 H          -6.2552   -2.4835   -2.2232 H       1  LIG1        0.0660
     40 H          -6.8236   -4.1385   -2.6019 H       1  LIG1        0.0660
     41 C          -6.4530   -6.5724    0.0214 C.1     1  LIG1       -0.0638
     42 C          -7.2673   -7.4711   -0.0249 C.1     1  LIG1       -0.1137
     43 H          -8.0182   -8.2254   -0.0686 H       1  LIG1        0.1232
     44 C          -3.3577   -6.8560    0.8012 C.ar    1  LIG1        0.1077
     45 C          -2.0147   -6.9572    1.1486 C.ar    1  LIG1        0.1620
     46 C          -1.7240   -8.3330    1.4295 C.ar    1  LIG1        0.0842
     47 C          -2.9219   -9.0210    1.2439 C.ar    1  LIG1        0.0213
     48 N          -3.8805   -8.1340    0.8650 N.ar    1  LIG1       -0.3554
     49 H          -4.8483   -8.3423    0.6585 H       1  LIG1        0.1655
     50 H          -3.1289  -10.0738    1.3549 H       1  LIG1        0.0820
     51 O          -1.1623   -5.8799    1.1392 O.3     1  LIG1       -0.4917
     52 C          -0.4276   -5.6576    2.3565 C.3     1  LIG1        0.0789
     53 H           0.1611   -4.7541    2.1888 H       1  LIG1        0.0660
     54 H          -1.1128   -5.5053    3.1984 H       1  LIG1        0.0660
     55 H           0.2349   -6.4994    2.5716 H       1  LIG1        0.0660
     56 C          -0.4791   -8.9126    1.7832 C.1     1  LIG1       -0.0645
     57 C           0.5823   -9.4119    2.0854 C.1     1  LIG1       -0.1137
     58 H           1.5173   -9.8563    2.3356 H       1  LIG1        0.1232
@<TRIPOS>BOND
     1    11     9    1
     2    40    37    1
     3    39    37    1
     4    38    37    1
     5    37    36    1
     6    10     9    1
     7     9     8    1
     8     9    12    1
     9     7     1    1
    10     8     2    1
    11     1     2   ar
    12     1     5   ar
    13     2     3   ar
    14     5     6    1
    15     5     4   ar
    16     3     4   ar
    17     3    13    1
    18     4    16    1
    19    13    14    3
    20    21    20    1
    21    14    15    1
    22    16    20   ar
    23    16    17   ar
    24    36    31    1
    25    20    19   ar
    26    22    17    1
    27    22    23    1
    28    17    18   ar
    29    19    18   ar
    30    19    30    1
    31    31    30   ar
    32    31    32   ar
    33    18    27    1
    34    43    42    1
    35    30    34   ar
    36    42    41    3
    37    41    32    1
    38    32    33   ar
    39    27    28    3
    40    34    33   ar
    41    34    35    1
    42    33    44    1
    43    28    29    1
    44    24    23    1
    45    49    48    1
    46    44    48   ar
    47    44    45   ar
    48    23    25    1
    49    23    26    1
    50    48    47   ar
    51    51    45    1
    52    51    52    1
    53    45    46   ar
    54    47    50    1
    55    47    46   ar
    56    46    56    1
    57    56    57    3
    58    57    58    1
    59    53    52    1
    60    52    55    1
    61    52    54    1
