@<TRIPOS>MOLECULE
mol_data/opt/b3lyp/geoms/mol2/13lf6hi6hh-4hh-.out
 53 56 0 0 0
SMALL
GASTEIGER

@<TRIPOS>ATOM
      1 C           1.1951   -0.1560    0.7089 C.ar    1  LIG1        0.0457
      2 C           0.8453    1.1591    0.4698 C.ar    1  LIG1        0.1533
      3 C          -0.5238    1.1935    0.0475 C.ar    1  LIG1        0.0945
      4 C          -0.9677   -0.1381    0.0457 C.ar    1  LIG1        0.1013
      5 N           0.0782   -0.9252    0.4445 N.ar    1  LIG1       -0.3542
      6 H           0.0193   -1.9266    0.5287 H       1  LIG1        0.1656
      7 H           2.1199   -0.6006    1.0365 H       1  LIG1        0.0845
      8 O           1.5899    2.2856    0.5843 O.3     1  LIG1       -0.4924
      9 C           2.9275    2.0922    1.0145 C.3     1  LIG1        0.0789
     10 H           3.3862    3.0808    1.0571 H       1  LIG1        0.0660
     11 H           2.9628    1.6309    2.0109 H       1  LIG1        0.0660
     12 H           3.4857    1.4616    0.3091 H       1  LIG1        0.0660
     13 C          -1.2692    2.3443   -0.2964 C.1     1  LIG1       -0.0638
     14 C          -1.9075    3.3313   -0.5911 C.1     1  LIG1       -0.1137
     15 H          -2.4549    4.2083   -0.8466 H       1  LIG1        0.1232
     16 C          -2.2461   -0.7005   -0.2888 C.ar    1  LIG1        0.1543
     17 C          -3.4386   -0.1784   -0.7043 C.ar    1  LIG1        0.0017
     18 C          -4.3376   -1.2846   -0.8702 C.ar    1  LIG1        0.0710
     19 C          -3.6281   -2.4330   -0.5405 C.ar    1  LIG1        0.1511
     20 O          -2.3534   -2.0676   -0.1873 O.2     1  LIG1       -0.4521
     21 H          -3.6570    0.8639   -0.8734 H       1  LIG1        0.0668
     22 C          -5.6860   -1.1690   -1.2939 C.1     1  LIG1       -0.0658
     23 C          -6.8304   -1.0166   -1.6592 C.1     1  LIG1       -0.1138
     24 H          -7.8380   -0.8886   -1.9800 H       1  LIG1        0.1232
     25 C          -5.2128   -4.3387   -0.8358 C.ar    1  LIG1       -0.0505
     26 C          -5.4725   -5.7009   -0.7795 C.ar    1  LIG1       -0.0530
     27 C          -3.9375   -3.8527   -0.4948 C.ar    1  LIG1        0.0188
     28 C          -4.4923   -6.6284   -0.3971 C.ar    1  LIG1       -0.0113
     29 H          -6.4611   -6.0645   -1.0413 H       1  LIG1        0.0624
     30 C          -2.9597   -4.7821   -0.0959 C.ar    1  LIG1       -0.0475
     31 C          -3.2109   -6.1543   -0.0403 C.ar    1  LIG1       -0.0420
     32 H          -1.9770   -4.4204    0.1870 H       1  LIG1        0.0627
     33 H          -5.9923   -3.6523   -1.1417 H       1  LIG1        0.0625
     34 C          -2.1154   -7.0894    0.4225 C.3     1  LIG1       -0.0391
     35 H          -1.3096   -6.5307    0.9066 H       1  LIG1        0.0278
     36 H          -1.6731   -7.6493   -0.4093 H       1  LIG1        0.0278
     37 H          -2.4950   -7.8292    1.1332 H       1  LIG1        0.0278
     38 C          -5.7677   -8.6172    0.5100 C.ar    1  LIG1        0.1280
     39 C          -6.0720   -9.9827    0.4750 C.ar    1  LIG1       -0.0159
     40 C          -4.8237   -8.0847   -0.3941 C.ar    1  LIG1        0.0275
     41 C          -5.4550  -10.8267   -0.4479 C.ar    1  LIG1       -0.0167
     42 H          -6.7916  -10.4036    1.1668 H       1  LIG1        0.0655
     43 C          -4.2164   -8.9488   -1.3117 C.ar    1  LIG1       -0.0090
     44 C          -4.5237  -10.3117   -1.3478 C.ar    1  LIG1        0.1177
     45 H          -3.5027   -8.5368   -2.0223 H       1  LIG1        0.0661
     46 H          -5.6921  -11.8848   -0.4779 H       1  LIG1        0.0655
     47 O          -6.3275   -7.7295    1.3911 O.3     1  LIG1       -0.4945
     48 C          -7.2787   -8.2162    2.3211 C.3     1  LIG1        0.0788
     49 H          -7.5906   -7.3530    2.9110 H       1  LIG1        0.0660
     50 H          -8.1564   -8.6463    1.8207 H       1  LIG1        0.0660
     51 H          -6.8453   -8.9712    2.9905 H       1  LIG1        0.0660
     52 O          -3.9488  -11.1787   -2.2415 O.3     1  LIG1       -0.5067
     53 H          -3.3392  -10.6872   -2.8068 H       1  LIG1        0.2921
@<TRIPOS>BOND
     1    53    52    1
     2    52    44    1
     3    45    43    1
     4    24    23    1
     5    23    22    3
     6    44    43   ar
     7    44    41   ar
     8    43    40   ar
     9    22    18    1
    10    33    25    1
    11    29    26    1
    12    21    17    1
    13    18    17   ar
    14    18    19   ar
    15    15    14    1
    16    25    26   ar
    17    25    27   ar
    18    26    28   ar
    19    17    16   ar
    20    14    13    3
    21    19    27    1
    22    19    20   ar
    23    27    30   ar
    24    46    41    1
    25    41    39   ar
    26    36    34    1
    27    28    40    1
    28    28    31   ar
    29    40    38   ar
    30    13     3    1
    31    16    20   ar
    32    16     4    1
    33    30    31   ar
    34    30    32    1
    35    31    34    1
    36     4     3   ar
    37     4     5   ar
    38     3     2   ar
    39    12     9    1
    40    34    35    1
    41    34    37    1
    42     5     6    1
    43     5     1   ar
    44     2     8    1
    45     2     1   ar
    46    39    38   ar
    47    39    42    1
    48    38    47    1
    49     8     9    1
    50     1     7    1
    51     9    10    1
    52     9    11    1
    53    47    48    1
    54    50    48    1
    55    48    49    1
    56    48    51    1
