@<TRIPOS>MOLECULE
mol_data/opt/b3lyp/geoms/mol2/13lf12ai-13hi-4aa6af-13fe-12lh6ii.out
 97 104 0 0 0
SMALL
GASTEIGER

@<TRIPOS>ATOM
      1 C           0.5560    0.1028   -2.6095 C.ar    1  LIG1        0.0482
      2 C           0.5545    1.2632   -1.8498 C.ar    1  LIG1        0.1793
      3 C          -0.5105    1.1603   -0.9146 C.ar    1  LIG1        0.1874
      4 C          -1.1424   -0.0612   -1.1265 C.ar    1  LIG1        0.1278
      5 N          -0.4639   -0.6988   -2.1475 N.ar    1  LIG1       -0.3522
      6 H          -0.7474   -1.5791   -2.5425 H       1  LIG1        0.1656
      7 H           1.1991   -0.2116   -3.4148 H       1  LIG1        0.0845
      8 O           1.3796    2.3442   -1.9046 O.3     1  LIG1       -0.4900
      9 C           2.3865    2.2823   -2.8985 C.3     1  LIG1        0.0790
     10 H           2.9554    3.2103   -2.8253 H       1  LIG1        0.0660
     11 H           3.0604    1.4294   -2.7346 H       1  LIG1        0.0660
     12 H           1.9515    2.2009   -3.9046 H       1  LIG1        0.0660
     13 O          -0.8138    2.1073    0.0234 O.3     1  LIG1       -0.5018
     14 H          -1.2234    1.6584    0.7771 H       1  LIG1        0.2924
     15 C          -2.2738   -0.6282   -0.4504 C.ar    1  LIG1        0.1558
     16 C          -3.2612   -0.0959    0.3392 C.ar    1  LIG1       -0.0107
     17 C          -4.0956   -1.1790    0.7721 C.ar    1  LIG1       -0.0025
     18 C          -3.5858   -2.3140    0.1843 C.ar    1  LIG1        0.1565
     19 O          -2.4572   -1.9839   -0.5586 O.2     1  LIG1       -0.4514
     20 H          -3.4061    0.9538    0.5551 H       1  LIG1        0.0659
     21 C          -5.2362   -1.0727    1.7419 C.3     1  LIG1       -0.0360
     22 H          -5.7092   -2.0396    1.9228 H       1  LIG1        0.0279
     23 H          -6.0071   -0.3802    1.3822 H       1  LIG1        0.0279
     24 H          -4.8870   -0.6833    2.7055 H       1  LIG1        0.0279
     25 C          -3.9420   -3.7107    0.1790 C.ar    1  LIG1        0.1040
     26 C          -5.1761   -4.3601    0.1399 C.ar    1  LIG1        0.0568
     27 C          -4.9410   -5.7634    0.0979 C.ar    1  LIG1       -0.0038
     28 C          -3.5551   -5.9475    0.0866 C.ar    1  LIG1        0.0517
     29 N          -2.9741   -4.7035    0.1641 N.ar    1  LIG1       -0.3501
     30 H          -1.9938   -4.5171    0.0268 H       1  LIG1        0.1661
     31 N          -6.4457   -3.7577    0.1916 N.pl3   1  LIG1       -0.3560
     32 H          -6.4319   -2.8068   -0.1613 H       1  LIG1        0.1424
     33 H          -7.1412   -4.2912   -0.3179 H       1  LIG1        0.1424
     34 C          -6.0200   -6.8060    0.1404 C.3     1  LIG1       -0.0359
     35 H          -5.6399   -7.7617    0.5101 H       1  LIG1        0.0279
     36 H          -6.4701   -6.9952   -0.8446 H       1  LIG1        0.0279
     37 H          -6.8301   -6.4944    0.8099 H       1  LIG1        0.0279
     38 C          -3.1503   -8.3112   -0.6408 C.ar    1  LIG1       -0.0520
     39 C          -2.3596   -9.4536   -0.6726 C.ar    1  LIG1       -0.0534
     40 C          -2.7361   -7.1571    0.0520 C.ar    1  LIG1       -0.0013
     41 C          -1.1114   -9.4992   -0.0276 C.ar    1  LIG1       -0.0163
     42 H          -2.6976  -10.3143   -1.2420 H       1  LIG1        0.0624
     43 C          -1.4856   -7.2044    0.7000 C.ar    1  LIG1       -0.0520
     44 C          -0.6923   -8.3442    0.6567 C.ar    1  LIG1       -0.0534
     45 H          -1.1523   -6.3501    1.2824 H       1  LIG1        0.0624
     46 H          -4.0843   -8.2968   -1.1914 H       1  LIG1        0.0624
     47 H           0.2483   -8.3546    1.1989 H       1  LIG1        0.0624
     48 C           1.1332  -10.6397   -0.1044 C.ar    1  LIG1        0.0363
     49 C          -0.2708  -10.7147   -0.0672 C.ar    1  LIG1        0.0037
     50 C          -0.8220  -11.9996   -0.0760 C.ar    1  LIG1       -0.0088
     51 C          -0.0111  -13.1351   -0.1167 C.ar    1  LIG1        0.1448
     52 C           1.3949  -12.9488   -0.1512 C.ar    1  LIG1        0.1319
     53 N           1.9240  -11.7053   -0.1434 N.ar    1  LIG1       -0.2491
     54 H          -1.8945  -12.1530   -0.0193 H       1  LIG1        0.0661
     55 H           1.6316   -9.6736   -0.1282 H       1  LIG1        0.0836
     56 O          -0.6501  -14.3266   -0.0967 O.3     1  LIG1       -0.5045
     57 H          -0.0375  -15.0843   -0.1406 H       1  LIG1        0.2922
     58 C           2.3979  -14.0120   -0.1831 C.ar    1  LIG1        0.1123
     59 C           2.4006  -15.3981   -0.2566 C.ar    1  LIG1        0.1598
     60 C           3.7427  -15.8727   -0.2407 C.ar    1  LIG1        0.0951
     61 C           4.5635  -14.7270   -0.1699 C.ar    1  LIG1        0.1055
     62 N           3.7319  -13.6484   -0.1385 N.ar    1  LIG1       -0.3464
     63 H           3.9964  -12.6733   -0.0937 H       1  LIG1        0.1662
     64 O           1.2934  -16.1978   -0.3337 O.3     1  LIG1       -0.5034
     65 H           1.5692  -17.1223   -0.2322 H       1  LIG1        0.2923
     66 C           4.0591  -17.2495   -0.2130 C.1     1  LIG1       -0.0637
     67 C           4.2045  -18.4541   -0.1906 C.1     1  LIG1       -0.1137
     68 H           4.3860  -19.5029   -0.1463 H       1  LIG1        0.1232
     69 C           5.9879  -14.5652   -0.0976 C.ar    1  LIG1        0.1963
     70 C           7.0858  -15.3328   -0.4280 C.ar    1  LIG1        0.1885
     71 C           8.2514  -14.5838   -0.0794 C.ar    1  LIG1        0.1141
     72 C           7.8102  -13.3771    0.4284 C.ar    1  LIG1        0.1617
     73 O           6.4277  -13.3673    0.4011 O.2     1  LIG1       -0.4475
     74 O           7.1636  -16.5700   -0.9992 O.3     1  LIG1       -0.4896
     75 C           6.6628  -16.6531   -2.3418 C.3     1  LIG1        0.0791
     76 H           6.8597  -17.6730   -2.6758 H       1  LIG1        0.0660
     77 H           5.5865  -16.4651   -2.3788 H       1  LIG1        0.0660
     78 H           7.1817  -15.9418   -2.9957 H       1  LIG1        0.0660
     79 N           9.5506  -15.0691   -0.2280 N.pl3   1  LIG1       -0.3522
     80 H           9.5679  -15.8993   -0.8095 H       1  LIG1        0.1425
     81 H          10.2182  -14.3780   -0.5490 H       1  LIG1        0.1425
     82 C           8.0169  -10.8967    0.9561 C.ar    1  LIG1        0.0489
     83 C           8.5208  -12.2280    0.9680 C.ar    1  LIG1        0.0405
     84 C           9.7923  -12.4338    1.5314 C.ar    1  LIG1       -0.0449
     85 C          10.5302  -11.3706    2.0517 C.ar    1  LIG1       -0.0317
     86 C           9.9334  -10.1099    1.9855 C.ar    1  LIG1        0.0308
     87 N           8.7253   -9.8797    1.4607 N.ar    1  LIG1       -0.2592
     88 H          10.1897  -13.4438    1.5857 H       1  LIG1        0.0628
     89 H          10.4577   -9.2377    2.3753 H       1  LIG1        0.0832
     90 C           6.6744  -10.5223    0.3766 C.3     1  LIG1       -0.0217
     91 H           5.8526  -10.8795    1.0063 H       1  LIG1        0.0293
     92 H           6.5264  -10.9529   -0.6187 H       1  LIG1        0.0293
     93 H           6.6171   -9.4349    0.3139 H       1  LIG1        0.0293
     94 C          11.8923  -11.5720    2.6674 C.3     1  LIG1       -0.0383
     95 H          12.2937  -10.6308    3.0531 H       1  LIG1        0.0278
     96 H          12.6093  -11.9659    1.9379 H       1  LIG1        0.0278
     97 H          11.8536  -12.2848    3.4986 H       1  LIG1        0.0278
@<TRIPOS>BOND
     1    12     9    1
     2     7     1    1
     3    78    75    1
     4     9    10    1
     5     9    11    1
     6     9     8    1
     7    76    75    1
     8     1     5   ar
     9     1     2   ar
    10     6     5    1
    11    77    75    1
    12    75    74    1
    13     5     4   ar
    14     8     2    1
    15     2     3   ar
    16    42    39    1
    17    46    38    1
    18     4     3   ar
    19     4    15    1
    20    74    70    1
    21     3    13    1
    22    36    34    1
    23    80    79    1
    24    39    38   ar
    25    39    41   ar
    26    38    40   ar
    27    92    90    1
    28    19    15   ar
    29    19    18   ar
    30    81    79    1
    31    15    16   ar
    32    70    69   ar
    33    70    71   ar
    34    64    59    1
    35    64    65    1
    36    33    31    1
    37    59    60   ar
    38    59    58   ar
    39    60    66    1
    40    60    61   ar
    41    79    71    1
    42    66    67    3
    43    67    68    1
    44    58    52    1
    45    58    62   ar
    46    61    62   ar
    47    61    69    1
    48    32    31    1
    49    52    53   ar
    50    52    51   ar
    51    53    48   ar
    52    57    56    1
    53    62    63    1
    54    55    48    1
    55    51    56    1
    56    51    50   ar
    57    48    49   ar
    58    69    73   ar
    59    71    72   ar
    60    50    49   ar
    61    50    54    1
    62    49    41    1
    63    41    44   ar
    64    13    14    1
    65    30    29    1
    66    40    28    1
    67    40    43   ar
    68    28    27   ar
    69    28    29   ar
    70    27    26   ar
    71    27    34    1
    72    26    25   ar
    73    26    31    1
    74    34    35    1
    75    34    37    1
    76    29    25   ar
    77    25    18    1
    78    18    17   ar
    79    93    90    1
    80    16    20    1
    81    16    17   ar
    82    90    82    1
    83    90    91    1
    84    73    72   ar
    85    72    83    1
    86    44    43   ar
    87    44    47    1
    88    43    45    1
    89    17    21    1
    90    82    83   ar
    91    82    87   ar
    92    83    84   ar
    93    23    21    1
    94    87    86   ar
    95    84    88    1
    96    84    85   ar
    97    21    22    1
    98    21    24    1
    99    96    94    1
   100    86    85   ar
   101    86    89    1
   102    85    94    1
   103    94    95    1
   104    94    97    1
