@<TRIPOS>MOLECULE
mol_data/opt/b3lyp/geoms/mol2/13lf13lf-.out
 28 29 0 0 0
SMALL
GASTEIGER

@<TRIPOS>ATOM
      1 C           1.0218   -0.5654   -0.2862 C.ar    1  LIG1        0.0482
      2 C           0.6777    0.7319    0.0528 C.ar    1  LIG1        0.1793
      3 C          -0.7351    0.7932    0.1609 C.ar    1  LIG1        0.1859
      4 C          -1.2394   -0.4677   -0.1099 C.ar    1  LIG1        0.1124
      5 N          -0.1534   -1.2848   -0.3632 N.ar    1  LIG1       -0.3534
      6 H          -0.2604   -2.2249   -0.7108 H       1  LIG1        0.1656
      7 H           1.9808   -1.0241   -0.4618 H       1  LIG1        0.0845
      8 O           1.4421    1.8426    0.2862 O.3     1  LIG1       -0.4900
      9 C           2.8397    1.6579    0.1357 C.3     1  LIG1        0.0790
     10 H           3.3103    2.6193    0.3476 H       1  LIG1        0.0660
     11 H           3.2173    0.9039    0.8397 H       1  LIG1        0.0660
     12 H           3.0903    1.3462   -0.8873 H       1  LIG1        0.0660
     13 O          -1.4954    1.8923    0.4824 O.3     1  LIG1       -0.5019
     14 H          -0.8884    2.6334    0.6147 H       1  LIG1        0.2924
     15 C          -2.5959   -0.9435   -0.1559 C.ar    1  LIG1        0.1126
     16 C          -3.0996   -2.2192   -0.3844 C.ar    1  LIG1        0.1882
     17 C          -4.5183   -2.1423   -0.3746 C.ar    1  LIG1        0.1769
     18 C          -4.8617   -0.8283   -0.1335 C.ar    1  LIG1        0.0480
     19 N          -3.6834   -0.1175    0.0006 N.ar    1  LIG1       -0.3534
     20 H          -3.5989    0.8724    0.1723 H       1  LIG1        0.1656
     21 H          -5.8288   -0.3608   -0.0465 H       1  LIG1        0.0845
     22 O          -2.3552   -3.3646   -0.6141 O.3     1  LIG1       -0.4895
     23 C          -2.2576   -4.2111    0.5424 C.3     1  LIG1        0.0791
     24 H          -1.6944   -5.0967    0.2375 H       1  LIG1        0.0660
     25 H          -1.7321   -3.7015    1.3586 H       1  LIG1        0.0660
     26 H          -3.2509   -4.5124    0.8941 H       1  LIG1        0.0660
     27 O          -5.3837   -3.1914   -0.5484 O.3     1  LIG1       -0.5023
     28 H          -4.9035   -3.8696   -1.0434 H       1  LIG1        0.2923
@<TRIPOS>BOND
     1    28    27    1
     2    12     9    1
     3     6     5    1
     4    22    16    1
     5    22    23    1
     6    27    17    1
     7     7     1    1
     8    16    17   ar
     9    16    15   ar
    10    17    18   ar
    11     5     1   ar
    12     5     4   ar
    13     1     2   ar
    14    15     4    1
    15    15    19   ar
    16    18    21    1
    17    18    19   ar
    18     4     3   ar
    19    19    20    1
    20     2     3   ar
    21     2     8    1
    22     9     8    1
    23     9    10    1
    24     9    11    1
    25     3    13    1
    26    24    23    1
    27    13    14    1
    28    23    26    1
    29    23    25    1
