@<TRIPOS>MOLECULE
mol_data/opt/b3lyp/geoms/mol2/13lf13lf-13lf-13lf-.out
 54 57 0 0 0
SMALL
GASTEIGER

@<TRIPOS>ATOM
      1 C           0.8792   -0.6734   -0.6718 C.ar    1  LIG1        0.0482
      2 C           0.4751    0.6414   -0.8276 C.ar    1  LIG1        0.1793
      3 C          -0.9229    0.6965   -0.5955 C.ar    1  LIG1        0.1859
      4 C          -1.3576   -0.5846   -0.2965 C.ar    1  LIG1        0.1124
      5 N          -0.2411   -1.4019   -0.3262 N.ar    1  LIG1       -0.3534
      6 H          -0.3109   -2.4070   -0.2941 H       1  LIG1        0.1656
      7 H           1.8494   -1.1335   -0.7608 H       1  LIG1        0.0845
      8 O           1.1743    1.7759   -1.1316 O.3     1  LIG1       -0.4900
      9 C           2.5586    1.5882   -1.3784 C.3     1  LIG1        0.0790
     10 H           2.9725    2.5693   -1.6155 H       1  LIG1        0.0660
     11 H           3.0666    1.1826   -0.4931 H       1  LIG1        0.0660
     12 H           2.7207    0.9081   -2.2254 H       1  LIG1        0.0660
     13 O          -1.7298    1.8065   -0.6446 O.3     1  LIG1       -0.5019
     14 H          -1.1809    2.5517   -0.9256 H       1  LIG1        0.2924
     15 C          -2.6763   -1.0768   -0.0156 C.ar    1  LIG1        0.1131
     16 C          -3.1205   -2.3584    0.2892 C.ar    1  LIG1        0.1889
     17 C          -4.5340   -2.3290    0.3866 C.ar    1  LIG1        0.1866
     18 C          -4.9557   -1.0272    0.1415 C.ar    1  LIG1        0.1129
     19 N          -3.7971   -0.2798   -0.0750 N.ar    1  LIG1       -0.3458
     20 H          -3.7763    0.6487   -0.4710 H       1  LIG1        0.1662
     21 O          -2.3363   -3.4835    0.4731 O.3     1  LIG1       -0.4895
     22 C          -2.0201   -3.7322    1.8535 C.3     1  LIG1        0.0791
     23 H          -1.4463   -4.6617    1.8813 H       1  LIG1        0.0660
     24 H          -1.4209   -2.9148    2.2707 H       1  LIG1        0.0660
     25 H          -2.9313   -3.8461    2.4518 H       1  LIG1        0.0660
     26 O          -5.3356   -3.3881    0.7098 O.3     1  LIG1       -0.5019
     27 H          -4.8002   -4.1865    0.5970 H       1  LIG1        0.2924
     28 C          -6.2588   -0.4063    0.1830 C.ar    1  LIG1        0.1131
     29 C          -7.5372   -0.8544   -0.1489 C.ar    1  LIG1        0.1889
     30 C          -8.4535    0.2007    0.0840 C.ar    1  LIG1        0.1866
     31 C          -7.7527    1.3048    0.5419 C.ar    1  LIG1        0.1129
     32 N          -6.4164    0.9084    0.5815 N.ar    1  LIG1       -0.3458
     33 H          -5.6759    1.4900    0.9383 H       1  LIG1        0.1662
     34 O          -7.9830   -2.0747   -0.5939 O.3     1  LIG1       -0.4895
     35 C          -7.4057   -2.5333   -1.8189 C.3     1  LIG1        0.0791
     36 H          -7.9529   -3.4369   -2.0971 H       1  LIG1        0.0660
     37 H          -7.5106   -1.7810   -2.6105 H       1  LIG1        0.0660
     38 H          -6.3480   -2.7793   -1.6888 H       1  LIG1        0.0660
     39 O          -9.8018    0.0987   -0.1057 O.3     1  LIG1       -0.5019
     40 H          -9.9546   -0.8117   -0.4034 H       1  LIG1        0.2924
     41 C          -8.1571    2.6322    0.9655 C.ar    1  LIG1        0.1126
     42 C          -8.8905    3.6389    0.3508 C.ar    1  LIG1        0.1882
     43 C          -8.9122    4.7685    1.2187 C.ar    1  LIG1        0.1769
     44 C          -8.1987    4.4491    2.3501 C.ar    1  LIG1        0.0480
     45 N          -7.7192    3.1607    2.1727 N.ar    1  LIG1       -0.3534
     46 H          -7.4028    2.5746    2.9291 H       1  LIG1        0.1656
     47 H          -7.9772    5.0277    3.2324 H       1  LIG1        0.0845
     48 O          -9.4167    3.6880   -0.9179 O.3     1  LIG1       -0.4895
     49 C         -10.7505    3.1648   -1.0309 C.3     1  LIG1        0.0791
     50 H         -11.0558    3.3309   -2.0670 H       1  LIG1        0.0660
     51 H         -10.7704    2.0959   -0.8034 H       1  LIG1        0.0660
     52 H         -11.4393    3.6947   -0.3603 H       1  LIG1        0.0660
     53 O          -9.5050    5.9623    0.9235 O.3     1  LIG1       -0.5023
     54 H          -9.7412    5.9128   -0.0154 H       1  LIG1        0.2923
@<TRIPOS>BOND
     1    37    35    1
     2    12     9    1
     3    36    35    1
     4    50    49    1
     5    35    38    1
     6    35    34    1
     7    10     9    1
     8     9     8    1
     9     9    11    1
    10     8     2    1
    11    49    48    1
    12    49    51    1
    13    49    52    1
    14    14    13    1
    15    48    42    1
    16     2     1   ar
    17     2     3   ar
    18     7     1    1
    19     1     5   ar
    20    13     3    1
    21     3     4   ar
    22    34    29    1
    23    20    19    1
    24    40    39    1
    25     5     4   ar
    26     5     6    1
    27     4    15    1
    28    29    30   ar
    29    29    28   ar
    30    39    30    1
    31    19    15   ar
    32    19    18   ar
    33    15    16   ar
    34    54    53    1
    35    30    31   ar
    36    18    28    1
    37    18    17   ar
    38    28    32   ar
    39    16    17   ar
    40    16    21    1
    41    42    41   ar
    42    42    43   ar
    43    17    26    1
    44    21    22    1
    45    31    32   ar
    46    31    41    1
    47    32    33    1
    48    27    26    1
    49    53    43    1
    50    41    45   ar
    51    43    44   ar
    52    22    23    1
    53    22    24    1
    54    22    25    1
    55    45    44   ar
    56    45    46    1
    57    44    47    1
