@<TRIPOS>MOLECULE
mol_data/opt/b3lyp/geoms/mol2/13lf13lf-13lf-13lf.out
 54 57 0 0 0
SMALL
GASTEIGER

@<TRIPOS>ATOM
      1 C           1.1743   -0.7961    0.1989 C.ar    1  LIG1        0.0482
      2 C           0.8093    0.4420   -0.3052 C.ar    1  LIG1        0.1793
      3 C          -0.6056    0.5081   -0.3102 C.ar    1  LIG1        0.1859
      4 C          -1.0917   -0.6912    0.1894 C.ar    1  LIG1        0.1124
      5 N           0.0083   -1.4703    0.4892 N.ar    1  LIG1       -0.3534
      6 H          -0.0833   -2.3847    0.9042 H       1  LIG1        0.1656
      7 H           2.1428   -1.2355    0.3712 H       1  LIG1        0.0845
      8 O           1.5588    1.4946   -0.7575 O.3     1  LIG1       -0.4900
      9 C           2.9624    1.3060   -0.6989 C.3     1  LIG1        0.0790
     10 H           3.4207    2.2166   -1.0880 H       1  LIG1        0.0660
     11 H           3.2974    1.1418    0.3344 H       1  LIG1        0.0660
     12 H           3.2731    0.4498   -1.3131 H       1  LIG1        0.0660
     13 O          -1.3868    1.5562   -0.7390 O.3     1  LIG1       -0.5019
     14 H          -0.7892    2.2481   -1.0541 H       1  LIG1        0.2924
     15 C          -2.4411   -1.1394    0.3824 C.ar    1  LIG1        0.1131
     16 C          -2.9285   -2.3775    0.7910 C.ar    1  LIG1        0.1889
     17 C          -4.3470   -2.3131    0.7934 C.ar    1  LIG1        0.1866
     18 C          -4.7086   -1.0297    0.3728 C.ar    1  LIG1        0.1129
     19 N          -3.5295   -0.3241    0.1626 N.ar    1  LIG1       -0.3458
     20 H          -3.4494    0.5560   -0.3248 H       1  LIG1        0.1662
     21 O          -2.1117   -3.4124    1.1900 O.3     1  LIG1       -0.4895
     22 C          -2.4001   -4.6721    0.5728 C.3     1  LIG1        0.0791
     23 H          -1.6799   -5.3857    0.9791 H       1  LIG1        0.0660
     24 H          -3.4166   -4.9989    0.8076 H       1  LIG1        0.0660
     25 H          -2.2806   -4.6112   -0.5168 H       1  LIG1        0.0660
     26 O          -5.1577   -3.3340    1.1892 O.3     1  LIG1       -0.5019
     27 H          -6.0767   -3.1211    0.9333 H       1  LIG1        0.2924
     28 C          -6.0134   -0.4391    0.2526 C.ar    1  LIG1        0.1131
     29 C          -7.2591   -1.0469    0.0945 C.ar    1  LIG1        0.1889
     30 C          -8.2501   -0.0387    0.0585 C.ar    1  LIG1        0.1866
     31 C          -7.6137    1.1864    0.1807 C.ar    1  LIG1        0.1129
     32 N          -6.2537    0.9183    0.2756 N.ar    1  LIG1       -0.3458
     33 H          -5.6010    1.6361    0.5576 H       1  LIG1        0.1662
     34 O          -7.5107   -2.4086   -0.0067 O.3     1  LIG1       -0.4895
     35 C          -7.4280   -2.9098   -1.3561 C.3     1  LIG1        0.0791
     36 H          -7.6595   -3.9759   -1.3072 H       1  LIG1        0.0660
     37 H          -8.1543   -2.3997   -1.9973 H       1  LIG1        0.0660
     38 H          -6.4212   -2.7654   -1.7605 H       1  LIG1        0.0660
     39 O          -9.6056   -0.2060   -0.1006 O.3     1  LIG1       -0.5019
     40 H          -9.8108   -1.1231    0.1293 H       1  LIG1        0.2924
     41 C          -8.1414    2.5202    0.2390 C.ar    1  LIG1        0.1126
     42 C          -7.4833    3.7357    0.4034 C.ar    1  LIG1        0.1882
     43 C          -8.4710    4.7590    0.4459 C.ar    1  LIG1        0.1769
     44 C          -9.7052    4.1533    0.3016 C.ar    1  LIG1        0.0480
     45 N          -9.4878    2.7940    0.1818 N.ar    1  LIG1       -0.3534
     46 H         -10.1918    2.0776    0.1004 H       1  LIG1        0.1656
     47 H         -10.6976    4.5763    0.2731 H       1  LIG1        0.0845
     48 O          -6.1193    3.8472    0.5649 O.3     1  LIG1       -0.4895
     49 C          -5.4798    4.7282   -0.3662 C.3     1  LIG1        0.0791
     50 H          -4.4137    4.7057   -0.1295 H       1  LIG1        0.0660
     51 H          -5.6349    4.3885   -1.3983 H       1  LIG1        0.0660
     52 H          -5.8576    5.7495   -0.2617 H       1  LIG1        0.0660
     53 O          -8.1684    6.0889    0.5965 O.3     1  LIG1       -0.5023
     54 H          -8.9903    6.5951    0.5922 H       1  LIG1        0.2923
@<TRIPOS>BOND
     1    37    35    1
     2    38    35    1
     3    51    49    1
     4    35    36    1
     5    35    34    1
     6    12     9    1
     7    10     9    1
     8    14    13    1
     9     8     9    1
    10     8     2    1
    11    13     3    1
    12     9    11    1
    13    25    22    1
    14    49    52    1
    15    49    50    1
    16    49    48    1
    17    20    19    1
    18     3     2   ar
    19     3     4   ar
    20     2     1   ar
    21    39    30    1
    22    39    40    1
    23    34    29    1
    24    30    29   ar
    25    30    31   ar
    26    29    28   ar
    27    46    45    1
    28    19    18   ar
    29    19    15   ar
    30    31    41    1
    31    31    32   ar
    32    45    41   ar
    33    45    44   ar
    34     4    15    1
    35     4     5   ar
    36     1     7    1
    37     1     5   ar
    38    41    42   ar
    39    28    32   ar
    40    28    18    1
    41    47    44    1
    42    32    33    1
    43    44    43   ar
    44    18    17   ar
    45    15    16   ar
    46    42    43   ar
    47    42    48    1
    48    43    53    1
    49     5     6    1
    50    22    24    1
    51    22    23    1
    52    22    21    1
    53    54    53    1
    54    16    17   ar
    55    16    21    1
    56    17    26    1
    57    27    26    1
