@<TRIPOS>MOLECULE
mol_data/opt/b3lyp/geoms/mol2/13lf6dd-6ah-6il.out
 53 56 0 0 0
SMALL
GASTEIGER

@<TRIPOS>ATOM
      1 C           1.5013   -0.2818    0.2229 C.ar    1  LIG1        0.0481
      2 C           1.0384    1.0164    0.0931 C.ar    1  LIG1        0.1792
      3 C          -0.3701    0.9608    0.0179 C.ar    1  LIG1        0.1844
      4 C          -0.7666   -0.3817    0.1032 C.ar    1  LIG1        0.0950
      5 N           0.4128   -1.1099    0.2268 N.ar    1  LIG1       -0.3546
      6 H           0.4652   -2.1130    0.3161 H       1  LIG1        0.1656
      7 H           2.5025   -0.6717    0.3107 H       1  LIG1        0.0845
      8 O           1.6823    2.2169    0.0326 O.3     1  LIG1       -0.4900
      9 C           3.1001    2.1593    0.1198 C.3     1  LIG1        0.0790
     10 H           3.4590    3.1871    0.0589 H       1  LIG1        0.0660
     11 H           3.4183    1.7168    1.0727 H       1  LIG1        0.0660
     12 H           3.5221    1.5750   -0.7082 H       1  LIG1        0.0660
     13 O          -1.1833    2.0439   -0.1175 O.3     1  LIG1       -0.5019
     14 H          -0.6160    2.8289   -0.1453 H       1  LIG1        0.2924
     15 C          -2.4394   -2.3202    0.1550 C.ar    1  LIG1        0.1500
     16 C          -2.1008   -0.9406    0.0706 C.ar    1  LIG1        0.0391
     17 C          -3.2188   -0.0863   -0.0449 C.ar    1  LIG1       -0.0303
     18 C          -4.5162   -0.5889   -0.0962 C.ar    1  LIG1        0.0784
     19 C          -4.7343   -1.9976   -0.0465 C.ar    1  LIG1        0.0913
     20 N          -3.6843   -2.8090    0.0933 N.ar    1  LIG1       -0.2343
     21 H          -3.0668    0.9842   -0.0840 H       1  LIG1        0.0638
     22 N          -0.5839   -4.1255    0.4423 N.1     1  LIG1       -0.1893
     23 C          -1.4303   -3.3365    0.3140 C.1     1  LIG1        0.1198
     24 N          -6.4150    1.1792   -0.2121 N.1     1  LIG1       -0.1908
     25 C          -5.5832    0.3673   -0.1594 C.1     1  LIG1        0.1013
     26 C          -6.2512   -3.8764    0.5602 C.ar    1  LIG1        0.0376
     27 C          -6.0597   -2.6539   -0.1089 C.ar    1  LIG1        0.0215
     28 C          -7.1409   -2.1423   -0.8304 C.ar    1  LIG1       -0.0283
     29 C          -8.3652   -2.8226   -0.8470 C.ar    1  LIG1        0.0516
     30 C          -8.4575   -4.0352   -0.1143 C.ar    1  LIG1        0.0934
     31 N          -7.4068   -4.5339    0.5544 N.ar    1  LIG1       -0.2524
     32 H          -7.0474   -1.2252   -1.4019 H       1  LIG1        0.0644
     33 H          -5.4330   -4.3203    1.1182 H       1  LIG1        0.0836
     34 N          -9.4507   -2.2973   -1.5402 N.pl3   1  LIG1       -0.3563
     35 H          -9.2194   -1.6253   -2.2589 H       1  LIG1        0.1424
     36 H         -10.1435   -2.9703   -1.8384 H       1  LIG1        0.1424
     37 C          -9.7875   -6.1870   -0.3675 C.ar    1  LIG1        0.0477
     38 C          -9.7297   -4.8130   -0.0490 C.ar    1  LIG1        0.0266
     39 C         -10.9051   -4.1693    0.3727 C.ar    1  LIG1       -0.0075
     40 C         -12.0874   -4.9003    0.4761 C.ar    1  LIG1        0.1387
     41 C         -12.0449   -6.2600    0.1397 C.ar    1  LIG1        0.0695
     42 N         -10.9395   -6.8754   -0.2699 N.ar    1  LIG1       -0.2559
     43 H         -10.8703   -3.1157    0.6240 H       1  LIG1        0.0662
     44 H         -12.9558   -6.8512    0.2109 H       1  LIG1        0.0867
     45 C          -8.5892   -6.9710   -0.8420 C.3     1  LIG1       -0.0217
     46 H          -7.8724   -7.1202   -0.0297 H       1  LIG1        0.0293
     47 H          -8.0524   -6.4507   -1.6421 H       1  LIG1        0.0293
     48 H          -8.9270   -7.9421   -1.2072 H       1  LIG1        0.0293
     49 O         -13.2934   -4.4083    0.8784 O.3     1  LIG1       -0.4936
     50 C         -13.3632   -3.0379    1.2449 C.3     1  LIG1        0.0789
     51 H         -14.3990   -2.8558    1.5339 H       1  LIG1        0.0660
     52 H         -12.7059   -2.8127    2.0943 H       1  LIG1        0.0660
     53 H         -13.1013   -2.3800    0.4062 H       1  LIG1        0.0660
@<TRIPOS>BOND
     1    35    34    1
     2    36    34    1
     3    47    45    1
     4    34    29    1
     5    32    28    1
     6    48    45    1
     7    29    28   ar
     8    29    30   ar
     9    45    37    1
    10    45    46    1
    11    28    27   ar
    12    12     9    1
    13    37    42   ar
    14    37    38   ar
    15    42    41   ar
    16    24    25    3
    17    25    18    1
    18    14    13    1
    19    13     3    1
    20    30    38    1
    21    30    31   ar
    22    27    19    1
    23    27    26   ar
    24    18    19   ar
    25    18    17   ar
    26    21    17    1
    27    38    39   ar
    28    19    20   ar
    29    17    16   ar
    30     3     2   ar
    31     3     4   ar
    32     8     2    1
    33     8     9    1
    34    10     9    1
    35    16     4    1
    36    16    15   ar
    37     2     1   ar
    38    20    15   ar
    39     4     5   ar
    40     9    11    1
    41    41    44    1
    42    41    40   ar
    43    15    23    1
    44     1     5   ar
    45     1     7    1
    46     5     6    1
    47    23    22    3
    48    39    40   ar
    49    39    43    1
    50    53    50    1
    51    40    49    1
    52    31    26   ar
    53    26    33    1
    54    49    50    1
    55    50    51    1
    56    50    52    1
