@<TRIPOS>MOLECULE
mol_data/opt/b3lyp/geoms/mol2/13lf13lf-13lf.out
 41 43 0 0 0
SMALL
GASTEIGER

@<TRIPOS>ATOM
      1 C           1.3131   -0.7705   -0.3630 C.ar    1  LIG1        0.0482
      2 C           0.9606    0.5508   -0.1480 C.ar    1  LIG1        0.1793
      3 C          -0.4539    0.6178   -0.0674 C.ar    1  LIG1        0.1859
      4 C          -0.9517   -0.6654   -0.2316 C.ar    1  LIG1        0.1124
      5 N           0.1416   -1.4985   -0.3914 N.ar    1  LIG1       -0.3534
      6 H           0.0428   -2.4679   -0.6491 H       1  LIG1        0.1656
      7 H           2.2759   -1.2392   -0.4826 H       1  LIG1        0.0845
      8 O           1.7200    1.6809   -0.0093 O.3     1  LIG1       -0.4900
      9 C           3.1172    1.4911   -0.1530 C.3     1  LIG1        0.0790
     10 H           3.5837    2.4701   -0.0328 H       1  LIG1        0.0660
     11 H           3.5050    0.8064    0.6136 H       1  LIG1        0.0660
     12 H           3.3623    1.0885   -1.1453 H       1  LIG1        0.0660
     13 O          -1.2179    1.7374    0.1465 O.3     1  LIG1       -0.5019
     14 H          -0.6188    2.4963    0.1617 H       1  LIG1        0.2924
     15 C          -2.3029   -1.1521   -0.2577 C.ar    1  LIG1        0.1131
     16 C          -2.7849   -2.4552   -0.3754 C.ar    1  LIG1        0.1889
     17 C          -4.1978   -2.3947   -0.4037 C.ar    1  LIG1        0.1866
     18 C          -4.5723   -1.0616   -0.2932 C.ar    1  LIG1        0.1129
     19 N          -3.4031   -0.3292   -0.2004 N.ar    1  LIG1       -0.3458
     20 H          -3.3780    0.6805   -0.1520 H       1  LIG1        0.1662
     21 O          -2.0168   -3.6014   -0.4842 O.3     1  LIG1       -0.4895
     22 C          -1.9634   -4.3597    0.7342 C.3     1  LIG1        0.0791
     23 H          -1.3676   -5.2513    0.5238 H       1  LIG1        0.0660
     24 H          -1.4918   -3.7801    1.5364 H       1  LIG1        0.0660
     25 H          -2.9678   -4.6583    1.0553 H       1  LIG1        0.0660
     26 O          -5.0797   -3.4536   -0.4897 O.3     1  LIG1       -0.5019
     27 H          -4.6511   -4.1425   -1.0163 H       1  LIG1        0.2924
     28 C          -5.8770   -0.4597   -0.2692 C.ar    1  LIG1        0.1126
     29 C          -6.2500    0.8751   -0.1433 C.ar    1  LIG1        0.1882
     30 C          -7.6701    0.9341   -0.2130 C.ar    1  LIG1        0.1769
     31 C          -8.1344   -0.3582   -0.3728 C.ar    1  LIG1        0.0480
     32 N          -7.0332   -1.1909   -0.4132 N.ar    1  LIG1       -0.3534
     33 H          -7.0367   -2.1921   -0.5283 H       1  LIG1        0.1656
     34 H          -9.1406   -0.7387   -0.4603 H       1  LIG1        0.0845
     35 O          -5.3513    1.9119   -0.0389 O.3     1  LIG1       -0.4895
     36 C          -5.5258    2.7348    1.1196 C.3     1  LIG1        0.0791
     37 H          -4.7337    3.4858    1.0855 H       1  LIG1        0.0660
     38 H          -6.5026    3.2281    1.1073 H       1  LIG1        0.0660
     39 H          -5.4301    2.1435    2.0393 H       1  LIG1        0.0660
     40 O          -8.3784    2.1066   -0.1234 O.3     1  LIG1       -0.5023
     41 H          -9.3203    1.9018   -0.1747 H       1  LIG1        0.2923
@<TRIPOS>BOND
     1    12     9    1
     2    27    26    1
     3     6     5    1
     4    33    32    1
     5    26    17    1
     6    21    16    1
     7    21    22    1
     8     7     1    1
     9    34    31    1
    10    32    31   ar
    11    32    28   ar
    12    17    16   ar
    13    17    18   ar
    14     5     1   ar
    15     5     4   ar
    16    16    15   ar
    17    31    30   ar
    18     1     2   ar
    19    18    28    1
    20    18    19   ar
    21    28    29   ar
    22    15     4    1
    23    15    19   ar
    24     4     3   ar
    25    30    29   ar
    26    30    40    1
    27    19    20    1
    28    41    40    1
    29     9    10    1
    30     9     8    1
    31     9    11    1
    32     2     3   ar
    33     2     8    1
    34    29    35    1
    35     3    13    1
    36    35    36    1
    37    13    14    1
    38    23    22    1
    39    22    25    1
    40    22    24    1
    41    37    36    1
    42    38    36    1
    43    36    39    1
