@<TRIPOS>MOLECULE
mol_data/opt/b3lyp/geoms/mol2/13lf13lf-13lf13lf-.out
 54 57 0 0 0
SMALL
GASTEIGER

@<TRIPOS>ATOM
      1 C           1.2718   -0.7420   -0.4552 C.ar    1  LIG1        0.0482
      2 C           0.9065    0.5823   -0.2816 C.ar    1  LIG1        0.1793
      3 C          -0.5058    0.6330   -0.1654 C.ar    1  LIG1        0.1859
      4 C          -0.9890   -0.6625   -0.2664 C.ar    1  LIG1        0.1124
      5 N           0.1108   -1.4856   -0.4271 N.ar    1  LIG1       -0.3534
      6 H           0.0192   -2.4696   -0.6247 H       1  LIG1        0.1656
      7 H           2.2377   -1.2020   -0.5835 H       1  LIG1        0.0845
      8 O           1.6528    1.7269   -0.2084 O.3     1  LIG1       -0.4900
      9 C           3.0498    1.5496   -0.3725 C.3     1  LIG1        0.0790
     10 H           3.5051    2.5382   -0.2969 H       1  LIG1        0.0660
     11 H           3.4606    0.8983    0.4110 H       1  LIG1        0.0660
     12 H           3.2815    1.1144   -1.3541 H       1  LIG1        0.0660
     13 O          -1.2813    1.7501    0.0251 O.3     1  LIG1       -0.5019
     14 H          -0.6933    2.5171   -0.0117 H       1  LIG1        0.2924
     15 C          -2.3331   -1.1657   -0.2327 C.ar    1  LIG1        0.1131
     16 C          -2.8043   -2.4763   -0.2884 C.ar    1  LIG1        0.1889
     17 C          -4.2188   -2.4312   -0.2766 C.ar    1  LIG1        0.1866
     18 C          -4.6048   -1.0979   -0.2020 C.ar    1  LIG1        0.1129
     19 N          -3.4397   -0.3504   -0.1662 N.ar    1  LIG1       -0.3458
     20 H          -3.4137    0.6592   -0.2016 H       1  LIG1        0.1662
     21 O          -2.0207   -3.6121   -0.3781 O.3     1  LIG1       -0.4895
     22 C          -1.9874   -4.3726    0.8397 C.3     1  LIG1        0.0791
     23 H          -1.3743   -5.2550    0.6419 H       1  LIG1        0.0660
     24 H          -1.5439   -3.7887    1.6548 H       1  LIG1        0.0660
     25 H          -2.9952   -4.6857    1.1345 H       1  LIG1        0.0660
     26 O          -5.0918   -3.4989   -0.2918 O.3     1  LIG1       -0.5019
     27 H          -4.7101   -4.1790   -0.8639 H       1  LIG1        0.2924
     28 C          -5.9100   -0.5052   -0.1664 C.ar    1  LIG1        0.1131
     29 C          -6.2929    0.8322   -0.0568 C.ar    1  LIG1        0.1889
     30 C          -7.7037    0.8880   -0.1334 C.ar    1  LIG1        0.1866
     31 C          -8.1794   -0.4088   -0.2778 C.ar    1  LIG1        0.1129
     32 N          -7.0698   -1.2372   -0.2822 N.ar    1  LIG1       -0.3458
     33 H          -7.1058   -2.2325   -0.4524 H       1  LIG1        0.1662
     34 O          -5.4523    1.9215    0.0679 O.3     1  LIG1       -0.4895
     35 C          -5.2871    2.3618    1.4252 C.3     1  LIG1        0.0791
     36 H          -4.6296    3.2334    1.3926 H       1  LIG1        0.0660
     37 H          -6.2499    2.6419    1.8685 H       1  LIG1        0.0660
     38 H          -4.8269    1.5786    2.0384 H       1  LIG1        0.0660
     39 O          -8.4977    2.0104   -0.0590 O.3     1  LIG1       -0.5019
     40 H          -7.9496    2.7644   -0.3181 H       1  LIG1        0.2924
     41 C          -9.5210   -0.9055   -0.4028 C.ar    1  LIG1        0.1126
     42 C         -10.0019   -2.2091   -0.4818 C.ar    1  LIG1        0.1882
     43 C         -11.4118   -2.1508   -0.6425 C.ar    1  LIG1        0.1769
     44 C         -11.7761   -0.8204   -0.6523 C.ar    1  LIG1        0.0480
     45 N         -10.6172   -0.0806   -0.5002 N.ar    1  LIG1       -0.3534
     46 H         -10.5471    0.9247   -0.4798 H       1  LIG1        0.1656
     47 H         -12.7448   -0.3582   -0.7495 H       1  LIG1        0.0845
     48 O          -9.2501   -3.3704   -0.4446 O.3     1  LIG1       -0.4895
     49 C          -9.2025   -3.9721    0.8586 C.3     1  LIG1        0.0791
     50 H          -8.6124   -4.8863    0.7603 H       1  LIG1        0.0660
     51 H          -8.7233   -3.3032    1.5827 H       1  LIG1        0.0660
     52 H         -10.2094   -4.2197    1.2150 H       1  LIG1        0.0660
     53 O         -12.2514   -3.2280   -0.7495 O.3     1  LIG1       -0.5023
     54 H         -11.7006   -3.9811   -1.0059 H       1  LIG1        0.2923
@<TRIPOS>BOND
     1    12     9    1
     2    54    53    1
     3    27    26    1
     4    53    43    1
     5    47    44    1
     6    44    43   ar
     7    44    45   ar
     8    43    42   ar
     9     6     5    1
    10     7     1    1
    11    45    46    1
    12    45    41   ar
    13    42    48    1
    14    42    41   ar
    15     1     5   ar
    16     1     2   ar
    17    33    32    1
    18    48    49    1
    19     5     4   ar
    20    41    31    1
    21    21    16    1
    22    21    22    1
    23     9    10    1
    24     9     8    1
    25     9    11    1
    26    40    39    1
    27    26    17    1
    28    16    17   ar
    29    16    15   ar
    30    32    31   ar
    31    32    28   ar
    32     2     8    1
    33     2     3   ar
    34    31    30   ar
    35    17    18   ar
    36     4    15    1
    37     4     3   ar
    38    15    19   ar
    39    18    28    1
    40    18    19   ar
    41    20    19    1
    42    28    29   ar
    43     3    13    1
    44    30    39    1
    45    30    29   ar
    46    29    34    1
    47    14    13    1
    48    34    35    1
    49    23    22    1
    50    50    49    1
    51    22    25    1
    52    22    24    1
    53    49    52    1
    54    49    51    1
    55    36    35    1
    56    35    37    1
    57    35    38    1
