@<TRIPOS>MOLECULE
mol_data/opt/b3lyp/geoms/mol2/13lf6lf6ea-13ah-.out
 50 53 0 0 0
SMALL
GASTEIGER

@<TRIPOS>ATOM
      1 C           1.3794   -0.2298    0.4364 C.ar    1  LIG1        0.0481
      2 C           0.9631    1.0035   -0.0376 C.ar    1  LIG1        0.1792
      3 C          -0.4289    0.9294   -0.2743 C.ar    1  LIG1        0.1845
      4 C          -0.8593   -0.3571    0.0576 C.ar    1  LIG1        0.0975
      5 N           0.2722   -1.0338    0.4873 N.ar    1  LIG1       -0.3545
      6 H           0.2291   -1.9957    0.7847 H       1  LIG1        0.1656
      7 H           2.3530   -0.5848    0.7328 H       1  LIG1        0.0845
      8 O           1.6454    2.1644   -0.2826 O.3     1  LIG1       -0.4900
      9 C           3.0379    2.1176   -0.0203 C.3     1  LIG1        0.0790
     10 H           3.4388    3.1024   -0.2650 H       1  LIG1        0.0660
     11 H           3.2351    1.8968    1.0375 H       1  LIG1        0.0660
     12 H           3.5327    1.3581   -0.6408 H       1  LIG1        0.0660
     13 O          -1.2008    1.9536   -0.7472 O.3     1  LIG1       -0.5019
     14 H          -0.6119    2.7098   -0.8830 H       1  LIG1        0.2924
     15 C          -2.4755   -2.2969    0.3650 C.ar    1  LIG1        0.2247
     16 C          -2.1836   -0.9494   -0.0028 C.ar    1  LIG1        0.0670
     17 C          -3.2859   -0.2105   -0.4489 C.ar    1  LIG1       -0.0037
     18 C          -4.5588   -0.7798   -0.5032 C.ar    1  LIG1        0.1437
     19 C          -4.7313   -2.1103   -0.0938 C.ar    1  LIG1        0.1187
     20 N          -3.6720   -2.8334    0.3232 N.ar    1  LIG1       -0.2086
     21 H          -3.1606    0.8158   -0.7697 H       1  LIG1        0.0663
     22 O          -1.4342   -3.0816    0.7964 O.3     1  LIG1       -0.4792
     23 C          -1.7545   -4.4309    1.1521 C.3     1  LIG1        0.0804
     24 H          -0.8037   -4.8922    1.4245 H       1  LIG1        0.0660
     25 H          -2.4470   -4.4591    1.9979 H       1  LIG1        0.0660
     26 H          -2.2138   -4.9593    0.3129 H       1  LIG1        0.0660
     27 O          -5.5776    0.0079   -0.9694 O.3     1  LIG1       -0.5046
     28 H          -6.3511   -0.5509   -1.1307 H       1  LIG1        0.2922
     29 C          -6.2993   -4.0371   -0.6707 C.ar    1  LIG1        0.1231
     30 C          -6.0607   -2.7673   -0.0845 C.ar    1  LIG1        0.0379
     31 C          -7.1598   -2.1588    0.5487 C.ar    1  LIG1       -0.0477
     32 C          -8.3923   -2.7895    0.5964 C.ar    1  LIG1       -0.0336
     33 C          -8.5252   -4.0586    0.0037 C.ar    1  LIG1        0.0886
     34 N          -7.4900   -4.6562   -0.6186 N.ar    1  LIG1       -0.2363
     35 H          -7.0268   -1.1937    1.0295 H       1  LIG1        0.0626
     36 C          -5.2809   -4.7327   -1.4078 C.1     1  LIG1       -0.0491
     37 C          -4.4706   -5.3380   -2.0704 C.1     1  LIG1       -0.1124
     38 H          -3.7499   -5.8623   -2.6542 H       1  LIG1        0.1232
     39 H          -9.2347   -2.3243    1.0963 H       1  LIG1        0.0640
     40 C          -9.7715   -4.8042    0.0160 C.ar    1  LIG1        0.0668
     41 C         -11.0350   -4.5341    0.5407 C.ar    1  LIG1       -0.0142
     42 C         -11.8691   -5.6409    0.2398 C.ar    1  LIG1        0.0427
     43 C         -11.0927   -6.5585   -0.4614 C.ar    1  LIG1        0.0230
     44 N          -9.8316   -6.0349   -0.5811 N.ar    1  LIG1       -0.3578
     45 H          -9.0276   -6.4404   -1.0365 H       1  LIG1        0.1654
     46 H         -11.3465   -7.5280   -0.8628 H       1  LIG1        0.0826
     47 H         -11.3259   -3.6474    1.0867 H       1  LIG1        0.0658
     48 N         -13.2057   -5.8074    0.6496 N.pl3   1  LIG1       -0.3568
     49 H         -13.7118   -4.9300    0.6769 H       1  LIG1        0.1424
     50 H         -13.7142   -6.4624    0.0673 H       1  LIG1        0.1424
@<TRIPOS>BOND
     1    38    37    1
     2    37    36    3
     3    36    29    1
     4    28    27    1
     5    45    44    1
     6    27    18    1
     7    14    13    1
     8    46    43    1
     9    21    17    1
    10    13     3    1
    11    29    34   ar
    12    29    30   ar
    13    12     9    1
    14    34    33   ar
    15    44    43   ar
    16    44    40   ar
    17    18    17   ar
    18    18    19   ar
    19    43    42   ar
    20    17    16   ar
    21     8     2    1
    22     8     9    1
    23     3     2   ar
    24     3     4   ar
    25    10     9    1
    26    19    30    1
    27    19    20   ar
    28    30    31   ar
    29     2     1   ar
    30     9    11    1
    31    16     4    1
    32    16    15   ar
    33    33    40    1
    34    33    32   ar
    35    40    41   ar
    36     4     5   ar
    37    50    48    1
    38    42    41   ar
    39    42    48    1
    40    26    23    1
    41    20    15   ar
    42    15    22    1
    43     1     5   ar
    44     1     7    1
    45     5     6    1
    46    41    47    1
    47    31    32   ar
    48    31    35    1
    49    32    39    1
    50    48    49    1
    51    22    23    1
    52    23    24    1
    53    23    25    1
