@<TRIPOS>MOLECULE
mol_data/opt/b3lyp/geoms/mol2/13lg.out
 15 15 0 0 0
SMALL
GASTEIGER

@<TRIPOS>ATOM
      1 C           1.1165   -0.5334   -0.0001 C.ar    1  LIG1        0.0450
      2 C           0.7453    0.7982    0.0001 C.ar    1  LIG1        0.1504
      3 C          -0.6800    0.8623    0.0003 C.ar    1  LIG1        0.0638
      4 C          -1.1396   -0.4390    0.0003 C.ar    1  LIG1        0.0186
      5 N          -0.0488   -1.2737    0.0001 N.ar    1  LIG1       -0.3630
      6 H          -0.0914   -2.2784   -0.0003 H       1  LIG1        0.1649
      7 H          -2.1469   -0.8247    0.0005 H       1  LIG1        0.0819
      8 H           2.0868   -1.0030   -0.0003 H       1  LIG1        0.0844
      9 O           1.5133    1.9223    0.0001 O.3     1  LIG1       -0.4925
     10 C           2.9128    1.7033   -0.0002 C.3     1  LIG1        0.0789
     11 H           3.3841    2.6871   -0.0001 H       1  LIG1        0.0660
     12 H           3.2292    1.1476    0.8935 H       1  LIG1        0.0660
     13 H           3.2288    1.1478   -0.8941 H       1  LIG1        0.0660
     14 S          -1.5813    2.3942    0.0005 S.3     1  LIG1       -0.1377
     15 H          -2.8080    1.8360    0.0006 H       1  LIG1        0.1073
@<TRIPOS>BOND
     1    13    10    1
     2     6     5    1
     3     8     1    1
     4    10    11    1
     5    10     9    1
     6    10    12    1
     7     1     2   ar
     8     1     5   ar
     9     2     9    1
    10     2     3   ar
    11     5     4   ar
    12     3     4   ar
    13     3    14    1
    14     4     7    1
    15    14    15    1
