@<TRIPOS>MOLECULE
mol_data/opt/b3lyp/geoms/mol2/13lh6ee12ll12fe-.out
 54 57 0 0 0
SMALL
GASTEIGER

@<TRIPOS>ATOM
      1 C           1.1018    0.3188   -1.3172 C.ar    1  LIG1        0.0463
      2 C           1.0178    1.0072   -0.1271 C.ar    1  LIG1        0.1585
      3 C          -0.2623    0.7575    0.4608 C.ar    1  LIG1        0.0925
      4 C          -0.9519   -0.0815   -0.4169 C.ar    1  LIG1        0.0729
      5 N          -0.0759   -0.3880   -1.4632 N.ar    1  LIG1       -0.3561
      6 H          -0.4191   -0.6934   -2.3608 H       1  LIG1        0.1655
      7 H           1.8885    0.2636   -2.0523 H       1  LIG1        0.0845
      8 O           1.9352    1.7897    0.5165 O.3     1  LIG1       -0.4918
      9 C           3.1732    1.9445   -0.1533 C.3     1  LIG1        0.0789
     10 H           3.7967    2.5806    0.4771 H       1  LIG1        0.0660
     11 H           3.6705    0.9754   -0.2979 H       1  LIG1        0.0660
     12 H           3.0401    2.4231   -1.1338 H       1  LIG1        0.0660
     13 N          -0.6121    1.1658    1.7473 N.pl3   1  LIG1       -0.3535
     14 H          -0.0573    1.9535    2.0585 H       1  LIG1        0.1425
     15 H          -1.6113    1.3258    1.8572 H       1  LIG1        0.1425
     16 C          -3.4080   -0.0523    0.1432 C.ar    1  LIG1        0.0346
     17 C          -4.6186   -0.7357    0.2077 C.ar    1  LIG1       -0.0279
     18 C          -2.2568   -0.7331   -0.3259 C.ar    1  LIG1        0.0226
     19 C          -4.7696   -2.0744   -0.2097 C.ar    1  LIG1        0.0415
     20 H          -5.4846   -0.2203    0.6149 H       1  LIG1        0.0644
     21 C          -2.4050   -2.0680   -0.7327 C.ar    1  LIG1       -0.0294
     22 C          -3.6203   -2.7612   -0.6872 C.ar    1  LIG1        0.0361
     23 H          -1.5173   -2.6073   -1.0526 H       1  LIG1        0.0643
     24 N          -3.3125    1.2964    0.5718 N.pl3   1  LIG1       -0.3574
     25 H          -2.7114    1.8384   -0.0440 H       1  LIG1        0.1423
     26 H          -4.2198    1.7426    0.6444 H       1  LIG1        0.1423
     27 N          -3.6452   -4.1092   -1.0505 N.pl3   1  LIG1       -0.3574
     28 H          -4.5591   -4.5133   -1.1906 H       1  LIG1        0.1423
     29 H          -2.9763   -4.3693   -1.7609 H       1  LIG1        0.1423
     30 C          -6.1004   -2.6643   -0.1821 C.ar    1  LIG1        0.1583
     31 C          -7.3646   -2.1277   -0.3258 C.ar    1  LIG1        0.0746
     32 C          -8.3114   -3.1958   -0.1865 C.ar    1  LIG1        0.0166
     33 C          -7.5668   -4.3397   -0.0057 C.ar    1  LIG1        0.1417
     34 O          -6.2295   -4.0253    0.0174 O.2     1  LIG1       -0.4526
     35 N          -7.7174   -0.7842   -0.5182 N.pl3   1  LIG1       -0.3548
     36 H          -6.9689   -0.2461   -0.9404 H       1  LIG1        0.1424
     37 H          -8.5606   -0.6861   -1.0727 H       1  LIG1        0.1424
     38 C          -9.7973   -3.0054   -0.1558 C.3     1  LIG1       -0.0343
     39 H         -10.2955   -3.8231    0.3692 H       1  LIG1        0.0279
     40 H         -10.2329   -2.9632   -1.1604 H       1  LIG1        0.0279
     41 H         -10.0411   -2.0734    0.3659 H       1  LIG1        0.0279
     42 C          -8.9320   -6.4388   -0.3871 C.ar    1  LIG1        0.0626
     43 C          -9.1834   -7.7848   -0.0539 C.ar    1  LIG1       -0.0402
     44 C          -7.8733   -5.7420    0.2523 C.ar    1  LIG1        0.0384
     45 C          -8.3960   -8.4586    0.8629 C.ar    1  LIG1       -0.0189
     46 H          -9.9985   -8.3010   -0.5500 H       1  LIG1        0.0632
     47 C          -7.0689   -6.4482    1.1620 C.ar    1  LIG1       -0.0083
     48 C          -7.3192   -7.7865    1.4618 C.ar    1  LIG1        0.1176
     49 H          -6.2479   -5.9258    1.6440 H       1  LIG1        0.0661
     50 H          -8.5821   -9.4958    1.1167 H       1  LIG1        0.0654
     51 N         -10.3193   -5.4239   -2.3295 N.1     1  LIG1       -0.1908
     52 C          -9.6953   -5.8551   -1.4454 C.1     1  LIG1        0.0999
     53 O          -6.5613   -8.4911    2.3431 O.3     1  LIG1       -0.5067
     54 H          -5.8504   -7.9280    2.6787 H       1  LIG1        0.2921
@<TRIPOS>BOND
     1     6     5    1
     2    51    52    3
     3     7     1    1
     4    29    27    1
     5     5     1   ar
     6     5     4   ar
     7    52    42    1
     8     1     2   ar
     9    28    27    1
    10    40    38    1
    11    12     9    1
    12    37    35    1
    13    23    21    1
    14    27    22    1
    15    36    35    1
    16    21    22   ar
    17    21    18   ar
    18    22    19   ar
    19    46    43    1
    20    35    31    1
    21     4    18    1
    22     4     3   ar
    23    42    43   ar
    24    42    44   ar
    25    18    16   ar
    26    31    32   ar
    27    31    30   ar
    28    11     9    1
    29    19    30    1
    30    19    17   ar
    31    32    38    1
    32    32    33   ar
    33    30    34   ar
    34    38    41    1
    35    38    39    1
    36     9    10    1
    37     9     8    1
    38     2     3   ar
    39     2     8    1
    40    43    45   ar
    41    25    24    1
    42    33    34   ar
    43    33    44    1
    44    16    17   ar
    45    16    24    1
    46    17    20    1
    47    44    47   ar
    48     3    13    1
    49    24    26    1
    50    45    50    1
    51    45    48   ar
    52    47    48   ar
    53    47    49    1
    54    48    53    1
    55    13    15    1
    56    13    14    1
    57    53    54    1
