@<TRIPOS>MOLECULE
mol_data/opt/b3lyp/geoms/mol2/13lh13lh-13lh-13lh-.out
 58 61 0 0 0
SMALL
GASTEIGER

@<TRIPOS>ATOM
      1 C           1.0910   -0.5343   -0.2215 C.ar    1  LIG1        0.0463
      2 C           0.6910    0.7063    0.2428 C.ar    1  LIG1        0.1585
      3 C          -0.7338    0.7414    0.2567 C.ar    1  LIG1        0.0940
      4 C          -1.1721   -0.4973   -0.2032 C.ar    1  LIG1        0.0912
      5 N          -0.0618   -1.2528   -0.4830 N.ar    1  LIG1       -0.3549
      6 H          -0.1261   -2.1837   -0.8661 H       1  LIG1        0.1655
      7 H           2.0686   -0.9569   -0.3850 H       1  LIG1        0.0845
      8 O           1.4374    1.7766    0.6458 O.3     1  LIG1       -0.4918
      9 C           2.8408    1.5931    0.5756 C.3     1  LIG1        0.0789
     10 H           3.2987    2.5199    0.9257 H       1  LIG1        0.0660
     11 H           3.1663    0.7615    1.2158 H       1  LIG1        0.0660
     12 H           3.1656    1.3930   -0.4549 H       1  LIG1        0.0660
     13 N          -1.5985    1.8099    0.6664 N.pl3   1  LIG1       -0.3535
     14 H          -1.4053    2.0606    1.6352 H       1  LIG1        0.1425
     15 H          -1.3927    2.6478    0.1242 H       1  LIG1        0.1425
     16 C          -2.5076   -0.9990   -0.3788 C.ar    1  LIG1        0.1094
     17 C          -2.9682   -2.2646   -0.7246 C.ar    1  LIG1        0.1679
     18 C          -4.3898   -2.2459   -0.7358 C.ar    1  LIG1        0.0947
     19 C          -4.7751   -0.9464   -0.3764 C.ar    1  LIG1        0.0917
     20 N          -3.6141   -0.2092   -0.1844 N.ar    1  LIG1       -0.3473
     21 H          -3.5239    0.7050    0.2448 H       1  LIG1        0.1662
     22 O          -2.1458   -3.3233   -1.0592 O.3     1  LIG1       -0.4911
     23 C          -2.2531   -4.4373   -0.1591 C.3     1  LIG1        0.0790
     24 H          -1.6022   -5.2202   -0.5556 H       1  LIG1        0.0660
     25 H          -1.9205   -4.1576    0.8483 H       1  LIG1        0.0660
     26 H          -3.2846   -4.7994   -0.1097 H       1  LIG1        0.0660
     27 N          -5.2012   -3.3541   -1.0312 N.pl3   1  LIG1       -0.3534
     28 H          -6.1917   -3.1340   -0.9839 H       1  LIG1        0.1425
     29 H          -4.9632   -3.7800   -1.9208 H       1  LIG1        0.1425
     30 C          -6.0698   -0.3250   -0.2833 C.ar    1  LIG1        0.1094
     31 C          -7.3504   -0.8366   -0.1355 C.ar    1  LIG1        0.1679
     32 C          -8.2946    0.2336   -0.1525 C.ar    1  LIG1        0.0947
     33 C          -7.5728    1.4088   -0.3052 C.ar    1  LIG1        0.0916
     34 N          -6.2068    1.0606   -0.3384 N.ar    1  LIG1       -0.3473
     35 H          -5.5801    1.5848   -0.9349 H       1  LIG1        0.1662
     36 O          -7.7074   -2.1619    0.0251 O.3     1  LIG1       -0.4911
     37 C          -7.7275   -2.5902    1.3964 C.3     1  LIG1        0.0790
     38 H          -8.0495   -3.6339    1.3931 H       1  LIG1        0.0660
     39 H          -6.7291   -2.5161    1.8408 H       1  LIG1        0.0660
     40 H          -8.4322   -1.9863    1.9790 H       1  LIG1        0.0660
     41 N          -9.6672    0.0697    0.0462 N.pl3   1  LIG1       -0.3534
     42 H         -10.2023    0.7767   -0.4488 H       1  LIG1        0.1425
     43 H          -9.9622   -0.8650   -0.2131 H       1  LIG1        0.1425
     44 C          -7.9659    2.7946   -0.3479 C.ar    1  LIG1        0.1089
     45 C          -9.1835    3.4359   -0.5519 C.ar    1  LIG1        0.1673
     46 C          -8.9682    4.8500   -0.5309 C.ar    1  LIG1        0.0851
     47 C          -7.6268    5.0487   -0.2936 C.ar    1  LIG1        0.0267
     48 N          -7.0176    3.8001   -0.2268 N.ar    1  LIG1       -0.3549
     49 H          -6.1470    3.6390    0.2554 H       1  LIG1        0.1655
     50 H          -7.0538    5.9588   -0.2033 H       1  LIG1        0.0827
     51 O         -10.4013    2.8368   -0.8208 O.3     1  LIG1       -0.4911
     52 C         -11.3605    3.0101    0.2399 C.3     1  LIG1        0.0790
     53 H         -12.3051    2.6023   -0.1290 H       1  LIG1        0.0660
     54 H         -11.0461    2.4593    1.1337 H       1  LIG1        0.0660
     55 H         -11.4857    4.0696    0.4833 H       1  LIG1        0.0660
     56 N          -9.9953    5.8006   -0.7028 N.pl3   1  LIG1       -0.3540
     57 H          -9.6320    6.7249   -0.9057 H       1  LIG1        0.1425
     58 H         -10.6232    5.5247   -1.4520 H       1  LIG1        0.1425
@<TRIPOS>BOND
     1    29    27    1
     2    58    56    1
     3    22    17    1
     4    22    23    1
     5    27    28    1
     6    27    18    1
     7    35    34    1
     8    57    56    1
     9     6     5    1
    10    51    45    1
    11    51    52    1
    12    18    17   ar
    13    18    19   ar
    14    17    16   ar
    15    56    46    1
    16    24    23    1
    17    45    46   ar
    18    45    44   ar
    19    46    47   ar
    20     5     1   ar
    21     5     4   ar
    22    12     9    1
    23    42    41    1
    24     7     1    1
    25    16     4    1
    26    16    20   ar
    27    19    30    1
    28    19    20   ar
    29    44    33    1
    30    44    48   ar
    31    34    33   ar
    32    34    30   ar
    33    33    32   ar
    34    47    48   ar
    35    47    50    1
    36    30    31   ar
    37    48    49    1
    38     1     2   ar
    39    43    41    1
    40     4     3   ar
    41    20    21    1
    42    23    26    1
    43    23    25    1
    44    32    31   ar
    45    32    41    1
    46    31    36    1
    47    53    52    1
    48    36    37    1
    49    15    13    1
    50    52    55    1
    51    52    54    1
    52     2     3   ar
    53     2     8    1
    54     3    13    1
    55     9     8    1
    56     9    10    1
    57     9    11    1
    58    13    14    1
    59    38    37    1
    60    37    39    1
    61    37    40    1
