@<TRIPOS>MOLECULE
mol_data/opt/b3lyp/geoms/mol2/13lh4hh-12hi4df-.out
 56 59 0 0 0
SMALL
GASTEIGER

@<TRIPOS>ATOM
      1 C           1.5065   -0.2315   -0.3532 C.ar    1  LIG1        0.0481
      2 C           1.0735    1.0489   -0.0609 C.ar    1  LIG1        0.1792
      3 C          -0.3461    1.0078    0.0389 C.ar    1  LIG1        0.1844
      4 C          -0.7591   -0.2990   -0.1938 C.ar    1  LIG1        0.0956
      5 N           0.3898   -1.0317   -0.4844 N.ar    1  LIG1       -0.3546
      6 H           0.4059   -2.0395   -0.4440 H       1  LIG1        0.1656
      7 H           2.4985   -0.6226   -0.5098 H       1  LIG1        0.0845
      8 O           1.7797    2.2011    0.0894 O.3     1  LIG1       -0.4900
      9 C           3.1852    2.0645   -0.0254 C.3     1  LIG1        0.0790
     10 H           3.6091    3.0582    0.1264 H       1  LIG1        0.0660
     11 H           3.5839    1.3788    0.7352 H       1  LIG1        0.0660
     12 H           3.4719    1.6952   -1.0201 H       1  LIG1        0.0660
     13 O          -1.1077    2.1155    0.2888 O.3     1  LIG1       -0.5019
     14 H          -2.0145    1.9278    0.0102 H       1  LIG1        0.2924
     15 C          -2.5090   -1.9769   -0.9426 C.ar    1  LIG1        0.1261
     16 C          -2.0991   -0.8729   -0.1447 C.ar    1  LIG1        0.0418
     17 C          -3.0699   -0.3732    0.7300 C.ar    1  LIG1       -0.0443
     18 C          -4.3676   -0.8925    0.8046 C.ar    1  LIG1       -0.0236
     19 C          -4.6682   -1.9729   -0.0513 C.ar    1  LIG1        0.0793
     20 N          -3.7327   -2.4926   -0.8791 N.ar    1  LIG1       -0.2314
     21 H          -2.7875    0.4210    1.4167 H       1  LIG1        0.0628
     22 N          -1.6150   -2.6159   -1.8059 N.pl3   1  LIG1       -0.3426
     23 H          -2.1017   -3.2192   -2.4580 H       1  LIG1        0.1437
     24 H          -0.9588   -1.9934   -2.2631 H       1  LIG1        0.1437
     25 C          -5.3239   -0.3245    1.8291 C.3     1  LIG1       -0.0377
     26 H          -6.0131   -1.0833    2.2055 H       1  LIG1        0.0278
     27 H          -5.9332    0.4937    1.4258 H       1  LIG1        0.0278
     28 H          -4.7663    0.0825    2.6782 H       1  LIG1        0.0278
     29 C          -6.1743   -4.0317   -0.1577 C.ar    1  LIG1        0.1262
     30 C          -6.0066   -2.6177   -0.1134 C.ar    1  LIG1        0.0419
     31 C          -7.1727   -1.8579   -0.1624 C.ar    1  LIG1       -0.0265
     32 C          -8.4521   -2.4341   -0.2065 C.ar    1  LIG1        0.0517
     33 C          -8.5039   -3.8484   -0.2291 C.ar    1  LIG1        0.0955
     34 N          -7.3819   -4.5943   -0.2088 N.ar    1  LIG1       -0.2299
     35 H          -7.0962   -0.7740   -0.1672 H       1  LIG1        0.0644
     36 N          -5.0931   -4.8989   -0.0869 N.pl3   1  LIG1       -0.3426
     37 H          -5.3513   -5.8424   -0.3427 H       1  LIG1        0.1437
     38 H          -4.2597   -4.5457   -0.5407 H       1  LIG1        0.1437
     39 N          -9.5969   -1.6300   -0.1346 N.pl3   1  LIG1       -0.3563
     40 H          -9.3943   -0.6513   -0.2977 H       1  LIG1        0.1424
     41 H         -10.3512   -1.9495   -0.7423 H       1  LIG1        0.1424
     42 C         -10.8578   -4.4165   -1.0694 C.ar    1  LIG1        0.0340
     43 C         -12.0105   -5.1980   -0.9301 C.ar    1  LIG1       -0.0387
     44 C          -9.7782   -4.6265   -0.1854 C.ar    1  LIG1        0.0246
     45 C         -12.1073   -6.1827    0.0464 C.ar    1  LIG1       -0.0393
     46 H         -12.8443   -5.0388   -1.6105 H       1  LIG1        0.0637
     47 C          -9.8773   -5.6530    0.7642 C.ar    1  LIG1       -0.0300
     48 C         -11.0280   -6.4341    0.9067 C.ar    1  LIG1        0.0253
     49 H          -9.0221   -5.8269    1.4102 H       1  LIG1        0.0643
     50 H         -13.0198   -6.7669    0.1351 H       1  LIG1        0.0636
     51 N         -10.7977   -3.4071   -2.0695 N.pl3   1  LIG1       -0.3575
     52 H          -9.8962   -3.3833   -2.5374 H       1  LIG1        0.1423
     53 H         -11.5298   -3.5139   -2.7624 H       1  LIG1        0.1423
     54 N         -11.1267   -7.3967    1.9266 N.pl3   1  LIG1       -0.3579
     55 H         -11.7490   -8.1640    1.7069 H       1  LIG1        0.1423
     56 H         -10.2311   -7.7463    2.2429 H       1  LIG1        0.1423
@<TRIPOS>BOND
     1    53    51    1
     2    52    51    1
     3    23    22    1
     4    24    22    1
     5    51    42    1
     6    22    15    1
     7    46    43    1
     8    42    43   ar
     9    42    44   ar
    10    12     9    1
    11    15    20   ar
    12    15    16   ar
    13    43    45   ar
    14    20    19   ar
    15    41    39    1
    16    38    36    1
    17     7     1    1
    18     5     6    1
    19     5     1   ar
    20     5     4   ar
    21     1     2   ar
    22    37    36    1
    23    40    39    1
    24    33    34   ar
    25    33    32   ar
    26    33    44    1
    27    34    29   ar
    28    32    31   ar
    29    32    39    1
    30     4    16    1
    31     4     3   ar
    32    44    47   ar
    33    35    31    1
    34    31    30   ar
    35    29    30   ar
    36    29    36    1
    37    16    17   ar
    38    30    19    1
    39     2     3   ar
    40     2     8    1
    41    19    18   ar
    42     9     8    1
    43     9    10    1
    44     9    11    1
    45    14    13    1
    46     3    13    1
    47    45    50    1
    48    45    48   ar
    49    17    18   ar
    50    17    21    1
    51    47    48   ar
    52    47    49    1
    53    18    25    1
    54    48    54    1
    55    27    25    1
    56    55    54    1
    57    25    26    1
    58    25    28    1
    59    54    56    1
