@<TRIPOS>MOLECULE
mol_data/opt/b3lyp/geoms/mol2/13lh13ia-6la6ll.out
 57 60 0 0 0
SMALL
GASTEIGER

@<TRIPOS>ATOM
      1 C           0.9532    0.2090    1.3301 C.ar    1  LIG1        0.0463
      2 C           0.9013    1.1209    0.2987 C.ar    1  LIG1        0.1585
      3 C          -0.3382    0.9579   -0.3941 C.ar    1  LIG1        0.0939
      4 C          -1.0308   -0.0568    0.2494 C.ar    1  LIG1        0.0877
      5 N          -0.2046   -0.5494    1.2657 N.ar    1  LIG1       -0.3550
      6 H          -0.6001   -0.9911    2.0827 H       1  LIG1        0.1655
      7 H           1.7114    0.0184    2.0724 H       1  LIG1        0.0845
      8 O           1.8305    2.0195   -0.1432 O.3     1  LIG1       -0.4918
      9 C           3.0358    2.0570    0.6005 C.3     1  LIG1        0.0789
     10 H           3.6749    2.8054    0.1293 H       1  LIG1        0.0660
     11 H           2.8495    2.3435    1.6446 H       1  LIG1        0.0660
     12 H           3.5426    1.0820    0.5861 H       1  LIG1        0.0660
     13 N          -0.7161    1.6992   -1.5231 N.pl3   1  LIG1       -0.3535
     14 H           0.0922    2.0779   -2.0039 H       1  LIG1        0.1425
     15 H          -1.2884    1.1624   -2.1650 H       1  LIG1        0.1425
     16 C          -2.3127   -0.6656   -0.0391 C.ar    1  LIG1        0.0682
     17 C          -3.5487   -0.1087   -0.3906 C.ar    1  LIG1       -0.0231
     18 C          -4.4571   -1.1854   -0.5198 C.ar    1  LIG1       -0.0327
     19 C          -3.7877   -2.3774   -0.2394 C.ar    1  LIG1        0.0523
     20 N          -2.4865   -2.0283    0.0539 N.ar    1  LIG1       -0.3526
     21 H          -1.7620   -2.7092    0.2239 H       1  LIG1        0.1660
     22 C          -3.8643    1.3524   -0.5323 C.3     1  LIG1       -0.0376
     23 H          -4.8892    1.5602   -0.2080 H       1  LIG1        0.0278
     24 H          -3.7749    1.7068   -1.5669 H       1  LIG1        0.0278
     25 H          -3.1843    1.9626    0.0677 H       1  LIG1        0.0278
     26 H          -5.5062   -1.0906   -0.7649 H       1  LIG1        0.0642
     27 C          -3.4897   -4.8904    0.0891 C.ar    1  LIG1        0.2244
     28 C          -4.2774   -3.7468   -0.2334 C.ar    1  LIG1        0.0598
     29 C          -5.6069   -4.0435   -0.5663 C.ar    1  LIG1       -0.0455
     30 C          -6.0816   -5.3514   -0.5643 C.ar    1  LIG1       -0.0347
     31 C          -5.2113   -6.3898   -0.2185 C.ar    1  LIG1        0.0800
     32 N          -3.9284   -6.1318    0.1033 N.ar    1  LIG1       -0.2122
     33 H          -6.2742   -3.2345   -0.8443 H       1  LIG1        0.0626
     34 O          -2.1768   -4.6815    0.4103 O.3     1  LIG1       -0.4792
     35 C          -1.3911   -5.8446    0.7017 C.3     1  LIG1        0.0804
     36 H          -0.3771   -5.4742    0.8603 H       1  LIG1        0.0660
     37 H          -1.7587   -6.3486    1.5994 H       1  LIG1        0.0660
     38 H          -1.4204   -6.5540   -0.1283 H       1  LIG1        0.0660
     39 H          -7.1056   -5.5637   -0.8513 H       1  LIG1        0.0639
     40 C          -4.9346   -8.8849   -0.6932 C.ar    1  LIG1        0.2241
     41 C          -5.6737   -7.7980   -0.1634 C.ar    1  LIG1        0.0654
     42 C          -6.9076   -8.1044    0.4207 C.ar    1  LIG1       -0.0042
     43 C          -7.3551   -9.4284    0.4763 C.ar    1  LIG1        0.1390
     44 C          -6.5300  -10.4154   -0.0640 C.ar    1  LIG1        0.0730
     45 N          -5.3543  -10.1445   -0.6372 N.ar    1  LIG1       -0.2171
     46 H          -7.4910   -7.2986    0.8499 H       1  LIG1        0.0663
     47 H          -6.8436  -11.4559   -0.0258 H       1  LIG1        0.0868
     48 O          -3.7626   -8.6182   -1.3173 O.3     1  LIG1       -0.4792
     49 C          -3.0687   -9.7277   -1.8880 C.3     1  LIG1        0.0804
     50 H          -2.1755   -9.3018   -2.3480 H       1  LIG1        0.0660
     51 H          -2.7899  -10.4594   -1.1238 H       1  LIG1        0.0660
     52 H          -3.6779  -10.2347   -2.6424 H       1  LIG1        0.0660
     53 O          -8.5329   -9.8482    1.0297 O.3     1  LIG1       -0.4936
     54 C          -9.3885   -8.8671    1.5918 C.3     1  LIG1        0.0789
     55 H         -10.2610   -9.4051    1.9652 H       1  LIG1        0.0660
     56 H          -8.9088   -8.3380    2.4259 H       1  LIG1        0.0660
     57 H          -9.7130   -8.1327    0.8427 H       1  LIG1        0.0660
@<TRIPOS>BOND
     1    52    49    1
     2    50    49    1
     3    15    13    1
     4    14    13    1
     5    49    48    1
     6    49    51    1
     7    24    22    1
     8    13     3    1
     9    48    40    1
    10    39    30    1
    11    33    29    1
    12    26    18    1
    13    40    45   ar
    14    40    41   ar
    15    45    44   ar
    16    29    30   ar
    17    29    28   ar
    18    30    31   ar
    19    22    17    1
    20    22    23    1
    21    22    25    1
    22    18    17   ar
    23    18    19   ar
    24     3     4   ar
    25     3     2   ar
    26    17    16   ar
    27    19    28    1
    28    19    20   ar
    29    28    27   ar
    30    31    41    1
    31    31    32   ar
    32    41    42   ar
    33     8     2    1
    34     8     9    1
    35    38    35    1
    36    44    47    1
    37    44    43   ar
    38    16    20   ar
    39    16     4    1
    40    20    21    1
    41    27    32   ar
    42    27    34    1
    43    10     9    1
    44     4     5   ar
    45     2     1   ar
    46    34    35    1
    47    42    43   ar
    48    42    46    1
    49    43    53    1
    50    12     9    1
    51     9    11    1
    52    35    36    1
    53    35    37    1
    54    57    54    1
    55    53    54    1
    56     5     1   ar
    57     5     6    1
    58     1     7    1
    59    54    55    1
    60    54    56    1
