@<TRIPOS>MOLECULE
mol_data/opt/b3lyp/geoms/mol2/13lh13lh-13lh13lh-.out
 58 61 0 0 0
SMALL
GASTEIGER

@<TRIPOS>ATOM
      1 C           1.2994   -0.7058   -0.3596 C.ar    1  LIG1        0.0463
      2 C           0.9402    0.5679    0.0421 C.ar    1  LIG1        0.1585
      3 C          -0.4790    0.6141    0.1747 C.ar    1  LIG1        0.0940
      4 C          -0.9557   -0.6517   -0.1513 C.ar    1  LIG1        0.0912
      5 N           0.1288   -1.4382   -0.4549 N.ar    1  LIG1       -0.3549
      6 H           0.0314   -2.3781   -0.8066 H       1  LIG1        0.1655
      7 H           2.2595   -1.1470   -0.5708 H       1  LIG1        0.0845
      8 O           1.7176    1.6624    0.2942 O.3     1  LIG1       -0.4918
      9 C           3.1062    1.4758    0.0854 C.3     1  LIG1        0.0789
     10 H           3.5911    2.4264    0.3145 H       1  LIG1        0.0660
     11 H           3.5075    0.6948    0.7461 H       1  LIG1        0.0660
     12 H           3.3193    1.1995   -0.9566 H       1  LIG1        0.0660
     13 N          -1.3020    1.7202    0.5601 N.pl3   1  LIG1       -0.3535
     14 H          -1.1701    1.9372    1.5471 H       1  LIG1        0.1425
     15 H          -1.0140    2.5552    0.0540 H       1  LIG1        0.1425
     16 C          -2.3040   -1.1519   -0.2058 C.ar    1  LIG1        0.1094
     17 C          -2.7949   -2.4235   -0.4836 C.ar    1  LIG1        0.1679
     18 C          -4.2160   -2.3738   -0.4529 C.ar    1  LIG1        0.0947
     19 C          -4.5645   -1.0536   -0.1542 C.ar    1  LIG1        0.0917
     20 N          -3.3990   -0.3408   -0.0062 N.ar    1  LIG1       -0.3473
     21 H          -3.3185    0.6350    0.2583 H       1  LIG1        0.1662
     22 O          -2.0008   -3.5153   -0.7903 O.3     1  LIG1       -0.4911
     23 C          -1.9478   -4.4979    0.2473 C.3     1  LIG1        0.0790
     24 H          -1.2795   -5.2894   -0.1009 H       1  LIG1        0.0660
     25 H          -1.5592   -4.0698    1.1795 H       1  LIG1        0.0660
     26 H          -2.9375   -4.9286    0.4417 H       1  LIG1        0.0660
     27 N          -5.1640   -3.4167   -0.7014 N.pl3   1  LIG1       -0.3534
     28 H          -4.8937   -3.9593   -1.5180 H       1  LIG1        0.1425
     29 H          -5.2191   -4.0676    0.0801 H       1  LIG1        0.1425
     30 C          -5.8627   -0.4470   -0.0332 C.ar    1  LIG1        0.1094
     31 C          -6.2346    0.8656    0.2463 C.ar    1  LIG1        0.1679
     32 C          -7.6543    0.9365    0.2564 C.ar    1  LIG1        0.0947
     33 C          -8.1250   -0.3492   -0.0189 C.ar    1  LIG1        0.0916
     34 N          -7.0320   -1.1629   -0.1878 N.ar    1  LIG1       -0.3473
     35 H          -7.0490   -2.1329   -0.4837 H       1  LIG1        0.1662
     36 O          -5.3492    1.8888    0.5220 O.3     1  LIG1       -0.4911
     37 C          -5.2082    2.8389   -0.5362 C.3     1  LIG1        0.0790
     38 H          -4.4362    3.5449   -0.2215 H       1  LIG1        0.0660
     39 H          -4.9001    2.3521   -1.4693 H       1  LIG1        0.0660
     40 H          -6.1435    3.3852   -0.7142 H       1  LIG1        0.0660
     41 N          -8.4995    2.0634    0.5265 N.pl3   1  LIG1       -0.3534
     42 H          -8.1519    2.5758    1.3343 H       1  LIG1        0.1425
     43 H          -8.4957    2.7196   -0.2532 H       1  LIG1        0.1425
     44 C          -9.4779   -0.8348   -0.0963 C.ar    1  LIG1        0.1089
     45 C          -9.9875   -2.1039   -0.3549 C.ar    1  LIG1        0.1673
     46 C         -11.4092   -2.0338   -0.3195 C.ar    1  LIG1        0.0851
     47 C         -11.7327   -0.7190   -0.0289 C.ar    1  LIG1        0.0267
     48 N         -10.5581   -0.0073    0.0945 N.ar    1  LIG1       -0.3549
     49 H         -10.4293    0.9596    0.3666 H       1  LIG1        0.1655
     50 H         -12.6956   -0.2463    0.0921 H       1  LIG1        0.0827
     51 O          -9.2317   -3.2238   -0.6425 O.3     1  LIG1       -0.4911
     52 C          -9.2403   -4.1978    0.4090 C.3     1  LIG1        0.0790
     53 H          -8.6435   -5.0427    0.0558 H       1  LIG1        0.0660
     54 H          -8.7938   -3.7905    1.3248 H       1  LIG1        0.0660
     55 H         -10.2602   -4.5325    0.6284 H       1  LIG1        0.0660
     56 N         -12.2648   -3.1447   -0.4977 N.pl3   1  LIG1       -0.3540
     57 H         -13.2219   -2.8613   -0.6762 H       1  LIG1        0.1425
     58 H         -11.9497   -3.7186   -1.2743 H       1  LIG1        0.1425
@<TRIPOS>BOND
     1    28    27    1
     2    39    37    1
     3    58    56    1
     4    12     9    1
     5     6     5    1
     6    22    17    1
     7    22    23    1
     8    40    37    1
     9    27    18    1
    10    27    29    1
    11    57    56    1
    12    51    45    1
    13    51    52    1
    14     7     1    1
    15    37    38    1
    16    37    36    1
    17    56    46    1
    18    35    34    1
    19    17    18   ar
    20    17    16   ar
    21     5     1   ar
    22     5     4   ar
    23    18    19   ar
    24     1     2   ar
    25    45    46   ar
    26    45    44   ar
    27    46    47   ar
    28    43    41    1
    29    16     4    1
    30    16    20   ar
    31    34    30   ar
    32    34    33   ar
    33    19    30    1
    34    19    20   ar
    35     4     3   ar
    36    24    23    1
    37    44    33    1
    38    44    48   ar
    39    30    31   ar
    40    47    50    1
    41    47    48   ar
    42    33    32   ar
    43    20    21    1
    44     2     3   ar
    45     2     8    1
    46    15    13    1
    47    53    52    1
    48     9     8    1
    49     9    10    1
    50     9    11    1
    51    48    49    1
    52     3    13    1
    53    31    32   ar
    54    31    36    1
    55    23    26    1
    56    23    25    1
    57    32    41    1
    58    52    55    1
    59    52    54    1
    60    41    42    1
    61    13    14    1
