@<TRIPOS>MOLECULE
mol_data/opt/b3lyp/geoms/mol2/13lh13lh-.out
 30 31 0 0 0
SMALL
GASTEIGER

@<TRIPOS>ATOM
      1 C           1.0929   -0.5312   -0.2915 C.ar    1  LIG1        0.0463
      2 C           0.7385    0.7875   -0.0711 C.ar    1  LIG1        0.1585
      3 C          -0.6837    0.8630    0.0039 C.ar    1  LIG1        0.0940
      4 C          -1.1652   -0.4297   -0.1721 C.ar    1  LIG1        0.0912
      5 N          -0.0847   -1.2571   -0.3408 N.ar    1  LIG1       -0.3549
      6 H          -0.1849   -2.2399   -0.5441 H       1  LIG1        0.1655
      7 H           2.0532   -1.0054   -0.4100 H       1  LIG1        0.0845
      8 O           1.5230    1.8973    0.0667 O.3     1  LIG1       -0.4918
      9 C           2.9161    1.6678   -0.0504 C.3     1  LIG1        0.0789
     10 H           3.4076    2.6342    0.0746 H       1  LIG1        0.0660
     11 H           3.2727    0.9753    0.7248 H       1  LIG1        0.0660
     12 H           3.1707    1.2542   -1.0362 H       1  LIG1        0.0660
     13 N          -1.5106    2.0152    0.2136 N.pl3   1  LIG1       -0.3535
     14 H          -1.3175    2.4262    1.1260 H       1  LIG1        0.1425
     15 H          -1.2770    2.7374   -0.4658 H       1  LIG1        0.1425
     16 C          -2.5198   -0.9189   -0.1974 C.ar    1  LIG1        0.1089
     17 C          -3.0216   -2.2073   -0.3426 C.ar    1  LIG1        0.1673
     18 C          -4.4443   -2.1370   -0.3457 C.ar    1  LIG1        0.0851
     19 C          -4.7715   -0.7995   -0.1920 C.ar    1  LIG1        0.0267
     20 N          -3.6002   -0.0791   -0.1011 N.ar    1  LIG1       -0.3549
     21 H          -3.4725    0.9196    0.0135 H       1  LIG1        0.1655
     22 H          -5.7370   -0.3200   -0.1329 H       1  LIG1        0.0827
     23 O          -2.2451   -3.3417   -0.5012 O.3     1  LIG1       -0.4911
     24 C          -2.3262   -4.2441    0.6122 C.3     1  LIG1        0.0790
     25 H          -1.7168   -5.1140    0.3542 H       1  LIG1        0.0660
     26 H          -1.9335   -3.7772    1.5241 H       1  LIG1        0.0660
     27 H          -3.3608   -4.5563    0.7885 H       1  LIG1        0.0660
     28 N          -5.3018   -3.2591   -0.4243 N.pl3   1  LIG1       -0.3540
     29 H          -6.2659   -2.9859   -0.5807 H       1  LIG1        0.1425
     30 H          -5.0196   -3.8783   -1.1788 H       1  LIG1        0.1425
@<TRIPOS>BOND
     1    30    28    1
     2    12     9    1
     3    29    28    1
     4     6     5    1
     5    23    17    1
     6    23    24    1
     7    15    13    1
     8    28    18    1
     9     7     1    1
    10    18    17   ar
    11    18    19   ar
    12    17    16   ar
    13     5     1   ar
    14     5     4   ar
    15     1     2   ar
    16    16     4    1
    17    16    20   ar
    18    19    22    1
    19    19    20   ar
    20     4     3   ar
    21    20    21    1
    22     2     3   ar
    23     2     8    1
    24     9     8    1
    25     9    10    1
    26     9    11    1
    27     3    13    1
    28    13    14    1
    29    25    24    1
    30    24    27    1
    31    24    26    1
