@<TRIPOS>MOLECULE
mol_data/opt/b3lyp/geoms/mol2/13lh6dl-13if-12ia.out
 52 55 0 0 0
SMALL
GASTEIGER

@<TRIPOS>ATOM
      1 C           1.4151   -0.4324    0.1437 C.ar    1  LIG1        0.0463
      2 C           1.0011    0.8806    0.0042 C.ar    1  LIG1        0.1585
      3 C          -0.4118    0.8918   -0.1053 C.ar    1  LIG1        0.0925
      4 C          -0.8482   -0.4402   -0.0232 C.ar    1  LIG1        0.0739
      5 N           0.2935   -1.2170    0.1163 N.ar    1  LIG1       -0.3560
      6 H           0.3034   -2.2247    0.1482 H       1  LIG1        0.1655
      7 H           2.3986   -0.8619    0.2445 H       1  LIG1        0.0845
      8 O           1.7181    2.0423   -0.0417 O.3     1  LIG1       -0.4918
      9 C           3.1244    1.8948    0.0712 C.3     1  LIG1        0.0789
     10 H           3.5511    2.8972    0.0148 H       1  LIG1        0.0660
     11 H           3.3998    1.4354    1.0301 H       1  LIG1        0.0660
     12 H           3.5267    1.2813   -0.7463 H       1  LIG1        0.0660
     13 N          -1.1835    2.0669   -0.2445 N.pl3   1  LIG1       -0.3535
     14 H          -0.5664    2.8726   -0.2842 H       1  LIG1        0.1425
     15 H          -1.7487    2.0560   -1.0896 H       1  LIG1        0.1425
     16 C          -2.5706   -2.3189   -0.2355 C.ar    1  LIG1        0.1501
     17 C          -2.2032   -0.9643   -0.0385 C.ar    1  LIG1        0.0395
     18 C          -3.2899   -0.0881    0.1917 C.ar    1  LIG1       -0.0059
     19 C          -4.5992   -0.5411    0.1786 C.ar    1  LIG1        0.1481
     20 C          -4.8675   -1.9113   -0.1237 C.ar    1  LIG1        0.1304
     21 N          -3.8408   -2.7524   -0.2811 N.ar    1  LIG1       -0.2305
     22 H          -3.0677    0.9438    0.4294 H       1  LIG1        0.0662
     23 N          -0.7691   -4.1744   -0.5270 N.1     1  LIG1       -0.1893
     24 C          -1.5908   -3.3566   -0.4088 C.1     1  LIG1        0.1198
     25 O          -5.6656    0.2358    0.4825 O.3     1  LIG1       -0.4929
     26 C          -5.4434    1.5911    0.8553 C.3     1  LIG1        0.0789
     27 H          -6.4292    2.0036    1.0710 H       1  LIG1        0.0660
     28 H          -4.8120    1.6610    1.7485 H       1  LIG1        0.0660
     29 H          -4.9801    2.1617    0.0416 H       1  LIG1        0.0660
     30 C          -6.1928   -2.5211   -0.2088 C.ar    1  LIG1        0.0756
     31 C          -7.4996   -2.0756   -0.4801 C.ar    1  LIG1        0.0186
     32 C          -8.3091   -3.2347   -0.4799 C.ar    1  LIG1        0.1486
     33 C          -7.5228   -4.3566   -0.2104 C.ar    1  LIG1        0.1250
     34 N          -6.2415   -3.8885   -0.0642 N.ar    1  LIG1       -0.3473
     35 H          -5.4070   -4.4479    0.0352 H       1  LIG1        0.1662
     36 C          -8.0355   -0.7173   -0.8250 C.3     1  LIG1       -0.0342
     37 H          -8.9863   -0.8343   -1.3522 H       1  LIG1        0.0279
     38 H          -7.3506   -0.1574   -1.4656 H       1  LIG1        0.0279
     39 H          -8.2213   -0.1062    0.0644 H       1  LIG1        0.0279
     40 O          -9.6569   -3.2058   -0.7382 O.3     1  LIG1       -0.5043
     41 H          -9.9078   -4.0568   -1.1233 H       1  LIG1        0.2922
     42 C          -7.8497   -5.7600   -0.1253 C.ar    1  LIG1        0.1573
     43 C          -8.9443   -6.4761    0.3081 C.ar    1  LIG1       -0.0032
     44 C          -8.6054   -7.8591    0.1099 C.ar    1  LIG1       -0.0203
     45 C          -7.3463   -7.8910   -0.3988 C.ar    1  LIG1        0.0929
     46 O          -6.8655   -6.6260   -0.5566 O.2     1  LIG1       -0.4611
     47 H          -6.6788   -8.6878   -0.6877 H       1  LIG1        0.1029
     48 C         -10.2006   -5.9654    0.9527 C.3     1  LIG1       -0.0361
     49 H         -10.2774   -6.3220    1.9866 H       1  LIG1        0.0279
     50 H         -11.0948   -6.3235    0.4281 H       1  LIG1        0.0279
     51 H         -10.2364   -4.8748    0.9748 H       1  LIG1        0.0279
     52 H          -9.2266   -8.7130    0.3422 H       1  LIG1        0.0652
@<TRIPOS>BOND
     1    38    36    1
     2    37    36    1
     3    41    40    1
     4    15    13    1
     5    36    31    1
     6    36    39    1
     7    12     9    1
     8    40    32    1
     9    47    45    1
    10    46    45   ar
    11    46    42   ar
    12    23    24    3
    13    31    32   ar
    14    31    30   ar
    15    32    33   ar
    16    24    16    1
    17    45    44   ar
    18    14    13    1
    19    21    16   ar
    20    21    20   ar
    21    13     3    1
    22    16    17   ar
    23    33    42    1
    24    33    34   ar
    25    30    20    1
    26    30    34   ar
    27    42    43   ar
    28    20    19   ar
    29     3     4   ar
    30     3     2   ar
    31    34    35    1
    32     8     2    1
    33     8     9    1
    34    17     4    1
    35    17    18   ar
    36     4     5   ar
    37     2     1   ar
    38    10     9    1
    39    29    26    1
    40     9    11    1
    41    44    43   ar
    42    44    52    1
    43     5     1   ar
    44     5     6    1
    45     1     7    1
    46    19    18   ar
    47    19    25    1
    48    18    22    1
    49    43    48    1
    50    50    48    1
    51    25    26    1
    52    26    27    1
    53    26    28    1
    54    48    51    1
    55    48    49    1
