@<TRIPOS>MOLECULE
mol_data/opt/b3lyp/geoms/mol2/13lh13lh-13lh.out
 44 46 0 0 0
SMALL
GASTEIGER

@<TRIPOS>ATOM
      1 C           1.2680   -0.6782   -0.2797 C.ar    1  LIG1        0.0463
      2 C           0.9035    0.6094    0.0697 C.ar    1  LIG1        0.1585
      3 C          -0.5173    0.6588    0.1840 C.ar    1  LIG1        0.0940
      4 C          -0.9890   -0.6187   -0.0998 C.ar    1  LIG1        0.0912
      5 N           0.0991   -1.4153   -0.3609 N.ar    1  LIG1       -0.3549
      6 H           0.0072   -2.3674   -0.6792 H       1  LIG1        0.1655
      7 H           2.2307   -1.1261   -0.4629 H       1  LIG1        0.0845
      8 O           1.6779    1.7127    0.2893 O.3     1  LIG1       -0.4918
      9 C           3.0687    1.5188    0.1028 C.3     1  LIG1        0.0789
     10 H           3.5513    2.4774    0.3013 H       1  LIG1        0.0660
     11 H           3.4625    0.7631    0.7967 H       1  LIG1        0.0660
     12 H           3.2927    1.2035   -0.9258 H       1  LIG1        0.0660
     13 N          -1.3481    1.7753    0.5181 N.pl3   1  LIG1       -0.3535
     14 H          -1.2315    2.0291    1.4982 H       1  LIG1        0.1425
     15 H          -1.0585    2.5929   -0.0148 H       1  LIG1        0.1425
     16 C          -2.3373   -1.1198   -0.1496 C.ar    1  LIG1        0.1094
     17 C          -2.8277   -2.4009   -0.3776 C.ar    1  LIG1        0.1679
     18 C          -4.2493   -2.3464   -0.3621 C.ar    1  LIG1        0.0947
     19 C          -4.5979   -1.0149   -0.1237 C.ar    1  LIG1        0.0916
     20 N          -3.4332   -0.2986    0.0034 N.ar    1  LIG1       -0.3473
     21 H          -3.3490    0.6863    0.2324 H       1  LIG1        0.1662
     22 O          -2.0347   -3.5078   -0.6279 O.3     1  LIG1       -0.4911
     23 C          -1.9729   -4.4304    0.4630 C.3     1  LIG1        0.0790
     24 H          -1.3039   -5.2382    0.1561 H       1  LIG1        0.0660
     25 H          -1.5809   -3.9497    1.3676 H       1  LIG1        0.0660
     26 H          -2.9599   -4.8529    0.6873 H       1  LIG1        0.0660
     27 N          -5.1984   -3.4007   -0.5691 N.pl3   1  LIG1       -0.3534
     28 H          -4.9228   -3.9741   -1.3633 H       1  LIG1        0.1425
     29 H          -5.2420   -4.0231    0.2365 H       1  LIG1        0.1425
     30 C          -5.8996   -0.4059   -0.0368 C.ar    1  LIG1        0.1089
     31 C          -6.2900    0.9138    0.1752 C.ar    1  LIG1        0.1673
     32 C          -7.7127    0.9692    0.1878 C.ar    1  LIG1        0.0851
     33 C          -8.1574   -0.3249   -0.0301 C.ar    1  LIG1        0.0267
     34 N          -7.0561   -1.1377   -0.1671 N.ar    1  LIG1       -0.3549
     35 H          -7.0230   -2.1252   -0.3893 H       1  LIG1        0.1655
     36 H          -9.1618   -0.7164   -0.0790 H       1  LIG1        0.0827
     37 O          -5.4366    1.9843    0.3722 O.3     1  LIG1       -0.4911
     38 C          -5.2139    2.7598   -0.8102 C.3     1  LIG1        0.0790
     39 H          -4.5301    3.5656   -0.5327 H       1  LIG1        0.0660
     40 H          -4.7599    2.1534   -1.6032 H       1  LIG1        0.0660
     41 H          -6.1501    3.1901   -1.1875 H       1  LIG1        0.0660
     42 N          -8.5002    2.1170    0.4486 N.pl3   1  LIG1       -0.3540
     43 H          -7.9049    2.8955    0.7111 H       1  LIG1        0.1425
     44 H          -9.0646    2.3953   -0.3480 H       1  LIG1        0.1425
@<TRIPOS>BOND
     1    40    38    1
     2    28    27    1
     3    41    38    1
     4    12     9    1
     5    38    39    1
     6    38    37    1
     7     6     5    1
     8    22    17    1
     9    22    23    1
    10    27    18    1
    11    27    29    1
    12     7     1    1
    13    35    34    1
    14    17    18   ar
    15    17    16   ar
    16    18    19   ar
    17     5     1   ar
    18     5     4   ar
    19    44    42    1
    20     1     2   ar
    21    34    30   ar
    22    34    33   ar
    23    16     4    1
    24    16    20   ar
    25    19    30    1
    26    19    20   ar
    27     4     3   ar
    28    36    33    1
    29    30    31   ar
    30    33    32   ar
    31    15    13    1
    32    20    21    1
    33     2     3   ar
    34     2     8    1
    35     9     8    1
    36     9    10    1
    37     9    11    1
    38    24    23    1
    39    31    32   ar
    40    31    37    1
    41     3    13    1
    42    32    42    1
    43    42    43    1
    44    23    26    1
    45    23    25    1
    46    13    14    1
