@<TRIPOS>MOLECULE
mol_data/opt/b3lyp/geoms/mol2/13lh13lh-13lh-13lh.out
 58 61 0 0 0
SMALL
GASTEIGER

@<TRIPOS>ATOM
      1 C           1.0468   -0.8825    0.4780 C.ar    1  LIG1        0.0463
      2 C           0.6727    0.4148    0.7779 C.ar    1  LIG1        0.1585
      3 C          -0.7429    0.5165    0.6397 C.ar    1  LIG1        0.0940
      4 C          -1.2015   -0.7377    0.2498 C.ar    1  LIG1        0.0912
      5 N          -0.1094   -1.5638    0.1363 N.ar    1  LIG1       -0.3549
      6 H          -0.2007   -2.5589   -0.0008 H       1  LIG1        0.1655
      7 H           2.0104   -1.3644    0.4614 H       1  LIG1        0.0845
      8 O           1.4341    1.4856    1.1486 O.3     1  LIG1       -0.4918
      9 C           2.8188    1.2204    1.2911 C.3     1  LIG1        0.0789
     10 H           3.2890    2.1550    1.6017 H       1  LIG1        0.0660
     11 H           3.0005    0.4494    2.0525 H       1  LIG1        0.0660
     12 H           3.2611    0.8893    0.3411 H       1  LIG1        0.0660
     13 N          -1.5866    1.6511    0.8699 N.pl3   1  LIG1       -0.3535
     14 H          -1.3469    2.0842    1.7598 H       1  LIG1        0.1425
     15 H          -1.4253    2.3681    0.1636 H       1  LIG1        0.1425
     16 C          -2.5439   -1.1961    0.0158 C.ar    1  LIG1        0.1094
     17 C          -3.0325   -2.4529   -0.3299 C.ar    1  LIG1        0.1679
     18 C          -4.4532   -2.4096   -0.3188 C.ar    1  LIG1        0.0947
     19 C          -4.8108   -1.1014    0.0353 C.ar    1  LIG1        0.0917
     20 N          -3.6319   -0.3871    0.2207 N.ar    1  LIG1       -0.3473
     21 H          -3.5146    0.5306    0.6371 H       1  LIG1        0.1662
     22 O          -2.2463   -3.5497   -0.6441 O.3     1  LIG1       -0.4911
     23 C          -2.0160   -3.6998   -2.0488 C.3     1  LIG1        0.0790
     24 H          -1.4173   -4.6054   -2.1768 H       1  LIG1        0.0660
     25 H          -2.9571   -3.8108   -2.6025 H       1  LIG1        0.0660
     26 H          -1.4734   -2.8379   -2.4568 H       1  LIG1        0.0660
     27 N          -5.3015   -3.4952   -0.5515 N.pl3   1  LIG1       -0.3534
     28 H          -6.2724   -3.2411   -0.6880 H       1  LIG1        0.1425
     29 H          -4.9631   -4.1461   -1.2469 H       1  LIG1        0.1425
     30 C          -6.1009   -0.4595    0.1055 C.ar    1  LIG1        0.1094
     31 C          -7.3868   -0.9488    0.3440 C.ar    1  LIG1        0.1679
     32 C          -8.3065    0.1355    0.2935 C.ar    1  LIG1        0.0947
     33 C          -7.5695    1.2835    0.0257 C.ar    1  LIG1        0.0916
     34 N          -6.2496    0.9061   -0.0824 N.ar    1  LIG1       -0.3473
     35 H          -5.5169    1.5603   -0.3134 H       1  LIG1        0.1662
     36 O          -7.7544   -2.2583    0.5789 O.3     1  LIG1       -0.4911
     37 C          -7.3864   -2.7512    1.8752 C.3     1  LIG1        0.0790
     38 H          -7.7952   -3.7612    1.9501 H       1  LIG1        0.0660
     39 H          -6.2990   -2.7930    1.9888 H       1  LIG1        0.0660
     40 H          -7.8122   -2.1208    2.6658 H       1  LIG1        0.0660
     41 N          -9.7286    0.1185    0.4740 N.pl3   1  LIG1       -0.3534
     42 H         -10.1778   -0.3343   -0.3212 H       1  LIG1        0.1425
     43 H          -9.9685   -0.4518    1.2822 H       1  LIG1        0.1425
     44 C          -7.9919    2.6494   -0.1293 C.ar    1  LIG1        0.1089
     45 C          -7.2860    3.7920   -0.4931 C.ar    1  LIG1        0.1673
     46 C          -8.1698    4.9078   -0.4399 C.ar    1  LIG1        0.0851
     47 C          -9.4038    4.4097   -0.0535 C.ar    1  LIG1        0.0267
     48 N          -9.2827    3.0496    0.1165 N.ar    1  LIG1       -0.3549
     49 H          -9.9887    2.3812    0.4004 H       1  LIG1        0.1655
     50 H         -10.3378    4.9229    0.1152 H       1  LIG1        0.0827
     51 O          -5.9404    3.8241   -0.8280 O.3     1  LIG1       -0.4911
     52 C          -5.7145    3.8999   -2.2406 C.3     1  LIG1        0.0790
     53 H          -4.6319    3.9381   -2.3869 H       1  LIG1        0.0660
     54 H          -6.1247    3.0223   -2.7551 H       1  LIG1        0.0660
     55 H          -6.1685    4.8022   -2.6676 H       1  LIG1        0.0660
     56 N          -7.8305    6.2632   -0.6757 N.pl3   1  LIG1       -0.3540
     57 H          -6.8258    6.3637   -0.7726 H       1  LIG1        0.1425
     58 H          -8.2752    6.6421   -1.5061 H       1  LIG1        0.1425
@<TRIPOS>BOND
     1    54    52    1
     2    55    52    1
     3    25    23    1
     4    26    23    1
     5    53    52    1
     6    52    51    1
     7    24    23    1
     8    23    22    1
     9    58    56    1
    10    29    27    1
    11    51    45    1
    12    57    56    1
    13    28    27    1
    14    56    46    1
    15    22    17    1
    16    27    18    1
    17    45    46   ar
    18    45    44   ar
    19    46    47   ar
    20    17    18   ar
    21    17    16   ar
    22    42    41    1
    23    18    19   ar
    24    35    34    1
    25    44    33    1
    26    44    48   ar
    27    34    33   ar
    28    34    30   ar
    29    47    50    1
    30    47    48   ar
    31     6     5    1
    32    16    20   ar
    33    16     4    1
    34    33    32   ar
    35    19    30    1
    36    19    20   ar
    37    30    31   ar
    38    48    49    1
    39     5     4   ar
    40     5     1   ar
    41    15    13    1
    42    20    21    1
    43     4     3   ar
    44    32    31   ar
    45    32    41    1
    46    12     9    1
    47    31    36    1
    48     7     1    1
    49    41    43    1
    50     1     2   ar
    51    36    37    1
    52     3     2   ar
    53     3    13    1
    54     2     8    1
    55    13    14    1
    56     8     9    1
    57     9    10    1
    58     9    11    1
    59    37    38    1
    60    37    39    1
    61    37    40    1
