@<TRIPOS>MOLECULE
mol_data/opt/b3lyp/geoms/mol2/13lh12fe4ha6ld-.out
 52 55 0 0 0
SMALL
GASTEIGER

@<TRIPOS>ATOM
      1 C           1.2099   -0.2215   -0.4125 C.ar    1  LIG1        0.0463
      2 C           0.8475    1.0514   -0.0126 C.ar    1  LIG1        0.1586
      3 C          -0.5577    1.0777    0.2225 C.ar    1  LIG1        0.0956
      4 C          -1.0274   -0.2072   -0.0585 C.ar    1  LIG1        0.1104
      5 N           0.0664   -0.9847   -0.4188 N.ar    1  LIG1       -0.3536
      6 H          -0.0112   -1.9274   -0.7593 H       1  LIG1        0.1656
      7 H           2.1693   -0.6367   -0.6747 H       1  LIG1        0.0845
      8 O           1.6064    2.1733    0.1736 O.3     1  LIG1       -0.4918
      9 C           2.9865    2.0214   -0.1037 C.3     1  LIG1        0.0789
     10 H           3.4548    2.9893    0.0823 H       1  LIG1        0.0660
     11 H           3.4433    1.2655    0.5502 H       1  LIG1        0.0660
     12 H           3.1541    1.7310   -1.1506 H       1  LIG1        0.0660
     13 N          -1.2436    2.1732    0.7443 N.pl3   1  LIG1       -0.3534
     14 H          -0.7853    3.0495    0.5288 H       1  LIG1        0.1425
     15 H          -2.2318    2.1901    0.5205 H       1  LIG1        0.1425
     16 C          -2.3466   -0.7661   -0.0215 C.ar    1  LIG1        0.1961
     17 C          -3.6200   -0.2595    0.0243 C.ar    1  LIG1        0.1806
     18 C          -4.5366   -1.3664    0.0204 C.ar    1  LIG1        0.1125
     19 C          -3.7630   -2.5185   -0.0580 C.ar    1  LIG1        0.1565
     20 O          -2.4438   -2.1435   -0.0794 O.2     1  LIG1       -0.4482
     21 O          -3.9665    1.0601    0.0445 O.3     1  LIG1       -0.5023
     22 H          -4.9190    1.1127    0.2184 H       1  LIG1        0.2923
     23 C          -5.9308   -1.1744    0.1753 C.1     1  LIG1       -0.0622
     24 C          -7.0987   -0.8779    0.3087 C.1     1  LIG1       -0.1137
     25 H          -8.1363   -0.6768    0.4444 H       1  LIG1        0.1232
     26 C          -5.1065   -4.5602   -0.7182 C.ar    1  LIG1        0.0359
     27 C          -5.2421   -5.9570   -0.6618 C.ar    1  LIG1       -0.0325
     28 C          -4.0095   -3.9534   -0.0480 C.ar    1  LIG1        0.0393
     29 C          -4.3251   -6.7735    0.0073 C.ar    1  LIG1       -0.0110
     30 H          -6.0740   -6.4120   -1.1932 H       1  LIG1        0.0642
     31 C          -3.0837   -4.7915    0.6051 C.ar    1  LIG1       -0.0487
     32 C          -3.2222   -6.1692    0.6376 C.ar    1  LIG1       -0.0531
     33 H          -2.2438   -4.3266    1.1098 H       1  LIG1        0.0625
     34 N          -6.0482   -3.8179   -1.4109 N.pl3   1  LIG1       -0.3574
     35 H          -5.7768   -2.8875   -1.6938 H       1  LIG1        0.1423
     36 H          -6.5671   -4.3181   -2.1178 H       1  LIG1        0.1423
     37 H          -2.4951   -6.7750    1.1625 H       1  LIG1        0.0624
     38 C          -3.5446   -9.2164   -0.0815 C.ar    1  LIG1        0.2224
     39 C          -4.5687   -8.2360    0.0716 C.ar    1  LIG1        0.0449
     40 C          -5.8509   -8.7353    0.2729 C.ar    1  LIG1       -0.0301
     41 C          -6.0894  -10.1226    0.3131 C.ar    1  LIG1        0.0706
     42 C          -4.9960  -10.9777    0.1506 C.ar    1  LIG1        0.0488
     43 N          -3.7543  -10.5291   -0.0432 N.ar    1  LIG1       -0.2195
     44 H          -6.6754   -8.0465    0.4203 H       1  LIG1        0.0639
     45 H          -5.1288  -12.0561    0.1792 H       1  LIG1        0.0844
     46 O          -2.2917   -8.7761   -0.2933 O.3     1  LIG1       -0.4792
     47 C          -1.2648   -9.7597   -0.4813 C.3     1  LIG1        0.0804
     48 H          -0.3507   -9.1873   -0.6397 H       1  LIG1        0.0660
     49 H          -1.1695  -10.4002    0.3990 H       1  LIG1        0.0660
     50 H          -1.4794  -10.3874   -1.3497 H       1  LIG1        0.0660
     51 N          -8.4728  -11.0743    0.6871 N.1     1  LIG1       -0.1908
     52 C          -7.4036  -10.6457    0.5213 C.1     1  LIG1        0.1007
@<TRIPOS>BOND
     1    36    34    1
     2    35    34    1
     3    34    26    1
     4    50    47    1
     5    30    27    1
     6    12     9    1
     7     6     5    1
     8    26    27   ar
     9    26    28   ar
    10     7     1    1
    11    27    29   ar
    12    48    47    1
    13    47    46    1
    14    47    49    1
    15     5     1   ar
    16     5     4   ar
    17     1     2   ar
    18    46    38    1
    19     9    10    1
    20     9     8    1
    21     9    11    1
    22    38    43   ar
    23    38    39   ar
    24    20    19   ar
    25    20    16   ar
    26     4    16    1
    27     4     3   ar
    28    19    28    1
    29    19    18   ar
    30    28    31   ar
    31    43    42   ar
    32    16    17   ar
    33     2     8    1
    34     2     3   ar
    35    29    39    1
    36    29    32   ar
    37    18    17   ar
    38    18    23    1
    39    17    21    1
    40    21    22    1
    41    39    40   ar
    42    42    45    1
    43    42    41   ar
    44    23    24    3
    45     3    13    1
    46    40    41   ar
    47    40    44    1
    48    24    25    1
    49    41    52    1
    50    15    13    1
    51    52    51    3
    52    14    13    1
    53    31    32   ar
    54    31    33    1
    55    32    37    1
