@<TRIPOS>MOLECULE
mol_data/opt/b3lyp/geoms/mol2/13lh12al-4ff-13fe-.out
 50 53 0 0 0
SMALL
GASTEIGER

@<TRIPOS>ATOM
      1 C           1.2775   -0.1585    0.6248 C.ar    1  LIG1        0.0463
      2 C           0.8887    1.1132    0.2397 C.ar    1  LIG1        0.1586
      3 C          -0.4974    1.0867   -0.0770 C.ar    1  LIG1        0.0955
      4 C          -0.9300   -0.2215    0.1281 C.ar    1  LIG1        0.1068
      5 N           0.1672   -0.9661    0.5253 N.ar    1  LIG1       -0.3537
      6 H           0.1015   -1.9205    0.8364 H       1  LIG1        0.1656
      7 H           2.2343   -0.5463    0.9336 H       1  LIG1        0.0845
      8 O           1.6140    2.2657    0.1194 O.3     1  LIG1       -0.4918
      9 C           2.9832    2.1592    0.4673 C.3     1  LIG1        0.0789
     10 H           3.4230    3.1476    0.3250 H       1  LIG1        0.0660
     11 H           3.1044    1.8546    1.5160 H       1  LIG1        0.0660
     12 H           3.5026    1.4339   -0.1746 H       1  LIG1        0.0660
     13 N          -1.2681    2.1866   -0.4953 N.pl3   1  LIG1       -0.3534
     14 H          -0.6723    2.9836   -0.6924 H       1  LIG1        0.1425
     15 H          -1.8260    1.9752   -1.3175 H       1  LIG1        0.1425
     16 C          -2.2350   -0.7962   -0.0127 C.ar    1  LIG1        0.1573
     17 C          -3.4868   -0.2533   -0.1807 C.ar    1  LIG1        0.0282
     18 C          -4.3940   -1.3567   -0.2251 C.ar    1  LIG1        0.1664
     19 C          -3.6608   -2.5169   -0.0627 C.ar    1  LIG1        0.1807
     20 O          -2.3218   -2.1566    0.0471 O.2     1  LIG1       -0.4494
     21 H          -3.7149    0.8002   -0.2180 H       1  LIG1        0.0693
     22 O          -5.7294   -1.3279   -0.4502 O.3     1  LIG1       -0.4913
     23 C          -6.3298   -0.0435   -0.5011 C.3     1  LIG1        0.0790
     24 H          -7.3961   -0.2126   -0.6582 H       1  LIG1        0.0660
     25 H          -6.1852    0.5073    0.4371 H       1  LIG1        0.0660
     26 H          -5.9347    0.5560   -1.3321 H       1  LIG1        0.0660
     27 C          -5.1053   -4.5194    0.4553 C.ar    1  LIG1        0.1285
     28 C          -5.3065   -5.8950    0.4009 C.ar    1  LIG1       -0.0067
     29 C          -3.9346   -3.9423   -0.0830 C.ar    1  LIG1        0.0658
     30 C          -4.3637   -6.7839   -0.1516 C.ar    1  LIG1        0.0468
     31 H          -6.2173   -6.3079    0.8214 H       1  LIG1        0.0662
     32 C          -2.9836   -4.8287   -0.6213 C.ar    1  LIG1       -0.0052
     33 C          -3.1795   -6.2012   -0.6567 C.ar    1  LIG1        0.1270
     34 H          -2.0684   -4.4126   -1.0347 H       1  LIG1        0.0662
     35 O          -6.0112   -3.6939    1.0606 O.3     1  LIG1       -0.5060
     36 H          -6.7546   -4.2290    1.3672 H       1  LIG1        0.2922
     37 O          -2.2127   -7.0327   -1.2057 O.3     1  LIG1       -0.5061
     38 H          -1.4869   -6.4882   -1.5344 H       1  LIG1        0.2922
     39 C          -4.6309   -8.2157   -0.1744 C.ar    1  LIG1        0.0934
     40 C          -5.7249   -8.9519    0.2736 C.ar    1  LIG1        0.1575
     41 C          -5.4891  -10.3370    0.0133 C.ar    1  LIG1        0.0839
     42 C          -4.2383  -10.4134   -0.5961 C.ar    1  LIG1        0.0213
     43 N          -3.7464   -9.1565   -0.6990 N.ar    1  LIG1       -0.3565
     44 H          -2.8611   -8.8807   -1.0973 H       1  LIG1        0.1655
     45 H          -3.6932  -11.2746   -0.9496 H       1  LIG1        0.0820
     46 O          -6.8444   -8.4467    0.8658 O.3     1  LIG1       -0.5035
     47 H          -7.4271   -9.1964    1.0621 H       1  LIG1        0.2923
     48 C          -6.3998  -11.3690    0.3415 C.1     1  LIG1       -0.0645
     49 C          -7.2374  -12.1879    0.6570 C.1     1  LIG1       -0.1137
     50 H          -7.9496  -12.9349    0.9198 H       1  LIG1        0.1232
@<TRIPOS>BOND
     1    38    37    1
     2    26    23    1
     3    15    13    1
     4    37    33    1
     5    44    43    1
     6    34    32    1
     7    45    42    1
     8    43    42   ar
     9    43    39   ar
    10    14    13    1
    11    24    23    1
    12    33    32   ar
    13    33    30   ar
    14    32    29   ar
    15    42    41   ar
    16    23    22    1
    17    23    25    1
    18    13     3    1
    19    22    18    1
    20    18    17   ar
    21    18    19   ar
    22    21    17    1
    23    17    16   ar
    24    12     9    1
    25    39    30    1
    26    39    40   ar
    27    30    28   ar
    28    29    19    1
    29    29    27   ar
    30     3     4   ar
    31     3     2   ar
    32    19    20   ar
    33    16    20   ar
    34    16     4    1
    35    41    40   ar
    36    41    48    1
    37     8     2    1
    38     8     9    1
    39     4     5   ar
    40     2     1   ar
    41    40    46    1
    42    10     9    1
    43    48    49    3
    44    28    27   ar
    45    28    31    1
    46    27    35    1
    47     9    11    1
    48     5     1   ar
    49     5     6    1
    50     1     7    1
    51    49    50    1
    52    46    47    1
    53    35    36    1
