@<TRIPOS>MOLECULE
mol_data/opt/b3lyp/geoms/mol2/13li13li13li-13li-.out
 62 65 0 0 0
SMALL
GASTEIGER

@<TRIPOS>ATOM
      1 C           0.5351    1.3890   -1.2314 C.ar    1  LIG1        0.0447
      2 C           1.1884    0.3776   -0.5493 C.ar    1  LIG1        0.1408
      3 C           0.2394   -0.6106   -0.1593 C.ar    1  LIG1        0.0180
      4 C          -0.9964   -0.1647   -0.6295 C.ar    1  LIG1        0.0730
      5 N          -0.7991    1.0430   -1.2625 N.ar    1  LIG1       -0.3561
      6 H          -1.5428    1.5310   -1.7382 H       1  LIG1        0.1655
      7 H           0.8944    2.3006   -1.6794 H       1  LIG1        0.0844
      8 O           2.5134    0.2617   -0.2367 O.3     1  LIG1       -0.4933
      9 C           3.3319    1.3352   -0.6616 C.3     1  LIG1        0.0789
     10 H           4.3477    1.1065   -0.3345 H       1  LIG1        0.0660
     11 H           3.3184    1.4406   -1.7556 H       1  LIG1        0.0660
     12 H           3.0103    2.2857   -0.2126 H       1  LIG1        0.0660
     13 C           0.5565   -1.8538    0.6181 C.3     1  LIG1       -0.0342
     14 H          -0.1494   -2.0134    1.4423 H       1  LIG1        0.0279
     15 H           1.5569   -1.7762    1.0513 H       1  LIG1        0.0279
     16 H           0.5483   -2.7586   -0.0051 H       1  LIG1        0.0279
     17 C          -2.3243   -0.7250   -0.5561 C.ar    1  LIG1        0.1062
     18 C          -3.5529   -0.1447   -0.8704 C.ar    1  LIG1        0.1502
     19 C          -4.5904   -1.0954   -0.6904 C.ar    1  LIG1        0.0187
     20 C          -3.9651   -2.2673   -0.2546 C.ar    1  LIG1        0.0735
     21 N          -2.6083   -2.0176   -0.1767 N.ar    1  LIG1       -0.3486
     22 H          -1.9391   -2.7412    0.0420 H       1  LIG1        0.1661
     23 O          -3.7179    1.1588   -1.3064 O.3     1  LIG1       -0.4927
     24 C          -3.9678    2.0899   -0.2460 C.3     1  LIG1        0.0789
     25 H          -4.1190    3.0660   -0.7138 H       1  LIG1        0.0660
     26 H          -4.8667    1.8152    0.3180 H       1  LIG1        0.0660
     27 H          -3.1168    2.1406    0.4437 H       1  LIG1        0.0660
     28 C          -6.0485   -0.8558   -0.9474 C.3     1  LIG1       -0.0341
     29 H          -6.6725   -1.1039   -0.0799 H       1  LIG1        0.0279
     30 H          -6.4237   -1.4346   -1.8034 H       1  LIG1        0.0279
     31 H          -6.2177    0.1960   -1.1919 H       1  LIG1        0.0279
     32 C          -4.4762   -3.5709    0.0807 C.ar    1  LIG1        0.1062
     33 C          -3.8284   -4.6714    0.6339 C.ar    1  LIG1        0.1502
     34 C          -4.7281   -5.7694    0.7178 C.ar    1  LIG1        0.0187
     35 C          -5.9399   -5.3163    0.2044 C.ar    1  LIG1        0.0735
     36 N          -5.7786   -3.9783   -0.1451 N.ar    1  LIG1       -0.3486
     37 H          -6.3976   -3.5101   -0.7882 H       1  LIG1        0.1661
     38 O          -2.5026   -4.6733    1.0262 O.3     1  LIG1       -0.4927
     39 C          -2.3131   -4.4345    2.4263 C.3     1  LIG1        0.0789
     40 H          -1.2360   -4.4665    2.6066 H       1  LIG1        0.0660
     41 H          -2.7054   -3.4519    2.7157 H       1  LIG1        0.0660
     42 H          -2.8048   -5.2054    3.0307 H       1  LIG1        0.0660
     43 C          -4.3996   -7.1239    1.2674 C.3     1  LIG1       -0.0341
     44 H          -3.3481   -7.1651    1.5630 H       1  LIG1        0.0279
     45 H          -4.5719   -7.9007    0.5184 H       1  LIG1        0.0279
     46 H          -5.0104   -7.3729    2.1443 H       1  LIG1        0.0279
     47 C          -7.2437   -5.9314    0.0577 C.ar    1  LIG1        0.1057
     48 C          -7.6723   -7.2125   -0.2766 C.ar    1  LIG1        0.1495
     49 C          -9.1027   -7.2172   -0.3649 C.ar    1  LIG1        0.0092
     50 C          -9.5079   -5.9325   -0.0720 C.ar    1  LIG1        0.0087
     51 N          -8.3945   -5.1580    0.1510 N.ar    1  LIG1       -0.3563
     52 H          -8.4061   -4.2439    0.5741 H       1  LIG1        0.1655
     53 H         -10.5018   -5.5116   -0.0267 H       1  LIG1        0.0811
     54 O          -6.8278   -8.2483   -0.5977 O.3     1  LIG1       -0.4927
     55 C          -6.9519   -9.4109    0.2202 C.3     1  LIG1        0.0789
     56 H          -6.1688  -10.1007   -0.1025 H       1  LIG1        0.0660
     57 H          -6.8089   -9.1689    1.2808 H       1  LIG1        0.0660
     58 H          -7.9250   -9.8991    0.0962 H       1  LIG1        0.0660
     59 C          -9.9869   -8.3594   -0.7712 C.3     1  LIG1       -0.0348
     60 H         -10.1117   -9.1012    0.0276 H       1  LIG1        0.0279
     61 H          -9.5784   -8.8858   -1.6408 H       1  LIG1        0.0279
     62 H         -10.9853   -8.0011   -1.0391 H       1  LIG1        0.0279
@<TRIPOS>BOND
     1    30    28    1
     2    11     9    1
     3     6     5    1
     4     7     1    1
     5    61    59    1
     6    23    18    1
     7    23    24    1
     8     5     1   ar
     9     5     4   ar
    10     1     2   ar
    11    31    28    1
    12    62    59    1
    13    28    19    1
    14    28    29    1
    15    18    19   ar
    16    18    17   ar
    17    37    36    1
    18    59    49    1
    19    59    60    1
    20    25    24    1
    21    19    20   ar
    22     9    10    1
    23     9     8    1
    24     9    12    1
    25     4    17    1
    26     4     3   ar
    27    54    48    1
    28    54    55    1
    29    17    21   ar
    30     2     8    1
    31     2     3   ar
    32    49    48   ar
    33    49    50   ar
    34    48    47   ar
    35    20    21   ar
    36    20    32    1
    37    24    26    1
    38    24    27    1
    39    21    22    1
    40     3    13    1
    41    36    32   ar
    42    36    35   ar
    43    56    55    1
    44    50    53    1
    45    50    51   ar
    46    16    13    1
    47    47    51   ar
    48    47    35    1
    49    32    33   ar
    50    58    55    1
    51    51    52    1
    52    35    34   ar
    53    55    57    1
    54    45    43    1
    55    13    15    1
    56    13    14    1
    57    33    34   ar
    58    33    38    1
    59    34    43    1
    60    38    39    1
    61    43    44    1
    62    43    46    1
    63    39    40    1
    64    39    41    1
    65    39    42    1
