@<TRIPOS>MOLECULE
mol_data/opt/b3lyp/geoms/mol2/13li13li-13li.out
 47 49 0 0 0
SMALL
GASTEIGER

@<TRIPOS>ATOM
      1 C           1.2459   -0.7130   -0.5413 C.ar    1  LIG1        0.0447
      2 C           0.9327    0.6040   -0.2546 C.ar    1  LIG1        0.1408
      3 C          -0.4771    0.7224   -0.0875 C.ar    1  LIG1        0.0180
      4 C          -0.9974   -0.5568   -0.2865 C.ar    1  LIG1        0.0730
      5 N           0.0544   -1.4068   -0.5488 N.ar    1  LIG1       -0.3561
      6 H          -0.0821   -2.3782   -0.7838 H       1  LIG1        0.1655
      7 H           2.1872   -1.2021   -0.7301 H       1  LIG1        0.0844
      8 O           1.7640    1.6799   -0.1180 O.3     1  LIG1       -0.4933
      9 C           3.1417    1.4048   -0.2882 C.3     1  LIG1        0.0789
     10 H           3.6722    2.3481   -0.1466 H       1  LIG1        0.0660
     11 H           3.4982    0.6726    0.4501 H       1  LIG1        0.0660
     12 H           3.3510    1.0186   -1.2958 H       1  LIG1        0.0660
     13 C          -1.2033    1.9900    0.2537 C.3     1  LIG1       -0.0342
     14 H          -1.9333    1.8404    1.0586 H       1  LIG1        0.0279
     15 H          -1.7394    2.4172   -0.6050 H       1  LIG1        0.0279
     16 H          -0.4907    2.7469    0.5911 H       1  LIG1        0.0279
     17 C          -2.3452   -1.0732   -0.2609 C.ar    1  LIG1        0.1062
     18 C          -2.7925   -2.3935   -0.2763 C.ar    1  LIG1        0.1502
     19 C          -4.2115   -2.4169   -0.2972 C.ar    1  LIG1        0.0187
     20 C          -4.6163   -1.0797   -0.2884 C.ar    1  LIG1        0.0735
     21 N          -3.4807   -0.2950   -0.2617 N.ar    1  LIG1       -0.3486
     22 H          -3.5228    0.7117   -0.3303 H       1  LIG1        0.1661
     23 O          -1.9652   -3.5033   -0.2924 O.3     1  LIG1       -0.4927
     24 C          -1.6836   -4.0268    1.0115 C.3     1  LIG1        0.0789
     25 H          -1.0551   -4.9092    0.8671 H       1  LIG1        0.0660
     26 H          -1.1498   -3.2914    1.6254 H       1  LIG1        0.0660
     27 H          -2.6051   -4.3191    1.5282 H       1  LIG1        0.0660
     28 C          -5.0608   -3.6527   -0.3448 C.3     1  LIG1       -0.0341
     29 H          -5.7410   -3.7331    0.5133 H       1  LIG1        0.0279
     30 H          -4.4247   -4.5417   -0.3460 H       1  LIG1        0.0279
     31 H          -5.6676   -3.7063   -1.2594 H       1  LIG1        0.0279
     32 C          -5.9183   -0.4579   -0.3062 C.ar    1  LIG1        0.1057
     33 C          -6.2699    0.8852   -0.1967 C.ar    1  LIG1        0.1495
     34 C          -7.6842    1.0166   -0.3187 C.ar    1  LIG1        0.0092
     35 C          -8.1644   -0.2659   -0.4971 C.ar    1  LIG1        0.0087
     36 N          -7.1044   -1.1425   -0.4847 N.ar    1  LIG1       -0.3563
     37 H          -7.1701   -2.1338   -0.6406 H       1  LIG1        0.1655
     38 H          -9.1763   -0.6161   -0.6370 H       1  LIG1        0.0811
     39 O          -5.3519    1.9103   -0.0526 O.3     1  LIG1       -0.4927
     40 C          -5.3094    2.4774    1.2611 C.3     1  LIG1        0.0789
     41 H          -4.5339    3.2467    1.2450 H       1  LIG1        0.0660
     42 H          -6.2668    2.9388    1.5288 H       1  LIG1        0.0660
     43 H          -5.0590    1.7173    2.0114 H       1  LIG1        0.0660
     44 C          -8.4788    2.2879   -0.2823 C.3     1  LIG1       -0.0348
     45 H          -9.4779    2.1391   -0.7023 H       1  LIG1        0.0279
     46 H          -7.9851    3.0753   -0.8617 H       1  LIG1        0.0279
     47 H          -8.6093    2.6718    0.7377 H       1  LIG1        0.0279
@<TRIPOS>BOND
     1    12     9    1
     2    31    28    1
     3    46    44    1
     4     6     5    1
     5     7     1    1
     6    45    44    1
     7    37    36    1
     8    38    35    1
     9    15    13    1
    10     5     1   ar
    11     5     4   ar
    12     1     2   ar
    13    35    36   ar
    14    35    34   ar
    15    36    32   ar
    16    30    28    1
    17    28    19    1
    18    28    29    1
    19    22    21    1
    20    34    44    1
    21    34    33   ar
    22    32    20    1
    23    32    33   ar
    24    19    20   ar
    25    19    18   ar
    26    23    18    1
    27    23    24    1
    28    20    21   ar
    29     9    10    1
    30     9     8    1
    31     9    11    1
    32     4    17    1
    33     4     3   ar
    34    44    47    1
    35    18    17   ar
    36    21    17   ar
    37     2     8    1
    38     2     3   ar
    39    33    39    1
    40     3    13    1
    41    39    40    1
    42    13    16    1
    43    13    14    1
    44    25    24    1
    45    24    27    1
    46    24    26    1
    47    41    40    1
    48    40    42    1
    49    40    43    1
