@<TRIPOS>MOLECULE
mol_data/opt/b3lyp/geoms/mol2/13li13li13li13li.out
 62 65 0 0 0
SMALL
GASTEIGER

@<TRIPOS>ATOM
      1 C          -0.9239    1.3072   -3.3617 C.ar    1  LIG1        0.0447
      2 C           0.0232    1.8133   -2.4947 C.ar    1  LIG1        0.1408
      3 C          -0.1729    1.2443   -1.1998 C.ar    1  LIG1        0.0180
      4 C          -1.2670    0.3955   -1.3100 C.ar    1  LIG1        0.0730
      5 N          -1.6866    0.4107   -2.6322 N.ar    1  LIG1       -0.3561
      6 H          -2.6035    0.1013   -2.9128 H       1  LIG1        0.1655
      7 H          -1.1039    1.4788   -4.4103 H       1  LIG1        0.0844
      8 O           1.0461    2.6822   -2.7436 O.3     1  LIG1       -0.4933
      9 C           1.1500    3.1278   -4.0830 C.3     1  LIG1        0.0789
     10 H           2.0094    3.7991   -4.1266 H       1  LIG1        0.0660
     11 H           1.3090    2.2872   -4.7731 H       1  LIG1        0.0660
     12 H           0.2480    3.6732   -4.3945 H       1  LIG1        0.0660
     13 C           0.6996    1.4954   -0.0094 C.3     1  LIG1       -0.0342
     14 H           0.8475    0.5797    0.5723 H       1  LIG1        0.0279
     15 H           0.2711    2.2464    0.6640 H       1  LIG1        0.0279
     16 H           1.6802    1.8579   -0.3297 H       1  LIG1        0.0279
     17 C          -1.9371   -0.4669   -0.3571 C.ar    1  LIG1        0.1062
     18 C          -2.2897   -0.3150    0.9821 C.ar    1  LIG1        0.1502
     19 C          -3.0593   -1.4425    1.3958 C.ar    1  LIG1        0.0187
     20 C          -3.1488   -2.2842    0.2860 C.ar    1  LIG1        0.0735
     21 N          -2.4931   -1.6689   -0.7604 N.ar    1  LIG1       -0.3486
     22 H          -2.2983   -2.1417   -1.6313 H       1  LIG1        0.1661
     23 O          -2.0475    0.8142    1.7253 O.3     1  LIG1       -0.4927
     24 C          -1.2122    0.6246    2.8664 C.3     1  LIG1        0.0789
     25 H          -1.0669    1.6121    3.3101 H       1  LIG1        0.0660
     26 H          -1.6748   -0.0341    3.6109 H       1  LIG1        0.0660
     27 H          -0.2384    0.2075    2.5837 H       1  LIG1        0.0660
     28 C          -3.7318   -1.6076    2.7272 C.3     1  LIG1       -0.0341
     29 H          -3.1179   -2.1499    3.4614 H       1  LIG1        0.0279
     30 H          -4.6811   -2.1445    2.6282 H       1  LIG1        0.0279
     31 H          -3.9573   -0.6287    3.1611 H       1  LIG1        0.0279
     32 C          -3.7522   -3.5783    0.0907 C.ar    1  LIG1        0.1062
     33 C          -3.9832   -4.2882   -1.0834 C.ar    1  LIG1        0.1502
     34 C          -4.5329   -5.5635   -0.7769 C.ar    1  LIG1        0.0187
     35 C          -4.6259   -5.6206    0.6100 C.ar    1  LIG1        0.0735
     36 N          -4.1810   -4.4022    1.1161 N.ar    1  LIG1       -0.3486
     37 H          -3.8721   -4.2957    2.0697 H       1  LIG1        0.1661
     38 O          -3.7021   -3.8130   -2.3510 O.3     1  LIG1       -0.4927
     39 C          -4.8049   -3.1468   -2.9749 C.3     1  LIG1        0.0789
     40 H          -5.6699   -3.8134   -3.0689 H       1  LIG1        0.0660
     41 H          -5.1036   -2.2577   -2.4055 H       1  LIG1        0.0660
     42 H          -4.4698   -2.8504   -3.9722 H       1  LIG1        0.0660
     43 C          -4.9327   -6.6043   -1.7774 C.3     1  LIG1       -0.0341
     44 H          -5.9736   -6.9212   -1.6419 H       1  LIG1        0.0279
     45 H          -4.3070   -7.4969   -1.6896 H       1  LIG1        0.0279
     46 H          -4.8229   -6.2156   -2.7932 H       1  LIG1        0.0279
     47 C          -5.1293   -6.6274    1.5219 C.ar    1  LIG1        0.1057
     48 C          -5.0602   -8.0168    1.5446 C.ar    1  LIG1        0.1495
     49 C          -5.6600   -8.4933    2.7557 C.ar    1  LIG1        0.0092
     50 C          -6.0862   -7.3727    3.4368 C.ar    1  LIG1        0.0087
     51 N          -5.7415   -6.2566    2.7127 N.ar    1  LIG1       -0.3563
     52 H          -6.0973   -5.3292    2.8810 H       1  LIG1        0.1655
     53 H          -6.5896   -7.2896    4.3890 H       1  LIG1        0.0811
     54 O          -4.3895   -8.7643    0.6072 O.3     1  LIG1       -0.4927
     55 C          -5.1731   -9.7456   -0.0695 C.3     1  LIG1        0.0789
     56 H          -4.5265  -10.1844   -0.8327 H       1  LIG1        0.0660
     57 H          -5.5109  -10.5400    0.6053 H       1  LIG1        0.0660
     58 H          -6.0489   -9.2935   -0.5515 H       1  LIG1        0.0660
     59 C          -5.7430   -9.9124    3.2362 C.3     1  LIG1       -0.0348
     60 H          -5.9802   -9.9476    4.3036 H       1  LIG1        0.0279
     61 H          -4.7918  -10.4360    3.0902 H       1  LIG1        0.0279
     62 H          -6.5149  -10.4904    2.7127 H       1  LIG1        0.0279
@<TRIPOS>BOND
     1    11     9    1
     2     7     1    1
     3    12     9    1
     4    10     9    1
     5     9     8    1
     6    42    39    1
     7     1     5   ar
     8     1     2   ar
     9    40    39    1
    10    39    41    1
    11    39    38    1
    12     6     5    1
    13    46    43    1
    14     8     2    1
    15     5     4   ar
    16     2     3   ar
    17    38    33    1
    18    43    45    1
    19    43    44    1
    20    43    34    1
    21    22    21    1
    22     4     3   ar
    23     4    17    1
    24     3    13    1
    25    33    34   ar
    26    33    32   ar
    27    56    55    1
    28    34    35   ar
    29    21    17   ar
    30    21    20   ar
    31    58    55    1
    32    17    18   ar
    33    16    13    1
    34    55    57    1
    35    55    54    1
    36    13    14    1
    37    13    15    1
    38    32    20    1
    39    32    36   ar
    40    20    19   ar
    41    54    48    1
    42    35    36   ar
    43    35    47    1
    44    18    19   ar
    45    18    23    1
    46    36    37    1
    47    19    28    1
    48    47    48   ar
    49    47    51   ar
    50    48    49   ar
    51    23    24    1
    52    27    24    1
    53    30    28    1
    54    62    59    1
    55    51    52    1
    56    51    50   ar
    57    28    31    1
    58    28    29    1
    59    49    59    1
    60    49    50   ar
    61    24    25    1
    62    24    26    1
    63    61    59    1
    64    59    60    1
    65    50    53    1
