@<TRIPOS>MOLECULE
mol_data/opt/b3lyp/geoms/mol2/13li6dl-12da-4ae.out
 51 54 0 0 0
SMALL
GASTEIGER

@<TRIPOS>ATOM
      1 C           1.4321   -0.2387   -0.1799 C.ar    1  LIG1        0.0446
      2 C           0.9764    1.0576    0.0073 C.ar    1  LIG1        0.1408
      3 C          -0.4378    1.0353    0.1011 C.ar    1  LIG1        0.0165
      4 C          -0.8240   -0.3103   -0.0374 C.ar    1  LIG1        0.0558
      5 N           0.3320   -1.0505   -0.2030 N.ar    1  LIG1       -0.3573
      6 H           0.3714   -2.0550   -0.2821 H       1  LIG1        0.1655
      7 H           2.4264   -0.6382   -0.2957 H       1  LIG1        0.0844
      8 O           1.6856    2.2155    0.1098 O.3     1  LIG1       -0.4933
      9 C           3.0972    2.0748    0.0807 C.3     1  LIG1        0.0789
     10 H           3.5131    3.0765    0.1969 H       1  LIG1        0.0660
     11 H           3.4511    1.4354    0.9006 H       1  LIG1        0.0660
     12 H           3.4362    1.6506   -0.8742 H       1  LIG1        0.0660
     13 C          -1.2596    2.2617    0.3699 C.3     1  LIG1       -0.0342
     14 H          -2.0692    2.0682    1.0806 H       1  LIG1        0.0279
     15 H          -1.7071    2.6804   -0.5415 H       1  LIG1        0.0279
     16 H          -0.6190    3.0399    0.7919 H       1  LIG1        0.0279
     17 C          -2.4390   -2.2718    0.2602 C.ar    1  LIG1        0.1501
     18 C          -2.1521   -0.9045   -0.0199 C.ar    1  LIG1        0.0380
     19 C          -3.2826   -0.1128   -0.3098 C.ar    1  LIG1       -0.0059
     20 C          -4.5642   -0.6468   -0.2777 C.ar    1  LIG1        0.1497
     21 C          -4.7336   -2.0171    0.0669 C.ar    1  LIG1        0.1502
     22 N          -3.6725   -2.7883    0.3004 N.ar    1  LIG1       -0.2289
     23 H          -3.1433    0.9158   -0.6053 H       1  LIG1        0.0662
     24 N          -0.5368   -3.9893    0.7203 N.1     1  LIG1       -0.1893
     25 C          -1.3993   -3.2297    0.5325 C.1     1  LIG1        0.1198
     26 O          -5.6830    0.0302   -0.5910 O.3     1  LIG1       -0.4928
     27 C          -5.6337    1.4431   -0.7835 C.3     1  LIG1        0.0789
     28 H          -6.6732    1.7581   -0.8631 H       1  LIG1        0.0660
     29 H          -5.1666    1.9394    0.0738 H       1  LIG1        0.0660
     30 H          -5.0906    1.6964   -1.7011 H       1  LIG1        0.0660
     31 C          -6.0415   -2.6632    0.1551 C.ar    1  LIG1        0.1747
     32 C          -7.3535   -2.2622    0.3835 C.ar    1  LIG1        0.0996
     33 C          -8.1486   -3.4537    0.4011 C.ar    1  LIG1        0.0023
     34 C          -7.2949   -4.5005    0.1851 C.ar    1  LIG1        0.1371
     35 O          -6.0242   -4.0171    0.0385 O.2     1  LIG1       -0.4518
     36 N          -8.3962    0.0481    0.8831 N.1     1  LIG1       -0.1907
     37 C          -7.8838   -0.9695    0.6440 C.1     1  LIG1        0.1030
     38 H          -9.2139   -3.4953    0.5679 H       1  LIG1        0.0668
     39 C          -8.7583   -6.5087    0.1543 C.ar    1  LIG1       -0.0510
     40 C          -8.9240   -7.8875    0.0670 C.ar    1  LIG1       -0.0599
     41 C          -7.4720   -5.9443    0.0883 C.ar    1  LIG1        0.0185
     42 C          -7.8218   -8.7251   -0.0894 C.ar    1  LIG1       -0.0463
     43 H          -9.9213   -8.3133    0.1191 H       1  LIG1        0.0618
     44 C          -6.3617   -6.7861   -0.0683 C.ar    1  LIG1       -0.0357
     45 C          -6.5274   -8.1773   -0.1589 C.ar    1  LIG1        0.0254
     46 H          -5.3658   -6.3620   -0.1162 H       1  LIG1        0.0637
     47 H          -7.9490   -9.7999   -0.1588 H       1  LIG1        0.0630
     48 H          -9.6270   -5.8685    0.2706 H       1  LIG1        0.0625
     49 C          -5.3888   -9.0279   -0.3177 C.1     1  LIG1       -0.0696
     50 C          -4.4280   -9.7506   -0.4521 C.1     1  LIG1       -0.1139
     51 H          -3.5765  -10.3805   -0.5680 H       1  LIG1        0.1232
@<TRIPOS>BOND
     1    30    27    1
     2    12     9    1
     3    28    27    1
     4    27    26    1
     5    27    29    1
     6    23    19    1
     7    26    20    1
     8    51    50    1
     9    15    13    1
    10    50    49    3
    11    49    45    1
    12    19    20   ar
    13    19    18   ar
    14     7     1    1
    15     6     5    1
    16    20    21   ar
    17     5     1   ar
    18     5     4   ar
    19     1     2   ar
    20    45    42   ar
    21    45    44   ar
    22    47    42    1
    23    46    44    1
    24    42    40   ar
    25    44    41   ar
    26     4    18    1
    27     4     3   ar
    28    18    17   ar
    29     2     3   ar
    30     2     8    1
    31    35    31   ar
    32    35    34   ar
    33    21    31    1
    34    21    22   ar
    35    40    43    1
    36    40    39   ar
    37     9     8    1
    38     9    10    1
    39     9    11    1
    40    41    39   ar
    41    41    34    1
    42     3    13    1
    43    39    48    1
    44    31    32   ar
    45    34    33   ar
    46    17    22   ar
    47    17    25    1
    48    13    16    1
    49    13    14    1
    50    32    33   ar
    51    32    37    1
    52    33    38    1
    53    25    24    3
    54    37    36    3
