@<TRIPOS>MOLECULE
mol_data/opt/b3lyp/geoms/mol2/13li13li13li-13li.out
 62 65 0 0 0
SMALL
GASTEIGER

@<TRIPOS>ATOM
      1 C           0.7017    1.4391   -1.1632 C.ar    1  LIG1        0.0447
      2 C           1.3513    0.4460   -0.4515 C.ar    1  LIG1        0.1408
      3 C           0.4068   -0.5513   -0.0740 C.ar    1  LIG1        0.0180
      4 C          -0.8226   -0.1302   -0.5825 C.ar    1  LIG1        0.0730
      5 N          -0.6259    1.0723   -1.2256 N.ar    1  LIG1       -0.3561
      6 H          -1.3645    1.5445   -1.7247 H       1  LIG1        0.1655
      7 H           1.0590    2.3509   -1.6124 H       1  LIG1        0.0844
      8 O           2.6695    0.3528   -0.1036 O.3     1  LIG1       -0.4933
      9 C           3.4844    1.4302   -0.5253 C.3     1  LIG1        0.0789
     10 H           4.4958    1.2175   -0.1743 H       1  LIG1        0.0660
     11 H           3.4923    1.5214   -1.6206 H       1  LIG1        0.0660
     12 H           3.1433    2.3828   -0.0956 H       1  LIG1        0.0660
     13 C           0.7216   -1.7787    0.7289 C.3     1  LIG1       -0.0342
     14 H          -0.0078   -1.9406    1.5318 H       1  LIG1        0.0279
     15 H           1.7061   -1.6772    1.1925 H       1  LIG1        0.0279
     16 H           0.7496   -2.6916    0.1179 H       1  LIG1        0.0279
     17 C          -2.1433   -0.7105   -0.5390 C.ar    1  LIG1        0.1062
     18 C          -3.3713   -0.1553   -0.8970 C.ar    1  LIG1        0.1502
     19 C          -4.3980   -1.1217   -0.7402 C.ar    1  LIG1        0.0187
     20 C          -3.7671   -2.2779   -0.2724 C.ar    1  LIG1        0.0735
     21 N          -2.4174   -2.0034   -0.1525 N.ar    1  LIG1       -0.3486
     22 H          -1.7413   -2.7186    0.0725 H       1  LIG1        0.1661
     23 O          -3.5429    1.1401   -1.3543 O.3     1  LIG1       -0.4927
     24 C          -3.8614    2.0754   -0.3167 C.3     1  LIG1        0.0789
     25 H          -4.0004    3.0459   -0.7997 H       1  LIG1        0.0660
     26 H          -4.7856    1.7927    0.2008 H       1  LIG1        0.0660
     27 H          -3.0490    2.1424    0.4169 H       1  LIG1        0.0660
     28 C          -5.8502   -0.9077   -1.0489 C.3     1  LIG1       -0.0341
     29 H          -6.4938   -1.0578   -0.1724 H       1  LIG1        0.0279
     30 H          -6.2109   -1.5761   -1.8415 H       1  LIG1        0.0279
     31 H          -6.0069    0.1136   -1.4060 H       1  LIG1        0.0279
     32 C          -4.2653   -3.5875    0.0622 C.ar    1  LIG1        0.1062
     33 C          -3.6019   -4.6776    0.6275 C.ar    1  LIG1        0.1502
     34 C          -4.4888   -5.7813    0.7192 C.ar    1  LIG1        0.0187
     35 C          -5.7097   -5.3354    0.2068 C.ar    1  LIG1        0.0735
     36 N          -5.5519   -4.0183   -0.1753 N.ar    1  LIG1       -0.3486
     37 H          -6.2878   -3.5054   -0.6385 H       1  LIG1        0.1661
     38 O          -2.2730   -4.6716    1.0125 O.3     1  LIG1       -0.4927
     39 C          -2.0796   -4.4000    2.4065 C.3     1  LIG1        0.0789
     40 H          -1.0031   -4.4423    2.5878 H       1  LIG1        0.0660
     41 H          -2.4588   -3.4055    2.6713 H       1  LIG1        0.0660
     42 H          -2.5826   -5.1482    3.0300 H       1  LIG1        0.0660
     43 C          -4.1340   -7.1429    1.2400 C.3     1  LIG1       -0.0341
     44 H          -3.0851   -7.1631    1.5468 H       1  LIG1        0.0279
     45 H          -4.2459   -7.9224    0.4738 H       1  LIG1        0.0279
     46 H          -4.7392   -7.4369    2.1076 H       1  LIG1        0.0279
     47 C          -6.9870   -5.9829    0.0325 C.ar    1  LIG1        0.1057
     48 C          -8.2055   -5.4566   -0.3900 C.ar    1  LIG1        0.1495
     49 C          -9.1771   -6.4981   -0.4486 C.ar    1  LIG1        0.0092
     50 C          -8.5190   -7.6454   -0.0513 C.ar    1  LIG1        0.0087
     51 N          -7.2119   -7.3298    0.2386 N.ar    1  LIG1       -0.3563
     52 H          -6.5016   -7.9899    0.5051 H       1  LIG1        0.1655
     53 H          -8.8817   -8.6585    0.0399 H       1  LIG1        0.0811
     54 O          -8.3885   -4.1313   -0.7450 O.3     1  LIG1       -0.4927
     55 C          -9.1254   -3.3656    0.2139 C.3     1  LIG1        0.0789
     56 H          -9.1788   -2.3457   -0.1743 H       1  LIG1        0.0660
     57 H         -10.1423   -3.7540    0.3400 H       1  LIG1        0.0660
     58 H          -8.6221   -3.3633    1.1887 H       1  LIG1        0.0660
     59 C         -10.6095   -6.3733   -0.8751 C.3     1  LIG1       -0.0348
     60 H         -11.0337   -7.3520   -1.1178 H       1  LIG1        0.0279
     61 H         -10.7001   -5.7389   -1.7631 H       1  LIG1        0.0279
     62 H         -11.2420   -5.9296   -0.0956 H       1  LIG1        0.0279
@<TRIPOS>BOND
     1    30    28    1
     2    61    59    1
     3     6     5    1
     4    11     9    1
     5     7     1    1
     6    31    28    1
     7    23    18    1
     8    23    24    1
     9     5     1   ar
    10     5     4   ar
    11     1     2   ar
    12    60    59    1
    13    28    19    1
    14    28    29    1
    15    18    19   ar
    16    18    17   ar
    17    59    49    1
    18    59    62    1
    19    25    24    1
    20    54    48    1
    21    54    55    1
    22    19    20   ar
    23    37    36    1
    24     4    17    1
    25     4     3   ar
    26    17    21   ar
    27     9    10    1
    28     9     8    1
    29     9    12    1
    30     2     8    1
    31     2     3   ar
    32    49    48   ar
    33    49    50   ar
    34    48    47   ar
    35    24    26    1
    36    24    27    1
    37    20    21   ar
    38    20    32    1
    39    36    32   ar
    40    36    35   ar
    41    56    55    1
    42    21    22    1
    43     3    13    1
    44    50    53    1
    45    50    51   ar
    46    47    35    1
    47    47    51   ar
    48    32    33   ar
    49    16    13    1
    50    35    34   ar
    51    55    57    1
    52    55    58    1
    53    51    52    1
    54    45    43    1
    55    33    34   ar
    56    33    38    1
    57    34    43    1
    58    13    15    1
    59    13    14    1
    60    38    39    1
    61    43    44    1
    62    43    46    1
    63    39    40    1
    64    39    41    1
    65    39    42    1
