@<TRIPOS>MOLECULE
mol_data/opt/b3lyp/geoms/mol2/13li13li-13li13li-.out
 62 65 0 0 0
SMALL
GASTEIGER

@<TRIPOS>ATOM
      1 C           1.2589   -0.7770   -0.5041 C.ar    1  LIG1        0.0447
      2 C           0.9531    0.5594   -0.3163 C.ar    1  LIG1        0.1408
      3 C          -0.4533    0.6954   -0.1362 C.ar    1  LIG1        0.0180
      4 C          -0.9799   -0.5939   -0.2257 C.ar    1  LIG1        0.0730
      5 N           0.0660   -1.4652   -0.4379 N.ar    1  LIG1       -0.3561
      6 H          -0.0765   -2.4517   -0.5930 H       1  LIG1        0.1655
      7 H           2.1959   -1.2826   -0.6697 H       1  LIG1        0.0844
      8 O           1.7885    1.6402   -0.2778 O.3     1  LIG1       -0.4933
      9 C           3.1630    1.3493   -0.4472 C.3     1  LIG1        0.0789
     10 H           3.6965    2.2996   -0.3891 H       1  LIG1        0.0660
     11 H           3.5305    0.6772    0.3413 H       1  LIG1        0.0660
     12 H           3.3563    0.8839   -1.4240 H       1  LIG1        0.0660
     13 C          -1.1706    1.9882    0.1176 C.3     1  LIG1       -0.0342
     14 H          -1.8868    1.9035    0.9439 H       1  LIG1        0.0279
     15 H          -1.7210    2.3496   -0.7620 H       1  LIG1        0.0279
     16 H          -0.4508    2.7665    0.3831 H       1  LIG1        0.0279
     17 C          -2.3278   -1.1017   -0.1366 C.ar    1  LIG1        0.1062
     18 C          -2.7780   -2.4180   -0.0417 C.ar    1  LIG1        0.1502
     19 C          -4.1966   -2.4399   -0.0375 C.ar    1  LIG1        0.0187
     20 C          -4.6003   -1.1047   -0.1262 C.ar    1  LIG1        0.0735
     21 N          -3.4619   -0.3218   -0.1763 N.ar    1  LIG1       -0.3486
     22 H          -3.5006    0.6731   -0.3435 H       1  LIG1        0.1661
     23 O          -1.9515   -3.5269    0.0182 O.3     1  LIG1       -0.4927
     24 C          -1.6514   -3.9449    1.3554 C.3     1  LIG1        0.0789
     25 H          -1.0239   -4.8359    1.2733 H       1  LIG1        0.0660
     26 H          -1.1101   -3.1625    1.9010 H       1  LIG1        0.0660
     27 H          -2.5655   -4.1952    1.9063 H       1  LIG1        0.0660
     28 C          -5.0486   -3.6728    0.0269 C.3     1  LIG1       -0.0341
     29 H          -4.4130   -4.5605    0.0808 H       1  LIG1        0.0279
     30 H          -5.6783   -3.7914   -0.8645 H       1  LIG1        0.0279
     31 H          -5.7108   -3.6821    0.9023 H       1  LIG1        0.0279
     32 C          -5.8998   -0.4850   -0.1766 C.ar    1  LIG1        0.1062
     33 C          -6.2455    0.8671   -0.1586 C.ar    1  LIG1        0.1502
     34 C          -7.6520    1.0022   -0.2880 C.ar    1  LIG1        0.0187
     35 C          -8.1555   -0.2982   -0.3747 C.ar    1  LIG1        0.0735
     36 N          -7.0881   -1.1705   -0.3008 N.ar    1  LIG1       -0.3486
     37 H          -7.2051   -2.1671   -0.4115 H       1  LIG1        0.1661
     38 O          -5.3377    1.9058   -0.0534 O.3     1  LIG1       -0.4927
     39 C          -5.1699    2.3894    1.2854 C.3     1  LIG1        0.0789
     40 H          -4.4529    3.2122    1.2340 H       1  LIG1        0.0660
     41 H          -6.1171    2.7582    1.6957 H       1  LIG1        0.0660
     42 H          -4.7811    1.6029    1.9434 H       1  LIG1        0.0660
     43 C          -8.4007    2.3010   -0.3464 C.3     1  LIG1       -0.0341
     44 H          -9.1346    2.4050    0.4636 H       1  LIG1        0.0279
     45 H          -8.9324    2.4312   -1.2991 H       1  LIG1        0.0279
     46 H          -7.7022    3.1381   -0.2684 H       1  LIG1        0.0279
     47 C          -9.4943   -0.8161   -0.5176 C.ar    1  LIG1        0.1057
     48 C          -9.9504   -2.1322   -0.4952 C.ar    1  LIG1        0.1495
     49 C         -11.3571   -2.1505   -0.7252 C.ar    1  LIG1        0.0092
     50 C         -11.7274   -0.8290   -0.8793 C.ar    1  LIG1        0.0087
     51 N         -10.6104   -0.0368   -0.7502 N.ar    1  LIG1       -0.3563
     52 H         -10.5915    0.9620   -0.8659 H       1  LIG1        0.1655
     53 H         -12.6975   -0.3975   -1.0766 H       1  LIG1        0.0811
     54 O          -9.1229   -3.2294   -0.3303 O.3     1  LIG1       -0.4927
     55 C          -9.2278   -3.8527    0.9540 C.3     1  LIG1        0.0789
     56 H          -8.5155   -4.6813    0.9589 H       1  LIG1        0.0660
     57 H          -8.9790   -3.1478    1.7569 H       1  LIG1        0.0660
     58 H         -10.2358   -4.2465    1.1266 H       1  LIG1        0.0660
     59 C         -12.2430   -3.3580   -0.8045 C.3     1  LIG1       -0.0348
     60 H         -12.4771   -3.7720    0.1847 H       1  LIG1        0.0279
     61 H         -11.7664   -4.1563   -1.3831 H       1  LIG1        0.0279
     62 H         -13.1943   -3.1163   -1.2875 H       1  LIG1        0.0279
@<TRIPOS>BOND
     1    12     9    1
     2    61    59    1
     3    45    43    1
     4    62    59    1
     5    53    50    1
     6    50    51   ar
     7    50    49   ar
     8    52    51    1
     9    30    28    1
    10    59    49    1
    11    59    60    1
    12    15    13    1
    13    51    47   ar
    14    49    48   ar
    15     7     1    1
    16     6     5    1
    17    47    48   ar
    18    47    35    1
    19     1     5   ar
    20     1     2   ar
    21    48    54    1
    22     9    10    1
    23     9     8    1
    24     9    11    1
    25     5     4   ar
    26    37    36    1
    27    35    36   ar
    28    35    34   ar
    29    43    34    1
    30    43    46    1
    31    43    44    1
    32    22    21    1
    33    54    55    1
    34     2     8    1
    35     2     3   ar
    36    36    32   ar
    37    34    33   ar
    38     4    17    1
    39     4     3   ar
    40    32    33   ar
    41    32    20    1
    42    21    17   ar
    43    21    20   ar
    44    33    38    1
    45    17    18   ar
    46     3    13    1
    47    20    19   ar
    48    38    39    1
    49    18    19   ar
    50    18    23    1
    51    19    28    1
    52    23    24    1
    53    28    29    1
    54    28    31    1
    55    13    16    1
    56    13    14    1
    57    55    56    1
    58    55    58    1
    59    55    57    1
    60    40    39    1
    61    25    24    1
    62    39    41    1
    63    39    42    1
    64    24    26    1
    65    24    27    1
