@<TRIPOS>MOLECULE
mol_data/opt/b3lyp/geoms/mol2/13li13li13li.out
 47 49 0 0 0
SMALL
GASTEIGER

@<TRIPOS>ATOM
      1 C           0.8104    1.4694   -1.2225 C.ar    1  LIG1        0.0447
      2 C           1.3552    0.6757   -0.2283 C.ar    1  LIG1        0.1408
      3 C           0.3445   -0.1868    0.2852 C.ar    1  LIG1        0.0180
      4 C          -0.8155    0.1088   -0.4322 C.ar    1  LIG1        0.0730
      5 N          -0.5165    1.1104   -1.3283 N.ar    1  LIG1       -0.3561
      6 H          -1.1936    1.4673   -1.9854 H       1  LIG1        0.1655
      7 H           1.2401    2.2386   -1.8425 H       1  LIG1        0.0844
      8 O           2.6303    0.6562    0.2619 O.3     1  LIG1       -0.4933
      9 C           3.5163    1.5954   -0.3184 C.3     1  LIG1        0.0789
     10 H           4.4812    1.4657    0.1747 H       1  LIG1        0.0660
     11 H           3.6340    1.4210   -1.3971 H       1  LIG1        0.0660
     12 H           3.1648    2.6255   -0.1648 H       1  LIG1        0.0660
     13 C           0.5368   -1.1802    1.3925 C.3     1  LIG1       -0.0342
     14 H          -0.3056   -1.1768    2.0943 H       1  LIG1        0.0279
     15 H           1.4401   -0.9383    1.9587 H       1  LIG1        0.0279
     16 H           0.6622   -2.2097    1.0262 H       1  LIG1        0.0279
     17 C          -2.1528   -0.4303   -0.3788 C.ar    1  LIG1        0.1062
     18 C          -3.3252    0.0267   -0.9704 C.ar    1  LIG1        0.1502
     19 C          -4.3886   -0.8769   -0.6950 C.ar    1  LIG1        0.0187
     20 C          -3.8381   -1.8977    0.0743 C.ar    1  LIG1        0.0735
     21 N          -2.4953   -1.5957    0.2800 N.ar    1  LIG1       -0.3486
     22 H          -1.8183   -2.2886    0.5586 H       1  LIG1        0.1661
     23 O          -3.4193    1.1870   -1.7181 O.3     1  LIG1       -0.4927
     24 C          -3.8283    2.3300   -0.9572 C.3     1  LIG1        0.0789
     25 H          -3.8915    3.1670   -1.6569 H       1  LIG1        0.0660
     26 H          -4.8097    2.1685   -0.4965 H       1  LIG1        0.0660
     27 H          -3.0994    2.5617   -0.1712 H       1  LIG1        0.0660
     28 C          -5.8069   -0.7172   -1.1500 C.3     1  LIG1       -0.0341
     29 H          -6.5077   -0.6810   -0.3067 H       1  LIG1        0.0279
     30 H          -6.1099   -1.5503   -1.7895 H       1  LIG1        0.0279
     31 H          -5.9163    0.2069   -1.7237 H       1  LIG1        0.0279
     32 C          -4.4033   -3.0779    0.6974 C.ar    1  LIG1        0.1057
     33 C          -5.3686   -4.0003    0.3062 C.ar    1  LIG1        0.1495
     34 C          -5.4542   -5.0334    1.2957 C.ar    1  LIG1        0.0092
     35 C          -4.5374   -4.7042    2.2714 C.ar    1  LIG1        0.0087
     36 N          -3.8896   -3.5510    1.8984 N.ar    1  LIG1       -0.3563
     37 H          -3.3150   -2.9911    2.5076 H       1  LIG1        0.1655
     38 H          -4.2873   -5.2158    3.1894 H       1  LIG1        0.0811
     39 O          -6.0150   -3.9676   -0.9064 O.3     1  LIG1       -0.4927
     40 C          -7.4380   -3.8958   -0.8372 C.3     1  LIG1        0.0789
     41 H          -7.7927   -3.7945   -1.8654 H       1  LIG1        0.0660
     42 H          -7.8750   -4.8011   -0.4012 H       1  LIG1        0.0660
     43 H          -7.7656   -3.0270   -0.2526 H       1  LIG1        0.0660
     44 C          -6.3046   -6.2690    1.2534 C.3     1  LIG1       -0.0348
     45 H          -5.9508   -7.0085    1.9779 H       1  LIG1        0.0279
     46 H          -6.2761   -6.7352    0.2624 H       1  LIG1        0.0279
     47 H          -7.3575   -6.0650    1.4854 H       1  LIG1        0.0279
@<TRIPOS>BOND
     1     6     5    1
     2    41    40    1
     3     7     1    1
     4    30    28    1
     5    31    28    1
     6    23    18    1
     7    23    24    1
     8    25    24    1
     9    11     9    1
    10     5     1   ar
    11     5     4   ar
    12     1     2   ar
    13    28    19    1
    14    28    29    1
    15    18    19   ar
    16    18    17   ar
    17    24    26    1
    18    24    27    1
    19    39    40    1
    20    39    33    1
    21    40    42    1
    22    40    43    1
    23    19    20   ar
    24     4    17    1
    25     4     3   ar
    26    17    21   ar
    27     9    12    1
    28     9    10    1
    29     9     8    1
    30     2     8    1
    31     2     3   ar
    32    20    21   ar
    33    20    32    1
    34    46    44    1
    35    21    22    1
    36     3    13    1
    37    33    32   ar
    38    33    34   ar
    39    32    36   ar
    40    16    13    1
    41    44    34    1
    42    44    47    1
    43    44    45    1
    44    34    35   ar
    45    13    15    1
    46    13    14    1
    47    36    35   ar
    48    36    37    1
    49    35    38    1
