@<TRIPOS>MOLECULE
mol_data/opt/b3lyp/geoms/mol2/13li13li-13li-13li.out
 62 65 0 0 0
SMALL
GASTEIGER

@<TRIPOS>ATOM
      1 C           1.1331   -0.6275   -0.0420 C.ar    1  LIG1        0.0447
      2 C           0.7876    0.4668   -0.8157 C.ar    1  LIG1        0.1408
      3 C          -0.6317    0.5453   -0.9039 C.ar    1  LIG1        0.0180
      4 C          -1.1237   -0.5289   -0.1604 C.ar    1  LIG1        0.0730
      5 N          -0.0480   -1.2239    0.3435 N.ar    1  LIG1       -0.3561
      6 H          -0.1615   -2.0199    0.9531 H       1  LIG1        0.1655
      7 H           2.0905   -1.0215    0.2562 H       1  LIG1        0.0844
      8 O           1.5968    1.3730   -1.4415 O.3     1  LIG1       -0.4933
      9 C           2.9860    1.1562   -1.2804 C.3     1  LIG1        0.0789
     10 H           3.4954    1.9473   -1.8335 H       1  LIG1        0.0660
     11 H           3.2789    1.2068   -0.2222 H       1  LIG1        0.0660
     12 H           3.2881    0.1789   -1.6826 H       1  LIG1        0.0660
     13 C          -1.3920    1.5880   -1.6699 C.3     1  LIG1       -0.0342
     14 H          -1.9401    2.2809   -1.0161 H       1  LIG1        0.0279
     15 H          -2.1140    1.1472   -2.3703 H       1  LIG1        0.0279
     16 H          -0.6993    2.1924   -2.2604 H       1  LIG1        0.0279
     17 C          -2.4655   -0.9777    0.1244 C.ar    1  LIG1        0.1062
     18 C          -2.9060   -2.1419    0.7476 C.ar    1  LIG1        0.1502
     19 C          -4.3253   -2.1352    0.8331 C.ar    1  LIG1        0.0187
     20 C          -4.7401   -0.9473    0.2328 C.ar    1  LIG1        0.0735
     21 N          -3.6056   -0.2554   -0.1652 N.ar    1  LIG1       -0.3486
     22 H          -3.6202    0.5768   -0.7319 H       1  LIG1        0.1661
     23 O          -2.0555   -3.1026    1.2665 O.3     1  LIG1       -0.4927
     24 C          -2.0301   -4.3214    0.5164 C.3     1  LIG1        0.0789
     25 H          -1.3285   -4.9876    1.0242 H       1  LIG1        0.0660
     26 H          -3.0182   -4.7942    0.4903 H       1  LIG1        0.0660
     27 H          -1.6920   -4.1450   -0.5122 H       1  LIG1        0.0660
     28 C          -5.1777   -3.1566    1.5229 C.3     1  LIG1       -0.0341
     29 H          -4.6186   -3.6253    2.3392 H       1  LIG1        0.0279
     30 H          -5.5136   -3.9539    0.8485 H       1  LIG1        0.0279
     31 H          -6.0794   -2.6980    1.9364 H       1  LIG1        0.0279
     32 C          -6.0580   -0.3773    0.0563 C.ar    1  LIG1        0.1062
     33 C          -7.2880   -0.9468   -0.2721 C.ar    1  LIG1        0.1502
     34 C          -8.2764    0.0728   -0.3425 C.ar    1  LIG1        0.0187
     35 C          -7.6213    1.2713   -0.0549 C.ar    1  LIG1        0.0735
     36 N          -6.2907    0.9816    0.1608 N.ar    1  LIG1       -0.3486
     37 H          -5.6434    1.6785    0.5027 H       1  LIG1        0.1661
     38 O          -7.5433   -2.2793   -0.4964 O.3     1  LIG1       -0.4927
     39 C          -7.0576   -2.7679   -1.7479 C.3     1  LIG1        0.0789
     40 H          -7.3750   -3.8110   -1.8196 H       1  LIG1        0.0660
     41 H          -7.4806   -2.2010   -2.5872 H       1  LIG1        0.0660
     42 H          -5.9636   -2.7170   -1.7982 H       1  LIG1        0.0660
     43 C          -9.7261   -0.1512   -0.6551 C.3     1  LIG1       -0.0341
     44 H          -9.9372   -1.2236   -0.6567 H       1  LIG1        0.0279
     45 H         -10.0127    0.2336   -1.6443 H       1  LIG1        0.0279
     46 H         -10.3862    0.3141    0.0876 H       1  LIG1        0.0279
     47 C          -8.0845    2.6330    0.0641 C.ar    1  LIG1        0.1057
     48 C          -7.4342    3.7548    0.5713 C.ar    1  LIG1        0.1495
     49 C          -8.2814    4.8937    0.4377 C.ar    1  LIG1        0.0092
     50 C          -9.4413    4.4287   -0.1512 C.ar    1  LIG1        0.0087
     51 N          -9.3188    3.0762   -0.3675 N.ar    1  LIG1       -0.3563
     52 H          -9.9939    2.4996   -0.8405 H       1  LIG1        0.1655
     53 H         -10.3375    4.9605   -0.4347 H       1  LIG1        0.0811
     54 O          -6.1440    3.7314    1.0724 O.3     1  LIG1       -0.4927
     55 C          -6.0680    3.8496    2.4981 C.3     1  LIG1        0.0789
     56 H          -5.0090    3.7958    2.7607 H       1  LIG1        0.0660
     57 H          -6.4745    4.8075    2.8410 H       1  LIG1        0.0660
     58 H          -6.6123    3.0347    2.9905 H       1  LIG1        0.0660
     59 C          -7.9686    6.3054    0.8360 C.3     1  LIG1       -0.0348
     60 H          -8.6462    7.0109    0.3464 H       1  LIG1        0.0279
     61 H          -6.9447    6.5745    0.5554 H       1  LIG1        0.0279
     62 H          -8.0593    6.4661    1.9180 H       1  LIG1        0.0279
@<TRIPOS>BOND
     1    41    39    1
     2    15    13    1
     3    16    13    1
     4    10     9    1
     5    40    39    1
     6    42    39    1
     7    39    38    1
     8    12     9    1
     9    13    14    1
    10    13     3    1
    11    45    43    1
    12     8     9    1
    13     8     2    1
    14     9    11    1
    15     3     2   ar
    16     3     4   ar
    17    52    51    1
    18     2     1   ar
    19    22    21    1
    20    44    43    1
    21    43    34    1
    22    43    46    1
    23    27    24    1
    24    38    33    1
    25    53    50    1
    26    51    50   ar
    27    51    47   ar
    28    34    33   ar
    29    34    35   ar
    30    33    32   ar
    31    21    17   ar
    32    21    20   ar
    33     4    17    1
    34     4     5   ar
    35    50    49   ar
    36    35    47    1
    37    35    36   ar
    38     1     7    1
    39     1     5   ar
    40    32    36   ar
    41    32    20    1
    42    47    48   ar
    43    17    18   ar
    44    36    37    1
    45    20    19   ar
    46     5     6    1
    47    60    59    1
    48    49    48   ar
    49    49    59    1
    50    26    24    1
    51    24    25    1
    52    24    23    1
    53    61    59    1
    54    48    54    1
    55    18    19   ar
    56    18    23    1
    57    19    28    1
    58    59    62    1
    59    30    28    1
    60    54    55    1
    61    28    31    1
    62    28    29    1
    63    55    56    1
    64    55    57    1
    65    55    58    1
