@<TRIPOS>MOLECULE
mol_data/opt/b3lyp/geoms/mol2/13li13li.out
 32 33 0 0 0
SMALL
GASTEIGER

@<TRIPOS>ATOM
      1 C           0.8058    0.5725   -1.1420 C.ar    1  LIG1        0.0447
      2 C           1.1556    0.8150    0.1746 C.ar    1  LIG1        0.1408
      3 C           0.0417    0.5229    1.0136 C.ar    1  LIG1        0.0180
      4 C          -0.9784    0.0954    0.1637 C.ar    1  LIG1        0.0730
      5 N          -0.5017    0.1362   -1.1261 N.ar    1  LIG1       -0.3561
      6 H          -1.0598   -0.1530   -1.9153 H       1  LIG1        0.1655
      7 H           1.3589    0.6708   -2.0614 H       1  LIG1        0.0844
      8 O           2.3381    1.2703    0.6864 O.3     1  LIG1       -0.4933
      9 C           3.3416    1.5550   -0.2702 C.3     1  LIG1        0.0789
     10 H           4.2114    1.9150    0.2821 H       1  LIG1        0.0660
     11 H           3.6195    0.6562   -0.8385 H       1  LIG1        0.0660
     12 H           3.0128    2.3302   -0.9767 H       1  LIG1        0.0660
     13 C           0.0205    0.6813    2.5055 C.3     1  LIG1       -0.0342
     14 H          -0.8891    1.1865    2.8533 H       1  LIG1        0.0279
     15 H           0.8727    1.2848    2.8277 H       1  LIG1        0.0279
     16 H           0.0959   -0.2784    3.0374 H       1  LIG1        0.0279
     17 C          -2.3346   -0.3383    0.4129 C.ar    1  LIG1        0.1057
     18 C          -3.3758   -0.5712   -0.4804 C.ar    1  LIG1        0.1495
     19 C          -4.5179   -1.0382    0.2339 C.ar    1  LIG1        0.0092
     20 C          -4.1375   -1.0777    1.5609 C.ar    1  LIG1        0.0087
     21 N          -2.8330   -0.6522    1.6610 N.ar    1  LIG1       -0.3563
     22 H          -2.2851   -0.6522    2.5048 H       1  LIG1        0.1655
     23 H          -4.6949   -1.3790    2.4355 H       1  LIG1        0.0811
     24 O          -3.2673   -0.4151   -1.8520 O.3     1  LIG1       -0.4927
     25 C          -3.8735    0.7827   -2.3486 C.3     1  LIG1        0.0789
     26 H          -3.7247    0.7851   -3.4312 H       1  LIG1        0.0660
     27 H          -4.9482    0.8042   -2.1348 H       1  LIG1        0.0660
     28 H          -3.4057    1.6729   -1.9105 H       1  LIG1        0.0660
     29 C          -5.8471   -1.4208   -0.3454 C.3     1  LIG1       -0.0348
     30 H          -6.4287   -2.0170    0.3638 H       1  LIG1        0.0279
     31 H          -5.7207   -2.0129   -1.2581 H       1  LIG1        0.0279
     32 H          -6.4555   -0.5467   -0.6109 H       1  LIG1        0.0279
@<TRIPOS>BOND
     1    26    25    1
     2    25    27    1
     3    25    28    1
     4    25    24    1
     5     7     1    1
     6     6     5    1
     7    24    18    1
     8    31    29    1
     9     1     5   ar
    10     1     2   ar
    11     5     4   ar
    12    12     9    1
    13    11     9    1
    14    32    29    1
    15    18    19   ar
    16    18    17   ar
    17    29    19    1
    18    29    30    1
    19     9    10    1
    20     9     8    1
    21     4    17    1
    22     4     3   ar
    23     2     8    1
    24     2     3   ar
    25    19    20   ar
    26    17    21   ar
    27     3    13    1
    28    20    21   ar
    29    20    23    1
    30    21    22    1
    31    13    15    1
    32    13    14    1
    33    13    16    1
