@<TRIPOS>MOLECULE
mol_data/opt/b3lyp/geoms/mol2/13li13li-.out
 32 33 0 0 0
SMALL
GASTEIGER

@<TRIPOS>ATOM
      1 C           1.0365   -0.5378   -0.4460 C.ar    1  LIG1        0.0447
      2 C           0.7505    0.7550   -0.0443 C.ar    1  LIG1        0.1408
      3 C          -0.6572    0.8875    0.1306 C.ar    1  LIG1        0.0180
      4 C          -1.2027   -0.3577   -0.1824 C.ar    1  LIG1        0.0730
      5 N          -0.1698   -1.2005   -0.5218 N.ar    1  LIG1       -0.3561
      6 H          -0.3265   -2.1548   -0.8097 H       1  LIG1        0.1655
      7 H           1.9677   -1.0283   -0.6767 H       1  LIG1        0.0844
      8 O           1.6024    1.7983    0.1862 O.3     1  LIG1       -0.4933
      9 C           2.9763    1.5081    0.0092 C.3     1  LIG1        0.0789
     10 H           3.5246    2.4238    0.2372 H       1  LIG1        0.0660
     11 H           3.3069    0.7078    0.6863 H       1  LIG1        0.0660
     12 H           3.1913    1.2048   -1.0252 H       1  LIG1        0.0660
     13 C          -1.3568    2.1357    0.5821 C.3     1  LIG1       -0.0342
     14 H          -2.1017    1.9317    1.3612 H       1  LIG1        0.0279
     15 H          -1.8652    2.6607   -0.2396 H       1  LIG1        0.0279
     16 H          -0.6314    2.8382    1.0002 H       1  LIG1        0.0279
     17 C          -2.5622   -0.8484   -0.1970 C.ar    1  LIG1        0.1057
     18 C          -3.0406   -2.1484   -0.3291 C.ar    1  LIG1        0.1495
     19 C          -4.4662   -2.1305   -0.3376 C.ar    1  LIG1        0.0092
     20 C          -4.8234   -0.8027   -0.2084 C.ar    1  LIG1        0.0087
     21 N          -3.6800   -0.0428   -0.1192 N.ar    1  LIG1       -0.3563
     22 H          -3.6514    0.9624   -0.0895 H       1  LIG1        0.1655
     23 H          -5.8012   -0.3453   -0.1776 H       1  LIG1        0.0811
     24 O          -2.2285   -3.2596   -0.4817 O.3     1  LIG1       -0.4927
     25 C          -2.0896   -4.0435    0.7079 C.3     1  LIG1        0.0789
     26 H          -1.4359   -4.8825    0.4572 H       1  LIG1        0.0660
     27 H          -1.6406   -3.4558    1.5179 H       1  LIG1        0.0660
     28 H          -3.0575   -4.4319    1.0449 H       1  LIG1        0.0660
     29 C          -5.3801   -3.3113   -0.4758 C.3     1  LIG1       -0.0348
     30 H          -5.4603   -3.8899    0.4536 H       1  LIG1        0.0279
     31 H          -5.0201   -3.9967   -1.2503 H       1  LIG1        0.0279
     32 H          -6.3914   -2.9965   -0.7495 H       1  LIG1        0.0279
@<TRIPOS>BOND
     1    31    29    1
     2    12     9    1
     3     6     5    1
     4    32    29    1
     5     7     1    1
     6     5     1   ar
     7     5     4   ar
     8    24    18    1
     9    24    25    1
    10    29    19    1
    11    29    30    1
    12     1     2   ar
    13    19    18   ar
    14    19    20   ar
    15    18    17   ar
    16    15    13    1
    17    20    23    1
    18    20    21   ar
    19    17     4    1
    20    17    21   ar
    21     4     3   ar
    22    21    22    1
    23     2     3   ar
    24     2     8    1
    25     9     8    1
    26     9    10    1
    27     9    11    1
    28     3    13    1
    29    26    25    1
    30    13    16    1
    31    13    14    1
    32    25    28    1
    33    25    27    1
