@<TRIPOS>MOLECULE
mol_data/opt/b3lyp/geoms/mol2/13li4lf13el-4fa6hl12ah13hd13df-.out
 102 109 0 0 0
SMALL
GASTEIGER

@<TRIPOS>ATOM
      1 C           0.5734    2.3663    0.6705 C.ar    1  LIG1        0.0446
      2 C           0.6466    1.7456    1.9071 C.ar    1  LIG1        0.1408
      3 C          -0.3818    0.7687    1.9956 C.ar    1  LIG1        0.0166
      4 C          -1.0724    0.8154    0.7766 C.ar    1  LIG1        0.0566
      5 N          -0.4757    1.7883    0.0031 N.ar    1  LIG1       -0.3573
      6 H          -0.8326    2.0367   -0.9072 H       1  LIG1        0.1655
      7 H           1.1654    3.1493    0.2254 H       1  LIG1        0.0844
      8 O           1.5133    1.9719    2.9378 O.3     1  LIG1       -0.4933
      9 C           2.4496    3.0132    2.7271 C.3     1  LIG1        0.0789
     10 H           3.0532    3.0820    3.6335 H       1  LIG1        0.0660
     11 H           3.1046    2.7956    1.8718 H       1  LIG1        0.0660
     12 H           1.9468    3.9745    2.5510 H       1  LIG1        0.0660
     13 C          -0.6325   -0.0628    3.2193 C.3     1  LIG1       -0.0342
     14 H          -1.7019   -0.1812    3.4223 H       1  LIG1        0.0279
     15 H          -0.1755    0.4179    4.0883 H       1  LIG1        0.0279
     16 H          -0.1947   -1.0680    3.1479 H       1  LIG1        0.0279
     17 C          -3.0304    0.4564   -0.7907 C.ar    1  LIG1        0.1300
     18 C          -4.0910   -0.3158   -1.2382 C.ar    1  LIG1       -0.0066
     19 C          -2.2030    0.0374    0.2769 C.ar    1  LIG1        0.0438
     20 C          -4.4276   -1.5584   -0.6683 C.ar    1  LIG1        0.0445
     21 H          -4.6731    0.0616   -2.0684 H       1  LIG1        0.0662
     22 C          -2.5180   -1.2178    0.8299 C.ar    1  LIG1       -0.0069
     23 C          -3.5894   -1.9855    0.3905 C.ar    1  LIG1        0.1268
     24 H          -1.8885   -1.6199    1.6165 H       1  LIG1        0.0662
     25 O          -2.7730    1.6588   -1.4480 O.3     1  LIG1       -0.4944
     26 C          -3.6271    2.7363   -1.0481 C.3     1  LIG1        0.0788
     27 H          -3.3474    3.5994   -1.6561 H       1  LIG1        0.0660
     28 H          -4.6793    2.4907   -1.2305 H       1  LIG1        0.0660
     29 H          -3.4916    2.9760    0.0136 H       1  LIG1        0.0660
     30 O          -3.8404   -3.2076    0.9830 O.3     1  LIG1       -0.5061
     31 H          -3.2017   -3.3514    1.6927 H       1  LIG1        0.2922
     32 C          -5.5660   -2.3276   -1.1640 C.ar    1  LIG1        0.0698
     33 C          -6.5206   -2.0462   -2.1688 C.ar    1  LIG1        0.0922
     34 C          -7.4414   -3.1448   -2.1877 C.ar    1  LIG1        0.1613
     35 C          -7.0485   -4.0627   -1.2227 C.ar    1  LIG1        0.0939
     36 N          -5.9072   -3.5483   -0.6423 N.ar    1  LIG1       -0.3500
     37 H          -5.4229   -3.9495    0.1470 H       1  LIG1        0.1661
     38 C          -6.5698   -0.9547   -3.0699 C.1     1  LIG1       -0.0638
     39 C          -6.6544   -0.0396   -3.8618 C.1     1  LIG1       -0.1137
     40 H          -6.7067    0.7471   -4.5777 H       1  LIG1        0.1232
     41 O          -8.4506   -3.3469   -3.0788 O.3     1  LIG1       -0.4917
     42 C          -9.5233   -2.4007   -3.0212 C.3     1  LIG1        0.0789
     43 H         -10.2444   -2.7163   -3.7783 H       1  LIG1        0.0660
     44 H          -9.9966   -2.4172   -2.0342 H       1  LIG1        0.0660
     45 H          -9.1764   -1.3892   -3.2520 H       1  LIG1        0.0660
     46 C          -8.9050   -5.6920   -0.6929 C.ar    1  LIG1        0.1266
     47 C          -9.3174   -6.9792   -0.3476 C.ar    1  LIG1       -0.0117
     48 C          -7.5345   -5.3955   -0.8627 C.ar    1  LIG1        0.0434
     49 C          -8.3979   -8.0195   -0.1345 C.ar    1  LIG1       -0.0110
     50 H         -10.3823   -7.1807   -0.2495 H       1  LIG1        0.0660
     51 C          -6.6248   -6.4434   -0.6392 C.ar    1  LIG1       -0.0484
     52 C          -7.0315   -7.7249   -0.2823 C.ar    1  LIG1       -0.0531
     53 H          -5.5656   -6.2425   -0.7723 H       1  LIG1        0.0625
     54 O          -9.8069   -4.6800   -0.8506 O.3     1  LIG1       -0.5061
     55 H         -10.6975   -5.0333   -0.7273 H       1  LIG1        0.2922
     56 H          -6.2916   -8.4988   -0.1115 H       1  LIG1        0.0624
     57 C          -8.3811  -10.5700   -0.2947 C.ar    1  LIG1        0.1250
     58 C          -8.8733   -9.3641    0.2713 C.ar    1  LIG1        0.0253
     59 C          -9.8720   -9.4984    1.2439 C.ar    1  LIG1       -0.0067
     60 C         -10.3339  -10.7501    1.6415 C.ar    1  LIG1        0.1497
     61 C          -9.7701  -11.8927    1.0260 C.ar    1  LIG1        0.1496
     62 N          -8.8263  -11.7705    0.0767 N.ar    1  LIG1       -0.2250
     63 H         -10.2601   -8.6001    1.7084 H       1  LIG1        0.0662
     64 N          -7.3816  -10.5775   -1.2629 N.pl3   1  LIG1       -0.3426
     65 H          -7.3491  -11.4540   -1.7666 H       1  LIG1        0.1437
     66 H          -7.3402   -9.7615   -1.8586 H       1  LIG1        0.1437
     67 O         -11.2931  -10.9500    2.5980 O.3     1  LIG1       -0.4928
     68 C         -11.8520   -9.8137    3.2376 C.3     1  LIG1        0.0789
     69 H         -12.5775  -10.1987    3.9555 H       1  LIG1        0.0660
     70 H         -11.0893   -9.2337    3.7726 H       1  LIG1        0.0660
     71 H         -12.3666   -9.1584    2.5230 H       1  LIG1        0.0660
     72 C         -10.1720  -13.2478    1.3747 C.ar    1  LIG1        0.1594
     73 C         -11.0687  -13.7899    2.2676 C.ar    1  LIG1        0.0072
     74 C         -10.9864  -15.2108    2.1513 C.ar    1  LIG1        0.0732
     75 C         -10.0450  -15.4504    1.1620 C.ar    1  LIG1        0.1742
     76 O          -9.5401  -14.2529    0.6998 O.2     1  LIG1       -0.4497
     77 H         -11.6958  -13.2346    2.9448 H       1  LIG1        0.0675
     78 N         -11.6360  -16.1415    2.9400 N.pl3   1  LIG1       -0.3550
     79 H         -12.5447  -15.8523    3.2738 H       1  LIG1        0.1424
     80 H         -11.6103  -17.0918    2.5664 H       1  LIG1        0.1424
     81 C          -9.4700  -16.6228    0.5710 C.ar    1  LIG1        0.1066
     82 C          -9.8320  -17.9669    0.5730 C.ar    1  LIG1        0.0716
     83 C          -8.8528  -18.6727   -0.2004 C.ar    1  LIG1        0.0997
     84 C          -7.9277  -17.7406   -0.6803 C.ar    1  LIG1        0.0842
     85 N          -8.3209  -16.5169   -0.1914 N.ar    1  LIG1       -0.3480
     86 H          -7.9392  -15.6243   -0.4692 H       1  LIG1        0.1661
     87 N         -10.9791  -18.5157    1.2154 N.pl3   1  LIG1       -0.3552
     88 H         -11.7552  -18.5896    0.5588 H       1  LIG1        0.1424
     89 H         -10.7843  -19.4612    1.5384 H       1  LIG1        0.1424
     90 N          -8.8515  -21.2476   -0.3653 N.1     1  LIG1       -0.1907
     91 C          -8.8203  -20.0835   -0.3317 C.1     1  LIG1        0.1032
     92 C          -6.7311  -17.8898   -1.4766 C.ar    1  LIG1        0.0855
     93 C          -6.4686  -18.6527   -2.6222 C.ar    1  LIG1        0.1197
     94 C          -5.1097  -18.3986   -2.9939 C.ar    1  LIG1        0.1521
     95 C          -4.5844  -17.4976   -2.0946 C.ar    1  LIG1        0.0455
     96 N          -5.5896  -17.1831   -1.1950 N.ar    1  LIG1       -0.3554
     97 H          -5.4419  -16.6920   -0.3270 H       1  LIG1        0.1655
     98 H          -3.6021  -17.0570   -2.0249 H       1  LIG1        0.0845
     99 N          -8.1566  -20.0576   -3.9781 N.1     1  LIG1       -0.1907
    100 C          -7.3974  -19.4328   -3.3546 C.1     1  LIG1        0.1050
    101 O          -4.5383  -18.9753   -4.0807 O.3     1  LIG1       -0.5040
    102 H          -3.6282  -18.6651   -4.1696 H       1  LIG1        0.2923
@<TRIPOS>BOND
     1    40    39    1
     2   102   101    1
     3   101    94    1
     4    99   100    3
     5    39    38    3
     6    43    42    1
     7   100    93    1
     8    45    42    1
     9    41    42    1
    10    41    34    1
    11    38    33    1
    12    42    44    1
    13    94    93   ar
    14    94    95   ar
    15    93    92   ar
    16    34    33   ar
    17    34    35   ar
    18    33    32   ar
    19    95    98    1
    20    95    96   ar
    21    21    18    1
    22    66    64    1
    23    65    64    1
    24    27    26    1
    25    92    96   ar
    26    92    84    1
    27    25    26    1
    28    25    17    1
    29    64    57    1
    30    18    17   ar
    31    18    20   ar
    32    28    26    1
    33    35    48    1
    34    35    36   ar
    35    96    97    1
    36    32    20    1
    37    32    36   ar
    38    26    29    1
    39     6     5    1
    40    48    46   ar
    41    48    51   ar
    42    54    55    1
    43    54    46    1
    44    17    19   ar
    45    53    51    1
    46    46    47   ar
    47    84    83   ar
    48    84    85   ar
    49    20    23   ar
    50    36    37    1
    51    51    52   ar
    52    86    85    1
    53    90    91    3
    54    47    50    1
    55    47    49   ar
    56    91    83    1
    57    57    62   ar
    58    57    58   ar
    59    52    49   ar
    60    52    56    1
    61    83    82   ar
    62    85    81   ar
    63    49    58    1
    64     5     1   ar
    65     5     4   ar
    66    62    61   ar
    67     7     1    1
    68    58    59   ar
    69    19     4    1
    70    19    22   ar
    71    23    22   ar
    72    23    30    1
    73    88    87    1
    74    81    82   ar
    75    81    75    1
    76    82    87    1
    77     1     2   ar
    78    76    75   ar
    79    76    72   ar
    80     4     3   ar
    81    22    24    1
    82    30    31    1
    83    61    72    1
    84    61    60   ar
    85    75    74   ar
    86    87    89    1
    87    59    60   ar
    88    59    63    1
    89    72    73   ar
    90    60    67    1
    91    11     9    1
    92     2     3   ar
    93     2     8    1
    94     3    13    1
    95    74    73   ar
    96    74    78    1
    97    73    77    1
    98    71    68    1
    99    12     9    1
   100    80    78    1
   101    67    68    1
   102     9     8    1
   103     9    10    1
   104    78    79    1
   105    16    13    1
   106    13    14    1
   107    13    15    1
   108    68    70    1
   109    68    69    1
