@<TRIPOS>MOLECULE
mol_data/opt/b3lyp/geoms/mol2/13li13dh-12lh13di.out
 60 63 0 0 0
SMALL
GASTEIGER

@<TRIPOS>ATOM
      1 C           1.0845    0.5112   -1.2186 C.ar    1  LIG1        0.0446
      2 C           1.1646    0.9810    0.0779 C.ar    1  LIG1        0.1408
      3 C          -0.0507    0.6779    0.7616 C.ar    1  LIG1        0.0166
      4 C          -0.8612    0.0233   -0.1582 C.ar    1  LIG1        0.0566
      5 N          -0.1462   -0.1048   -1.3367 N.ar    1  LIG1       -0.3573
      6 H          -0.5760   -0.3481   -2.2146 H       1  LIG1        0.1655
      7 H           1.7787    0.5505   -2.0422 H       1  LIG1        0.0844
      8 O           2.2004    1.6082    0.7082 O.3     1  LIG1       -0.4933
      9 C           3.3603    1.8031   -0.0791 C.3     1  LIG1        0.0789
     10 H           4.0942    2.3002    0.5576 H       1  LIG1        0.0660
     11 H           3.7717    0.8461   -0.4302 H       1  LIG1        0.0660
     12 H           3.1501    2.4372   -0.9521 H       1  LIG1        0.0660
     13 C          -0.3076    0.9594    2.2106 C.3     1  LIG1       -0.0342
     14 H          -1.0041    0.2343    2.6398 H       1  LIG1        0.0279
     15 H          -0.7422    1.9538    2.3615 H       1  LIG1        0.0279
     16 H           0.6286    0.9166    2.7753 H       1  LIG1        0.0279
     17 C          -3.2803    0.0944    0.5533 C.ar    1  LIG1        0.1268
     18 C          -4.5330   -0.5200    0.6102 C.ar    1  LIG1       -0.0083
     19 C          -2.1980   -0.5718   -0.0502 C.ar    1  LIG1        0.0435
     20 C          -4.7728   -1.7882    0.0716 C.ar    1  LIG1        0.0291
     21 H          -5.3601    0.0025    1.0865 H       1  LIG1        0.0661
     22 C          -2.4415   -1.8431   -0.6066 C.ar    1  LIG1       -0.0067
     23 C          -3.6983   -2.4463   -0.5623 C.ar    1  LIG1        0.1287
     24 H          -1.6036   -2.3619   -1.0558 H       1  LIG1        0.0662
     25 O          -3.0773    1.3550    1.0504 O.3     1  LIG1       -0.5061
     26 H          -3.9068    1.6768    1.4263 H       1  LIG1        0.2922
     27 O          -3.9769   -3.6708   -1.1130 O.3     1  LIG1       -0.4945
     28 C          -2.9371   -4.3593   -1.7862 C.3     1  LIG1        0.0788
     29 H          -3.3795   -5.2865   -2.1532 H       1  LIG1        0.0660
     30 H          -2.5534   -3.7819   -2.6376 H       1  LIG1        0.0660
     31 H          -2.1032   -4.5994   -1.1138 H       1  LIG1        0.0660
     32 C          -6.4494   -3.5491    0.8686 C.ar    1  LIG1        0.0471
     33 C          -6.1424   -2.3697    0.1436 C.ar    1  LIG1        0.0102
     34 C          -7.1972   -1.7049   -0.4755 C.ar    1  LIG1       -0.0084
     35 C          -8.5063   -2.1905   -0.4027 C.ar    1  LIG1        0.1465
     36 C          -8.7152   -3.3835    0.3266 C.ar    1  LIG1        0.1512
     37 N          -7.6941   -4.0156    0.9370 N.ar    1  LIG1       -0.2444
     38 H          -7.0248   -0.7936   -1.0393 H       1  LIG1        0.0661
     39 C          -5.4026   -4.3301    1.6231 C.3     1  LIG1       -0.0217
     40 H          -4.7505   -3.6708    2.2050 H       1  LIG1        0.0293
     41 H          -4.7630   -4.8898    0.9332 H       1  LIG1        0.0293
     42 H          -5.8971   -5.0335    2.2946 H       1  LIG1        0.0293
     43 O          -9.4615   -1.4533   -1.0180 O.3     1  LIG1       -0.5045
     44 H         -10.3111   -1.9381   -1.0738 H       1  LIG1        0.2922
     45 C         -10.0318   -4.0061    0.5090 C.ar    1  LIG1        0.2017
     46 C         -11.2648   -3.8967   -0.0946 C.ar    1  LIG1        0.2095
     47 C         -12.1576   -4.8008    0.5723 C.ar    1  LIG1        0.2004
     48 C         -11.4127   -5.4076    1.5388 C.ar    1  LIG1        0.1380
     49 O         -10.1362   -4.9373    1.5077 O.2     1  LIG1       -0.4537
     50 H         -11.6352   -6.1637    2.2742 H       1  LIG1        0.1069
     51 O         -11.6053   -3.0651   -1.1405 O.3     1  LIG1       -0.4884
     52 C         -11.8371   -3.7541   -2.3877 C.3     1  LIG1        0.0791
     53 H         -12.1176   -2.9880   -3.1120 H       1  LIG1        0.0660
     54 H         -10.9276   -4.2673   -2.7163 H       1  LIG1        0.0660
     55 H         -12.6489   -4.4764   -2.2692 H       1  LIG1        0.0660
     56 O         -13.4619   -5.0493    0.2532 O.3     1  LIG1       -0.4888
     57 C         -14.3446   -3.9468    0.5041 C.3     1  LIG1        0.0791
     58 H         -15.3369   -4.2703    0.1850 H       1  LIG1        0.0660
     59 H         -14.3650   -3.7011    1.5726 H       1  LIG1        0.0660
     60 H         -14.0453   -3.0596   -0.0642 H       1  LIG1        0.0660
@<TRIPOS>BOND
     1    53    52    1
     2    54    52    1
     3    30    28    1
     4    52    55    1
     5    52    51    1
     6     6     5    1
     7    29    28    1
     8     7     1    1
     9    28    31    1
    10    28    27    1
    11     5     1   ar
    12     5     4   ar
    13     1     2   ar
    14    51    46    1
    15    27    23    1
    16    44    43    1
    17    24    22    1
    18    38    34    1
    19    43    35    1
    20    12     9    1
    21    22    23   ar
    22    22    19   ar
    23    23    20   ar
    24    34    35   ar
    25    34    33   ar
    26    11     9    1
    27    35    36   ar
    28     4    19    1
    29     4     3   ar
    30    46    45   ar
    31    46    47   ar
    32     9    10    1
    33     9     8    1
    34    60    57    1
    35    19    17   ar
    36    20    33    1
    37    20    18   ar
    38     2     8    1
    39     2     3   ar
    40    33    32   ar
    41    58    57    1
    42    56    57    1
    43    56    47    1
    44    36    45    1
    45    36    37   ar
    46    57    59    1
    47    45    49   ar
    48    17    18   ar
    49    17    25    1
    50    47    48   ar
    51    18    21    1
    52     3    13    1
    53    32    37   ar
    54    32    39    1
    55    41    39    1
    56    25    26    1
    57    49    48   ar
    58    48    50    1
    59    39    40    1
    60    39    42    1
    61    13    15    1
    62    13    14    1
    63    13    16    1
