@<TRIPOS>MOLECULE
mol_data/opt/b3lyp/geoms/mol2/13li4fl-6if-12ll-.out
 54 57 0 0 0
SMALL
GASTEIGER

@<TRIPOS>ATOM
      1 C           1.4866    0.1182    0.8176 C.ar    1  LIG1        0.0463
      2 C           1.1767    1.0920   -0.1157 C.ar    1  LIG1        0.1585
      3 C          -0.1633    0.8971   -0.5376 C.ar    1  LIG1        0.0925
      4 C          -0.6614   -0.2124    0.1631 C.ar    1  LIG1        0.0738
      5 N           0.3718   -0.6617    0.9715 N.ar    1  LIG1       -0.3560
      6 H           0.3178   -1.5036    1.5234 H       1  LIG1        0.1655
      7 H           2.3951   -0.0810    1.3624 H       1  LIG1        0.0845
      8 O           1.9322    2.1103   -0.6262 O.3     1  LIG1       -0.4918
      9 C           3.2536    2.1983   -0.1216 C.3     1  LIG1        0.0789
     10 H           3.7238    3.0498   -0.6157 H       1  LIG1        0.0660
     11 H           3.2541    2.3622    0.9647 H       1  LIG1        0.0660
     12 H           3.8265    1.2873   -0.3437 H       1  LIG1        0.0660
     13 N          -0.8219    1.7282   -1.4658 N.pl3   1  LIG1       -0.3535
     14 H          -0.1717    2.4139   -1.8363 H       1  LIG1        0.1425
     15 H          -1.2266    1.2095   -2.2399 H       1  LIG1        0.1425
     16 C          -2.3247   -2.1013    0.6415 C.ar    1  LIG1        0.1231
     17 C          -1.9897   -0.8043    0.1459 C.ar    1  LIG1        0.0352
     18 C          -3.0677   -0.0756   -0.3866 C.ar    1  LIG1       -0.0323
     19 C          -4.3646   -0.5940   -0.4272 C.ar    1  LIG1        0.0545
     20 C          -4.5869   -1.8820    0.1406 C.ar    1  LIG1        0.1265
     21 N          -3.5716   -2.5935    0.6423 N.ar    1  LIG1       -0.2333
     22 H          -2.8934    0.9209   -0.7743 H       1  LIG1        0.0638
     23 C          -1.3505   -3.0050    1.1909 C.1     1  LIG1       -0.0491
     24 C          -0.5576   -3.7893    1.6641 C.1     1  LIG1       -0.1124
     25 H           0.1182   -4.5109    2.0621 H       1  LIG1        0.1232
     26 C          -5.3945    0.1585   -1.0644 C.1     1  LIG1       -0.0674
     27 C          -6.2407    0.8165   -1.6259 C.1     1  LIG1       -0.1138
     28 H          -7.0067    1.3767   -2.1097 H       1  LIG1        0.1232
     29 C          -5.8990   -2.5244    0.1786 C.ar    1  LIG1        0.2004
     30 C          -7.1963   -2.1202    0.4336 C.ar    1  LIG1        0.2102
     31 C          -8.0192   -3.2901    0.3602 C.ar    1  LIG1        0.2118
     32 C          -7.1810   -4.3388    0.0594 C.ar    1  LIG1        0.2195
     33 O          -5.8966   -3.8854   -0.0257 O.2     1  LIG1       -0.4424
     34 O          -7.7122   -0.9003    0.7444 O.3     1  LIG1       -0.4884
     35 C          -7.1202   -0.2275    1.8594 C.3     1  LIG1        0.0791
     36 H          -7.7588    0.6333    2.0658 H       1  LIG1        0.0660
     37 H          -7.0907   -0.8832    2.7369 H       1  LIG1        0.0660
     38 H          -6.1098    0.1249    1.6314 H       1  LIG1        0.0660
     39 O          -9.3409   -3.3808    0.6576 O.3     1  LIG1       -0.4883
     40 C         -10.2113   -2.6713   -0.2328 C.3     1  LIG1        0.0791
     41 H         -11.2185   -2.7904    0.1708 H       1  LIG1        0.0660
     42 H          -9.9536   -1.6083   -0.2707 H       1  LIG1        0.0660
     43 H         -10.1688   -3.1058   -1.2378 H       1  LIG1        0.0660
     44 C          -7.4255   -5.7331   -0.1742 C.ar    1  LIG1        0.2158
     45 C          -8.5109   -6.4325   -0.6421 C.ar    1  LIG1        0.1816
     46 C          -8.1460   -7.8276   -0.6504 C.ar    1  LIG1        0.1045
     47 C          -6.8517   -7.8683   -0.1945 C.ar    1  LIG1        0.1118
     48 O          -6.4086   -6.6306    0.0974 O.2     1  LIG1       -0.4546
     49 H          -6.1599   -8.6811   -0.0405 H       1  LIG1        0.1043
     50 O          -9.6914   -5.9131   -1.0526 O.3     1  LIG1       -0.5023
     51 H         -10.2517   -6.6485   -1.3433 H       1  LIG1        0.2923
     52 C          -8.9963   -8.8771   -1.0751 C.1     1  LIG1       -0.0628
     53 C          -9.7836   -9.7157   -1.4552 C.1     1  LIG1       -0.1137
     54 H         -10.4517  -10.4788   -1.7816 H       1  LIG1        0.1232
@<TRIPOS>BOND
     1    15    13    1
     2    28    27    1
     3    14    13    1
     4    54    53    1
     5    27    26    3
     6    13     3    1
     7    53    52    3
     8    51    50    1
     9    43    40    1
    10    52    46    1
    11    26    19    1
    12    50    45    1
    13    22    18    1
    14    46    45   ar
    15    46    47   ar
    16    45    44   ar
    17     8     9    1
    18     8     2    1
    19    10     9    1
    20     3     2   ar
    21     3     4   ar
    22    19    18   ar
    23    19    20   ar
    24    18    17   ar
    25    12     9    1
    26    42    40    1
    27    40    41    1
    28    40    39    1
    29    47    49    1
    30    47    48   ar
    31    44    32    1
    32    44    48   ar
    33     9    11    1
    34     2     1   ar
    35    33    32   ar
    36    33    29   ar
    37    32    31   ar
    38    20    29    1
    39    20    21   ar
    40    17     4    1
    41    17    16   ar
    42     4     5   ar
    43    29    30   ar
    44    31    30   ar
    45    31    39    1
    46    30    34    1
    47    16    21   ar
    48    16    23    1
    49    34    35    1
    50     1     5   ar
    51     1     7    1
    52     5     6    1
    53    23    24    3
    54    38    35    1
    55    24    25    1
    56    35    36    1
    57    35    37    1
