@<TRIPOS>MOLECULE
mol_data/opt/b3lyp/geoms/mol2/13li13li-13li-13li-.out
 62 65 0 0 0
SMALL
GASTEIGER

@<TRIPOS>ATOM
      1 C           0.9604   -0.7380   -0.8544 C.ar    1  LIG1        0.0447
      2 C           0.6355    0.6068   -0.8952 C.ar    1  LIG1        0.1408
      3 C          -0.7506    0.7598   -0.6059 C.ar    1  LIG1        0.0180
      4 C          -1.2449   -0.5288   -0.3973 C.ar    1  LIG1        0.0730
      5 N          -0.2012   -1.4135   -0.5480 N.ar    1  LIG1       -0.3561
      6 H          -0.3222   -2.4108   -0.4552 H       1  LIG1        0.1655
      7 H           1.8919   -1.2559   -1.0127 H       1  LIG1        0.0844
      8 O           1.4373    1.6837   -1.1479 O.3     1  LIG1       -0.4933
      9 C           2.8012    1.3823   -1.3778 C.3     1  LIG1        0.0789
     10 H           3.3093    2.3322   -1.5529 H       1  LIG1        0.0660
     11 H           3.2527    0.8826   -0.5092 H       1  LIG1        0.0660
     12 H           2.9253    0.7370   -2.2588 H       1  LIG1        0.0660
     13 C          -1.4782    2.0695   -0.5301 C.3     1  LIG1       -0.0342
     14 H          -2.1720    2.1015    0.3182 H       1  LIG1        0.0279
     15 H          -2.0533    2.2926   -1.4406 H       1  LIG1        0.0279
     16 H          -0.7637    2.8871   -0.4042 H       1  LIG1        0.0279
     17 C          -2.5619   -1.0217   -0.0734 C.ar    1  LIG1        0.1062
     18 C          -2.9691   -2.2927    0.3156 C.ar    1  LIG1        0.1502
     19 C          -4.3843   -2.3219    0.4666 C.ar    1  LIG1        0.0187
     20 C          -4.8302   -1.0417    0.1506 C.ar    1  LIG1        0.0735
     21 N          -3.7147   -0.2613   -0.1421 N.ar    1  LIG1       -0.3486
     22 H          -3.7716    0.6003   -0.6624 H       1  LIG1        0.1661
     23 O          -2.1051   -3.3574    0.4990 O.3     1  LIG1       -0.4927
     24 C          -1.7952   -3.6247    1.8713 C.3     1  LIG1        0.0789
     25 H          -1.1200   -4.4837    1.8791 H       1  LIG1        0.0660
     26 H          -1.3010   -2.7639    2.3382 H       1  LIG1        0.0660
     27 H          -2.6976   -3.8713    2.4418 H       1  LIG1        0.0660
     28 C          -5.1929   -3.4947    0.9363 C.3     1  LIG1       -0.0341
     29 H          -5.2979   -3.5074    2.0296 H       1  LIG1        0.0279
     30 H          -4.7032   -4.4296    0.6458 H       1  LIG1        0.0279
     31 H          -6.1976   -3.4792    0.5092 H       1  LIG1        0.0279
     32 C          -6.1528   -0.4480    0.1427 C.ar    1  LIG1        0.1062
     33 C          -7.3968   -0.9084   -0.2824 C.ar    1  LIG1        0.1502
     34 C          -8.3715    0.1102   -0.0948 C.ar    1  LIG1        0.0187
     35 C          -7.7002    1.2056    0.4405 C.ar    1  LIG1        0.0735
     36 N          -6.3681    0.8493    0.5744 N.ar    1  LIG1       -0.3486
     37 H          -5.6475    1.4570    0.9301 H       1  LIG1        0.1661
     38 O          -7.6709   -2.1624   -0.7785 O.3     1  LIG1       -0.4927
     39 C          -7.3663   -2.3203   -2.1664 C.3     1  LIG1        0.0789
     40 H          -7.6619   -3.3365   -2.4375 H       1  LIG1        0.0660
     41 H          -7.9269   -1.6024   -2.7780 H       1  LIG1        0.0660
     42 H          -6.2940   -2.1917   -2.3548 H       1  LIG1        0.0660
     43 C          -9.8327   -0.0189   -0.3939 C.3     1  LIG1       -0.0341
     44 H         -10.1088   -1.0749   -0.4589 H       1  LIG1        0.0279
     45 H         -10.1014    0.4606   -1.3417 H       1  LIG1        0.0279
     46 H         -10.4406    0.4483    0.3885 H       1  LIG1        0.0279
     47 C          -8.1612    2.5071    0.8844 C.ar    1  LIG1        0.1057
     48 C          -9.0303    3.4370    0.3267 C.ar    1  LIG1        0.1495
     49 C          -9.0508    4.6090    1.1523 C.ar    1  LIG1        0.0092
     50 C          -8.1912    4.3516    2.1992 C.ar    1  LIG1        0.0087
     51 N          -7.6346    3.1074    2.0221 N.ar    1  LIG1       -0.3563
     52 H          -7.1449    2.5943    2.7377 H       1  LIG1        0.1655
     53 H          -7.9233    4.9703    3.0434 H       1  LIG1        0.0811
     54 O          -9.6338    3.2719   -0.8955 O.3     1  LIG1       -0.4927
     55 C         -11.0570    3.3553   -0.8969 C.3     1  LIG1        0.0789
     56 H         -11.3797    3.1016   -1.9091 H       1  LIG1        0.0660
     57 H         -11.4995    2.6458   -0.1868 H       1  LIG1        0.0660
     58 H         -11.4113    4.3643   -0.6568 H       1  LIG1        0.0660
     59 C          -9.7886    5.8918    0.9030 C.3     1  LIG1       -0.0348
     60 H         -10.8639    5.8046    1.1026 H       1  LIG1        0.0279
     61 H          -9.6780    6.2184   -0.1369 H       1  LIG1        0.0279
     62 H          -9.4041    6.6909    1.5437 H       1  LIG1        0.0279
@<TRIPOS>BOND
     1    41    39    1
     2    40    39    1
     3    42    39    1
     4    12     9    1
     5    39    38    1
     6    56    55    1
     7    10     9    1
     8    15    13    1
     9     9     8    1
    10     9    11    1
    11    45    43    1
    12     8     2    1
    13     7     1    1
    14    55    54    1
    15    55    58    1
    16    55    57    1
    17    54    48    1
    18     2     1   ar
    19     2     3   ar
    20     1     5   ar
    21    38    33    1
    22    22    21    1
    23     3    13    1
    24     3     4   ar
    25     5     6    1
    26     5     4   ar
    27    13    16    1
    28    13    14    1
    29    44    43    1
    30     4    17    1
    31    43    34    1
    32    43    46    1
    33    33    34   ar
    34    33    32   ar
    35    21    17   ar
    36    21    20   ar
    37    61    59    1
    38    34    35   ar
    39    17    18   ar
    40    32    20    1
    41    32    36   ar
    42    20    19   ar
    43    18    19   ar
    44    18    23    1
    45    48    47   ar
    46    48    49   ar
    47    35    36   ar
    48    35    47    1
    49    19    28    1
    50    23    24    1
    51    31    28    1
    52    36    37    1
    53    30    28    1
    54    47    51   ar
    55    59    60    1
    56    59    49    1
    57    59    62    1
    58    28    29    1
    59    49    50   ar
    60    24    25    1
    61    24    26    1
    62    24    27    1
    63    51    50   ar
    64    51    52    1
    65    50    53    1
