@<TRIPOS>MOLECULE
mol_data/opt/b3lyp/geoms/mol2/13li13li13li13li-.out
 62 65 0 0 0
SMALL
GASTEIGER

@<TRIPOS>ATOM
      1 C           0.5749    1.5699   -1.1494 C.ar    1  LIG1        0.0447
      2 C           1.1322    0.7065   -0.2225 C.ar    1  LIG1        0.1408
      3 C           0.1877   -0.3125    0.0908 C.ar    1  LIG1        0.0180
      4 C          -0.9458   -0.0364   -0.6760 C.ar    1  LIG1        0.0730
      5 N          -0.6951    1.1011   -1.4083 N.ar    1  LIG1       -0.3561
      6 H          -1.3594    1.4684   -2.0731 H       1  LIG1        0.1655
      7 H           0.9621    2.4525   -1.6309 H       1  LIG1        0.0844
      8 O           2.3664    0.7450    0.3628 O.3     1  LIG1       -0.4933
      9 C           3.1899    1.8262   -0.0326 C.3     1  LIG1        0.0789
     10 H           4.1284    1.7254    0.5153 H       1  LIG1        0.0660
     11 H           3.3952    1.7989   -1.1120 H       1  LIG1        0.0660
     12 H           2.7273    2.7925    0.2133 H       1  LIG1        0.0660
     13 C           0.4144   -1.4271    1.0693 C.3     1  LIG1       -0.0342
     14 H          -0.3925   -1.5010    1.8106 H       1  LIG1        0.0279
     15 H           1.3425   -1.2545    1.6196 H       1  LIG1        0.0279
     16 H           0.5121   -2.4075    0.5812 H       1  LIG1        0.0279
     17 C          -2.2199   -0.7032   -0.7977 C.ar    1  LIG1        0.1062
     18 C          -3.3770   -0.3089   -1.4635 C.ar    1  LIG1        0.1502
     19 C          -4.3745   -1.3136   -1.3327 C.ar    1  LIG1        0.0187
     20 C          -3.8037   -2.3221   -0.5571 C.ar    1  LIG1        0.0735
     21 N          -2.5013   -1.9455   -0.2657 N.ar    1  LIG1       -0.3486
     22 H          -1.9002   -2.4388    0.3734 H       1  LIG1        0.1661
     23 O          -3.4771    0.8580   -2.2006 O.3     1  LIG1       -0.4927
     24 C          -4.3011    1.8587   -1.5936 C.3     1  LIG1        0.0789
     25 H          -4.2989    2.7182   -2.2682 H       1  LIG1        0.0660
     26 H          -5.3304    1.5049   -1.4674 H       1  LIG1        0.0660
     27 H          -3.9043    2.1569   -0.6153 H       1  LIG1        0.0660
     28 C          -5.7210   -1.3191   -1.9906 C.3     1  LIG1       -0.0341
     29 H          -6.5024   -0.8715   -1.3638 H       1  LIG1        0.0279
     30 H          -6.0436   -2.3398   -2.2107 H       1  LIG1        0.0279
     31 H          -5.6849   -0.7552   -2.9282 H       1  LIG1        0.0279
     32 C          -4.3197   -3.6032   -0.1280 C.ar    1  LIG1        0.1062
     33 C          -5.5798   -4.0071    0.3109 C.ar    1  LIG1        0.1502
     34 C          -5.5475   -5.3940    0.6249 C.ar    1  LIG1        0.0187
     35 C          -4.2432   -5.8214    0.3741 C.ar    1  LIG1        0.0735
     36 N          -3.5166   -4.7282   -0.0517 N.ar    1  LIG1       -0.3486
     37 H          -2.5972   -4.8298   -0.4593 H       1  LIG1        0.1661
     38 O          -6.6998   -3.2221    0.4493 O.3     1  LIG1       -0.4927
     39 C          -6.6287   -2.2725    1.5145 C.3     1  LIG1        0.0789
     40 H          -7.5998   -1.7731    1.5508 H       1  LIG1        0.0660
     41 H          -6.4388   -2.7683    2.4751 H       1  LIG1        0.0660
     42 H          -5.8441   -1.5285    1.3348 H       1  LIG1        0.0660
     43 C          -6.7147   -6.1870    1.1326 C.3     1  LIG1       -0.0341
     44 H          -6.4960   -6.6949    2.0809 H       1  LIG1        0.0279
     45 H          -7.0503   -6.9478    0.4137 H       1  LIG1        0.0279
     46 H          -7.5635   -5.5199    1.3022 H       1  LIG1        0.0279
     47 C          -3.6061   -7.1123    0.4696 C.ar    1  LIG1        0.1057
     48 C          -2.2754   -7.4695    0.2656 C.ar    1  LIG1        0.1495
     49 C          -2.1334   -8.8788    0.4238 C.ar    1  LIG1        0.0092
     50 C          -3.3964   -9.3491    0.7270 C.ar    1  LIG1        0.0087
     51 N          -4.2706   -8.2880    0.7566 N.ar    1  LIG1       -0.3563
     52 H          -5.2631   -8.3567    0.9050 H       1  LIG1        0.1655
     53 H          -3.7354  -10.3566    0.9170 H       1  LIG1        0.0811
     54 O          -1.2858   -6.5726   -0.0976 O.3     1  LIG1       -0.4927
     55 C          -0.3779   -6.2441    0.9584 C.3     1  LIG1        0.0789
     56 H           0.3395   -5.5306    0.5454 H       1  LIG1        0.0660
     57 H          -0.9055   -5.7901    1.8066 H       1  LIG1        0.0660
     58 H           0.1632   -7.1293    1.3112 H       1  LIG1        0.0660
     59 C          -0.8763   -9.6818    0.2699 C.3     1  LIG1       -0.0348
     60 H          -0.2094   -9.5860    1.1364 H       1  LIG1        0.0279
     61 H          -0.3096   -9.3584   -0.6097 H       1  LIG1        0.0279
     62 H          -1.1015  -10.7456    0.1509 H       1  LIG1        0.0279
@<TRIPOS>BOND
     1    31    28    1
     2    25    24    1
     3    30    28    1
     4    23    24    1
     5    23    18    1
     6     6     5    1
     7    28    29    1
     8    28    19    1
     9     7     1    1
    10    24    26    1
    11    24    27    1
    12    18    19   ar
    13    18    17   ar
    14     5     1   ar
    15     5     4   ar
    16    19    20   ar
    17     1     2   ar
    18    11     9    1
    19    17     4    1
    20    17    21   ar
    21     4     3   ar
    22    61    59    1
    23    20    21   ar
    24    20    32    1
    25    37    36    1
    26    21    22    1
    27     2     3   ar
    28     2     8    1
    29    32    36   ar
    30    32    33   ar
    31    54    48    1
    32    54    55    1
    33    36    35   ar
    34     9    12    1
    35     9     8    1
    36     9    10    1
    37     3    13    1
    38    62    59    1
    39    48    49   ar
    40    48    47   ar
    41    59    49    1
    42    59    60    1
    43    33    38    1
    44    33    34   ar
    45    35    47    1
    46    35    34   ar
    47    45    43    1
    48    49    50   ar
    49    38    39    1
    50    47    51   ar
    51    56    55    1
    52    16    13    1
    53    34    43    1
    54    50    51   ar
    55    50    53    1
    56    51    52    1
    57    55    58    1
    58    55    57    1
    59    13    15    1
    60    13    14    1
    61    43    46    1
    62    43    44    1
    63    42    39    1
    64    39    40    1
    65    39    41    1
