@<TRIPOS>MOLECULE
mol_data/opt/b3lyp/geoms/mol2/13ll6de4lf-6li-.out
 61 64 0 0 0
SMALL
GASTEIGER

@<TRIPOS>ATOM
      1 C           1.3832    0.1471    1.0521 C.ar    1  LIG1        0.0481
      2 C           1.0816    1.1032    0.0964 C.ar    1  LIG1        0.1794
      3 C          -0.2543    0.8716   -0.3271 C.ar    1  LIG1        0.1869
      4 C          -0.7493   -0.2362    0.3813 C.ar    1  LIG1        0.0952
      5 N           0.2818   -0.6507    1.2062 N.ar    1  LIG1       -0.3546
      6 H           0.2332   -1.4295    1.8452 H       1  LIG1        0.1656
      7 H           2.2849   -0.0317    1.6148 H       1  LIG1        0.0845
      8 O           1.8546    2.1071   -0.4071 O.3     1  LIG1       -0.4900
      9 C           3.1678    2.1881    0.1264 C.3     1  LIG1        0.0790
     10 H           3.6551    3.0270   -0.3720 H       1  LIG1        0.0660
     11 H           3.1481    2.3687    1.2097 H       1  LIG1        0.0660
     12 H           3.7339    1.2683   -0.0722 H       1  LIG1        0.0660
     13 O          -0.9335    1.5634   -1.2891 O.3     1  LIG1       -0.4895
     14 C          -1.0331    2.9786   -1.0755 C.3     1  LIG1        0.0791
     15 H          -1.6153    3.3695   -1.9118 H       1  LIG1        0.0660
     16 H          -1.5534    3.1930   -0.1342 H       1  LIG1        0.0660
     17 H          -0.0446    3.4446   -1.0614 H       1  LIG1        0.0660
     18 C          -2.5403   -1.8827    1.1790 C.ar    1  LIG1        0.1500
     19 C          -2.0561   -0.8724    0.3059 C.ar    1  LIG1        0.0390
     20 C          -2.9594   -0.5099   -0.7146 C.ar    1  LIG1       -0.0323
     21 C          -4.2327   -1.0714   -0.8043 C.ar    1  LIG1        0.0514
     22 C          -4.6295   -2.0249    0.1800 C.ar    1  LIG1        0.0914
     23 N          -3.7686   -2.4230    1.1139 N.ar    1  LIG1       -0.2343
     24 H          -2.6470    0.2107   -1.4579 H       1  LIG1        0.0638
     25 N          -1.0444   -2.8661    3.0706 N.1     1  LIG1       -0.1893
     26 C          -1.7313   -2.4326    2.2357 C.1     1  LIG1        0.1198
     27 C          -5.0532   -0.7321   -1.9219 C.1     1  LIG1       -0.0675
     28 C          -5.6901   -0.4433   -2.9091 C.1     1  LIG1       -0.1138
     29 H          -6.2645   -0.2012   -3.7731 H       1  LIG1        0.1232
     30 C          -7.1663   -1.9565    0.1824 C.ar    1  LIG1        0.1301
     31 C          -8.3840   -2.6409    0.1815 C.ar    1  LIG1       -0.0079
     32 C          -5.9610   -2.6850    0.1920 C.ar    1  LIG1        0.0467
     33 C          -8.4445   -4.0415    0.2118 C.ar    1  LIG1        0.0321
     34 H          -9.3186   -2.0945    0.1496 H       1  LIG1        0.0661
     35 C          -6.0238   -4.0796    0.2701 C.ar    1  LIG1       -0.0068
     36 C          -7.2393   -4.7615    0.2803 C.ar    1  LIG1        0.1256
     37 H          -5.0903   -4.6332    0.3300 H       1  LIG1        0.0662
     38 O          -7.0547   -0.5936    0.2151 O.3     1  LIG1       -0.4944
     39 C          -8.2301    0.1838    0.0708 C.3     1  LIG1        0.0788
     40 H          -7.9038    1.2248    0.0707 H       1  LIG1        0.0660
     41 H          -8.7460   -0.0341   -0.8730 H       1  LIG1        0.0660
     42 H          -8.9264    0.0264    0.9049 H       1  LIG1        0.0660
     43 O          -7.3079   -6.1238    0.3819 O.3     1  LIG1       -0.5061
     44 H          -6.4105   -6.4797    0.4098 H       1  LIG1        0.2922
     45 C         -10.1563   -5.6465   -0.7775 C.ar    1  LIG1        0.2225
     46 C          -9.7637   -4.7241    0.2275 C.ar    1  LIG1        0.0475
     47 C         -10.7016   -4.4638    1.2205 C.ar    1  LIG1       -0.0445
     48 C         -11.9537   -5.1023    1.2339 C.ar    1  LIG1       -0.0315
     49 C         -12.1946   -6.0027    0.2023 C.ar    1  LIG1        0.0343
     50 N         -11.3252   -6.2696   -0.7863 N.ar    1  LIG1       -0.2206
     51 H         -10.4421   -3.7647    2.0120 H       1  LIG1        0.0628
     52 H         -13.1395   -6.5432    0.1583 H       1  LIG1        0.0833
     53 O          -9.2841   -5.8647   -1.7861 O.3     1  LIG1       -0.4792
     54 C          -9.6621   -6.8225   -2.7755 C.3     1  LIG1        0.0804
     55 H          -8.8279   -6.8558   -3.4777 H       1  LIG1        0.0660
     56 H          -9.8233   -7.8083   -2.3296 H       1  LIG1        0.0660
     57 H         -10.5800   -6.5220   -3.2892 H       1  LIG1        0.0660
     58 C         -12.9709   -4.8373    2.3151 C.3     1  LIG1       -0.0383
     59 H         -13.8744   -5.4339    2.1603 H       1  LIG1        0.0278
     60 H         -13.2701   -3.7828    2.3394 H       1  LIG1        0.0278
     61 H         -12.5769   -5.0830    3.3080 H       1  LIG1        0.0278
@<TRIPOS>BOND
     1    29    28    1
     2    55    54    1
     3    57    54    1
     4    28    27    3
     5    54    56    1
     6    54    53    1
     7    27    21    1
     8    15    14    1
     9    53    45    1
    10    24    20    1
    11    13    14    1
    12    13     3    1
    13    14    17    1
    14    14    16    1
    15    41    39    1
    16    21    20   ar
    17    21    22   ar
    18    50    45   ar
    19    50    49   ar
    20    45    46   ar
    21    20    19   ar
    22     8     2    1
    23     8     9    1
    24    10     9    1
    25     3     2   ar
    26     3     4   ar
    27    12     9    1
    28    40    39    1
    29    39    38    1
    30    39    42    1
    31     2     1   ar
    32     9    11    1
    33    34    31    1
    34    52    49    1
    35    22    32    1
    36    22    23   ar
    37    31    30   ar
    38    31    33   ar
    39    30    32   ar
    40    30    38    1
    41    32    35   ar
    42    49    48   ar
    43    33    46    1
    44    33    36   ar
    45    46    47   ar
    46    35    36   ar
    47    35    37    1
    48    36    43    1
    49    19     4    1
    50    19    18   ar
    51     4     5   ar
    52    43    44    1
    53     1     5   ar
    54     1     7    1
    55    23    18   ar
    56    18    26    1
    57     5     6    1
    58    47    48   ar
    59    47    51    1
    60    48    58    1
    61    59    58    1
    62    26    25    3
    63    58    60    1
    64    58    61    1
