@<TRIPOS>MOLECULE
mol_data/opt/b3lyp/geoms/mol2/13ll13ll-13ll.out
 50 52 0 0 0
SMALL
GASTEIGER

@<TRIPOS>ATOM
      1 C           1.2802   -0.8206    0.2937 C.ar    1  LIG1        0.0482
      2 C           1.0181    0.5370    0.2077 C.ar    1  LIG1        0.1795
      3 C          -0.3942    0.6961    0.0969 C.ar    1  LIG1        0.1884
      4 C          -0.9631   -0.5721    0.1210 C.ar    1  LIG1        0.1126
      5 N           0.0669   -1.4762    0.2426 N.ar    1  LIG1       -0.3534
      6 H          -0.0919   -2.4674    0.3347 H       1  LIG1        0.1656
      7 H           2.2087   -1.3588    0.3881 H       1  LIG1        0.0845
      8 O           1.8831    1.5946    0.2119 O.3     1  LIG1       -0.4900
      9 C           3.2520    1.2521    0.3410 C.3     1  LIG1        0.0790
     10 H           3.8122    2.1885    0.3352 H       1  LIG1        0.0660
     11 H           3.4414    0.7204    1.2836 H       1  LIG1        0.0660
     12 H           3.5870    0.6218   -0.4946 H       1  LIG1        0.0660
     13 O          -1.1233    1.8608    0.0383 O.3     1  LIG1       -0.4895
     14 C          -0.7933    2.7150   -1.0633 C.3     1  LIG1        0.0791
     15 H          -1.4623    3.5755   -0.9965 H       1  LIG1        0.0660
     16 H           0.2466    3.0492   -1.0012 H       1  LIG1        0.0660
     17 H          -0.9531    2.2009   -2.0195 H       1  LIG1        0.0660
     18 C          -2.3427   -0.9743    0.0684 C.ar    1  LIG1        0.1131
     19 C          -2.9095   -2.2458    0.0290 C.ar    1  LIG1        0.1891
     20 C          -4.3209   -2.0889    0.0091 C.ar    1  LIG1        0.1891
     21 C          -4.5954   -0.7237    0.0288 C.ar    1  LIG1        0.1131
     22 N          -3.3830   -0.0723    0.0658 N.ar    1  LIG1       -0.3458
     23 H          -3.2683    0.9324    0.0862 H       1  LIG1        0.1662
     24 O          -2.1894   -3.4242    0.0461 O.3     1  LIG1       -0.4895
     25 C          -2.3401   -4.2017   -1.1506 C.3     1  LIG1        0.0791
     26 H          -1.7492   -5.1096   -1.0092 H       1  LIG1        0.0660
     27 H          -3.3893   -4.4677   -1.3156 H       1  LIG1        0.0660
     28 H          -1.9686   -3.6511   -2.0232 H       1  LIG1        0.0660
     29 O          -5.2819   -3.0791   -0.0531 O.3     1  LIG1       -0.4895
     30 C          -5.3102   -3.9193    1.1102 C.3     1  LIG1        0.0791
     31 H          -6.0842   -4.6698    0.9341 H       1  LIG1        0.0660
     32 H          -4.3450   -4.4140    1.2597 H       1  LIG1        0.0660
     33 H          -5.5570   -3.3370    2.0062 H       1  LIG1        0.0660
     34 C          -5.8539   -0.0280    0.0059 C.ar    1  LIG1        0.1126
     35 C          -6.1425    1.3279    0.1095 C.ar    1  LIG1        0.1884
     36 C          -7.5572    1.4798    0.0074 C.ar    1  LIG1        0.1795
     37 C          -8.0979    0.2185   -0.1544 C.ar    1  LIG1        0.0482
     38 N          -7.0581   -0.6814   -0.1505 N.ar    1  LIG1       -0.3534
     39 H          -7.1155   -1.6807   -0.2746 H       1  LIG1        0.1656
     40 H          -9.1267   -0.0882   -0.2572 H       1  LIG1        0.0845
     41 O          -5.1937    2.3183    0.2461 O.3     1  LIG1       -0.4895
     42 C          -5.2855    3.0363    1.4854 C.3     1  LIG1        0.0791
     43 H          -4.5008    3.7953    1.4628 H       1  LIG1        0.0660
     44 H          -6.2644    3.5155    1.5878 H       1  LIG1        0.0660
     45 H          -5.1220    2.3655    2.3374 H       1  LIG1        0.0660
     46 O          -8.2671    2.6518    0.1007 O.3     1  LIG1       -0.4900
     47 C          -8.0567    3.5368   -1.0027 C.3     1  LIG1        0.0790
     48 H          -8.6515    4.4310   -0.8025 H       1  LIG1        0.0660
     49 H          -7.0003    3.8127   -1.0987 H       1  LIG1        0.0660
     50 H          -8.3918    3.0786   -1.9421 H       1  LIG1        0.0660
@<TRIPOS>BOND
     1    28    25    1
     2    17    14    1
     3    50    47    1
     4    27    25    1
     5    25    26    1
     6    25    24    1
     7    49    47    1
     8    14    16    1
     9    14    15    1
    10    14    13    1
    11    47    48    1
    12    47    46    1
    13    12     9    1
    14    39    38    1
    15    40    37    1
    16    37    38   ar
    17    37    36   ar
    18    38    34   ar
    19    29    20    1
    20    29    30    1
    21    34    21    1
    22    34    35   ar
    23    36    46    1
    24    36    35   ar
    25    20    21   ar
    26    20    19   ar
    27    21    22   ar
    28    19    24    1
    29    19    18   ar
    30    13     3    1
    31    22    18   ar
    32    22    23    1
    33    18     4    1
    34     3     4   ar
    35     3     2   ar
    36    35    41    1
    37     4     5   ar
    38     2     8    1
    39     2     1   ar
    40     8     9    1
    41     5     1   ar
    42     5     6    1
    43    41    42    1
    44     1     7    1
    45    10     9    1
    46     9    11    1
    47    31    30    1
    48    30    32    1
    49    30    33    1
    50    43    42    1
    51    42    44    1
    52    42    45    1
