@<TRIPOS>MOLECULE
mol_data/opt/b3lyp/geoms/mol2/13ll13ll13ll13ll-.out
 66 69 0 0 0
SMALL
GASTEIGER

@<TRIPOS>ATOM
      1 C           1.4957   -0.3056    0.1779 C.ar    1  LIG1        0.0482
      2 C           1.2201    0.8843   -0.4678 C.ar    1  LIG1        0.1795
      3 C          -0.2002    1.0249   -0.5358 C.ar    1  LIG1        0.1884
      4 C          -0.7688   -0.0777    0.0898 C.ar    1  LIG1        0.1126
      5 N           0.2816   -0.8868    0.4925 N.ar    1  LIG1       -0.3534
      6 H           0.1638   -1.6548    1.1331 H       1  LIG1        0.1656
      7 H           2.4303   -0.7804    0.4275 H       1  LIG1        0.0845
      8 O           2.0710    1.8031   -1.0090 O.3     1  LIG1       -0.4900
      9 C           3.4501    1.5068   -0.8656 C.3     1  LIG1        0.0790
     10 H           3.9973    2.3229   -1.3396 H       1  LIG1        0.0660
     11 H           3.7352    1.4444    0.1935 H       1  LIG1        0.0660
     12 H           3.7084    0.5593   -1.3585 H       1  LIG1        0.0660
     13 O          -0.8965    2.0670   -1.0875 O.3     1  LIG1       -0.4895
     14 C          -0.7152    2.2310   -2.4972 C.3     1  LIG1        0.0791
     15 H          -1.3334    3.0823   -2.7893 H       1  LIG1        0.0660
     16 H           0.3323    2.4367   -2.7398 H       1  LIG1        0.0660
     17 H          -1.0471    1.3373   -3.0403 H       1  LIG1        0.0660
     18 C          -2.1440   -0.5075    0.2664 C.ar    1  LIG1        0.1131
     19 C          -3.3313    0.1027    0.6512 C.ar    1  LIG1        0.1891
     20 C          -4.3795   -0.8711    0.5493 C.ar    1  LIG1        0.1891
     21 C          -3.8272   -2.0635    0.1132 C.ar    1  LIG1        0.1131
     22 N          -2.4570   -1.8516   -0.0070 N.ar    1  LIG1       -0.3458
     23 H          -1.9251   -2.3444   -0.7120 H       1  LIG1        0.1662
     24 O          -3.6136    1.3415    1.1319 O.3     1  LIG1       -0.4895
     25 C          -2.5481    2.1170    1.6806 C.3     1  LIG1        0.0791
     26 H          -3.0268    2.9447    2.2083 H       1  LIG1        0.0660
     27 H          -1.9578    1.5259    2.3915 H       1  LIG1        0.0660
     28 H          -1.8980    2.5092    0.8960 H       1  LIG1        0.0660
     29 O          -5.6988   -0.6650    0.8344 O.3     1  LIG1       -0.4895
     30 C          -5.9903   -0.4456    2.2169 C.3     1  LIG1        0.0791
     31 H          -7.0717   -0.3105    2.2846 H       1  LIG1        0.0660
     32 H          -5.6955   -1.3131    2.8211 H       1  LIG1        0.0660
     33 H          -5.4839    0.4503    2.5899 H       1  LIG1        0.0660
     34 C          -4.3942   -3.3676   -0.1352 C.ar    1  LIG1        0.1131
     35 C          -5.6598   -3.8038   -0.5448 C.ar    1  LIG1        0.1891
     36 C          -5.6130   -5.2221   -0.6423 C.ar    1  LIG1        0.1891
     37 C          -4.3310   -5.6379   -0.3032 C.ar    1  LIG1        0.1131
     38 N          -3.6031   -4.5011   -0.0337 N.ar    1  LIG1       -0.3458
     39 H          -2.6742   -4.5422    0.3594 H       1  LIG1        0.1662
     40 O          -6.7855   -3.0696   -0.8021 O.3     1  LIG1       -0.4895
     41 C          -6.6831   -2.1412   -1.8845 C.3     1  LIG1        0.0791
     42 H          -7.6809   -1.7180   -2.0178 H       1  LIG1        0.0660
     43 H          -5.9823   -1.3338   -1.6548 H       1  LIG1        0.0660
     44 H          -6.3743   -2.6490   -2.8068 H       1  LIG1        0.0660
     45 O          -6.6013   -6.0829   -1.0619 O.3     1  LIG1       -0.4895
     46 C          -7.8335   -5.9772   -0.3358 C.3     1  LIG1        0.0791
     47 H          -8.5191   -6.6973   -0.7881 H       1  LIG1        0.0660
     48 H          -7.6858   -6.2267    0.7227 H       1  LIG1        0.0660
     49 H          -8.2463   -4.9686   -0.4164 H       1  LIG1        0.0660
     50 C          -3.7618   -6.9549   -0.2272 C.ar    1  LIG1        0.1126
     51 C          -2.5137   -7.3709    0.2234 C.ar    1  LIG1        0.1884
     52 C          -2.4471   -8.7855    0.0626 C.ar    1  LIG1        0.1795
     53 C          -3.6551   -9.2014   -0.4742 C.ar    1  LIG1        0.0482
     54 N          -4.4342   -8.0768   -0.6495 N.ar    1  LIG1       -0.3534
     55 H          -5.3620   -8.0305   -1.0423 H       1  LIG1        0.1656
     56 H          -4.0092  -10.1818   -0.7462 H       1  LIG1        0.0845
     57 O          -1.5401   -6.5104    0.6859 O.3     1  LIG1       -0.4895
     58 C          -1.0559   -6.8202    1.9982 C.3     1  LIG1        0.0791
     59 H          -0.3011   -6.0669    2.2360 H       1  LIG1        0.0660
     60 H          -1.8661   -6.7735    2.7370 H       1  LIG1        0.0660
     61 H          -0.6015   -7.8147    2.0227 H       1  LIG1        0.0660
     62 O          -1.3485   -9.5205    0.4106 O.3     1  LIG1       -0.4900
     63 C          -1.4607  -10.9150    0.1826 C.3     1  LIG1        0.0790
     64 H          -0.5180  -11.3624    0.5017 H       1  LIG1        0.0660
     65 H          -2.2861  -11.3495    0.7635 H       1  LIG1        0.0660
     66 H          -1.6245  -11.1314   -0.8818 H       1  LIG1        0.0660
@<TRIPOS>BOND
     1    17    14    1
     2    44    41    1
     3    15    14    1
     4    16    14    1
     5    14    13    1
     6    42    41    1
     7    41    43    1
     8    41    40    1
     9    12     9    1
    10    10     9    1
    11    13     3    1
    12    45    36    1
    13    45    46    1
    14    55    54    1
    15     8     9    1
    16     8     2    1
    17    66    63    1
    18     9    11    1
    19    40    35    1
    20    47    46    1
    21    56    53    1
    22    23    22    1
    23    54    53   ar
    24    54    50   ar
    25    36    35   ar
    26    36    37   ar
    27    35    34   ar
    28     3     2   ar
    29     3     4   ar
    30    53    52   ar
    31     2     1   ar
    32    49    46    1
    33    46    48    1
    34    37    50    1
    35    37    38   ar
    36    50    51   ar
    37    34    38   ar
    38    34    21    1
    39    38    39    1
    40    22    21   ar
    41    22    18   ar
    42    52    51   ar
    43    52    62    1
    44     4    18    1
    45     4     5   ar
    46    21    20   ar
    47     1     7    1
    48     1     5   ar
    49    63    62    1
    50    63    64    1
    51    63    65    1
    52    51    57    1
    53    18    19   ar
    54     5     6    1
    55    20    19   ar
    56    20    29    1
    57    19    24    1
    58    57    58    1
    59    29    30    1
    60    28    25    1
    61    24    25    1
    62    25    26    1
    63    25    27    1
    64    58    61    1
    65    58    59    1
    66    58    60    1
    67    30    31    1
    68    30    33    1
    69    30    32    1
