@<TRIPOS>MOLECULE
mol_data/opt/b3lyp/geoms/mol2/13ll13ll.out
 34 35 0 0 0
SMALL
GASTEIGER

@<TRIPOS>ATOM
      1 C           1.3059   -0.3459   -0.6093 C.ar    1  LIG1        0.0482
      2 C           1.0794    0.9685   -0.2524 C.ar    1  LIG1        0.1795
      3 C          -0.3115    1.1043    0.0529 C.ar    1  LIG1        0.1884
      4 C          -0.9122   -0.1310   -0.1404 C.ar    1  LIG1        0.1126
      5 N           0.0947   -1.0089   -0.5133 N.ar    1  LIG1       -0.3534
      6 H          -0.0979   -1.8976   -0.9474 H       1  LIG1        0.1656
      7 H           2.2066   -0.8575   -0.9064 H       1  LIG1        0.0845
      8 O           1.9563    2.0080   -0.1434 O.3     1  LIG1       -0.4900
      9 C           3.2999    1.7015   -0.4762 C.3     1  LIG1        0.0790
     10 H           3.8735    2.6200   -0.3434 H       1  LIG1        0.0660
     11 H           3.7054    0.9196    0.1809 H       1  LIG1        0.0660
     12 H           3.3848    1.3670   -1.5192 H       1  LIG1        0.0660
     13 O          -0.9653    2.2461    0.4303 O.3     1  LIG1       -0.4895
     14 C          -0.5251    2.8119    1.6679 C.3     1  LIG1        0.0791
     15 H          -1.1401    3.6984    1.8361 H       1  LIG1        0.0660
     16 H          -0.6721    2.1060    2.4952 H       1  LIG1        0.0660
     17 H           0.5298    3.1003    1.6191 H       1  LIG1        0.0660
     18 C          -2.2715   -0.6017    0.0640 C.ar    1  LIG1        0.1126
     19 C          -3.5376   -0.1324   -0.2736 C.ar    1  LIG1        0.1884
     20 C          -4.4994   -1.0513    0.2642 C.ar    1  LIG1        0.1795
     21 C          -3.8119   -2.0559    0.9030 C.ar    1  LIG1        0.0482
     22 N          -2.4674   -1.8140    0.7328 N.ar    1  LIG1       -0.3534
     23 H          -1.7498   -2.2119    1.3180 H       1  LIG1        0.1656
     24 H          -4.1811   -2.9347    1.4082 H       1  LIG1        0.0845
     25 O          -3.9479    0.9401   -1.0050 O.3     1  LIG1       -0.4895
     26 C          -3.0512    1.4814   -1.9725 C.3     1  LIG1        0.0791
     27 H          -3.6580    2.1246   -2.6138 H       1  LIG1        0.0660
     28 H          -2.2642    2.0742   -1.5003 H       1  LIG1        0.0660
     29 H          -2.6026    0.6852   -2.5790 H       1  LIG1        0.0660
     30 O          -5.8548   -1.0190    0.0852 O.3     1  LIG1       -0.4900
     31 C          -6.4960    0.1527    0.5934 C.3     1  LIG1        0.0790
     32 H          -7.5617    0.0330    0.3858 H       1  LIG1        0.0660
     33 H          -6.3462    0.2440    1.6776 H       1  LIG1        0.0660
     34 H          -6.1249    1.0566    0.1008 H       1  LIG1        0.0660
@<TRIPOS>BOND
     1    27    26    1
     2    29    26    1
     3    26    28    1
     4    26    25    1
     5    12     9    1
     6    25    19    1
     7     6     5    1
     8     7     1    1
     9     1     5   ar
    10     1     2   ar
    11     5     4   ar
    12     9    10    1
    13     9     8    1
    14     9    11    1
    15    19    18   ar
    16    19    20   ar
    17     2     8    1
    18     2     3   ar
    19     4     3   ar
    20     4    18    1
    21     3    13    1
    22    18    22   ar
    23    30    20    1
    24    30    31    1
    25    34    31    1
    26    20    21   ar
    27    32    31    1
    28    13    14    1
    29    31    33    1
    30    22    21   ar
    31    22    23    1
    32    21    24    1
    33    17    14    1
    34    14    15    1
    35    14    16    1
