@<TRIPOS>MOLECULE
mol_data/opt/b3lyp/geoms/mol2/13ll12fi-13ae-13ld.out
 52 55 0 0 0
SMALL
GASTEIGER

@<TRIPOS>ATOM
      1 C           1.1709   -0.5915    0.1726 C.ar    1  LIG1        0.0482
      2 C           0.8000    0.7154    0.4351 C.ar    1  LIG1        0.1795
      3 C          -0.6179    0.7881    0.3256 C.ar    1  LIG1        0.1900
      4 C          -1.0883   -0.4778   -0.0087 C.ar    1  LIG1        0.1317
      5 N           0.0120   -1.2990   -0.0919 N.ar    1  LIG1       -0.3521
      6 H          -0.0304   -2.2522   -0.4113 H       1  LIG1        0.1656
      7 H           2.1370   -1.0675    0.1576 H       1  LIG1        0.0845
      8 O           1.5645    1.7928    0.7705 O.3     1  LIG1       -0.4900
      9 C           2.9610    1.5472    0.8320 C.3     1  LIG1        0.0790
     10 H           3.4333    2.4930    1.1009 H       1  LIG1        0.0660
     11 H           3.1988    0.7907    1.5921 H       1  LIG1        0.0660
     12 H           3.3464    1.2100   -0.1394 H       1  LIG1        0.0660
     13 O          -1.4155    1.9055    0.4760 O.3     1  LIG1       -0.4894
     14 C          -1.3898    2.4837    1.7933 C.3     1  LIG1        0.0791
     15 H          -2.0660    3.3400    1.7665 H       1  LIG1        0.0660
     16 H          -1.7347    1.7598    2.5404 H       1  LIG1        0.0660
     17 H          -0.3782    2.8164    2.0392 H       1  LIG1        0.0660
     18 C          -2.4234   -0.9295   -0.2778 C.ar    1  LIG1        0.1969
     19 C          -3.6216   -0.2771   -0.4773 C.ar    1  LIG1        0.1679
     20 C          -4.6213   -1.2677   -0.7303 C.ar    1  LIG1        0.0389
     21 C          -3.9659   -2.4769   -0.6820 C.ar    1  LIG1        0.1584
     22 O          -2.6309   -2.2901   -0.4027 O.2     1  LIG1       -0.4477
     23 O          -3.8828    1.0481   -0.4613 O.3     1  LIG1       -0.5030
     24 H          -3.0672    1.5224   -0.1938 H       1  LIG1        0.2923
     25 C          -6.0713   -0.9964   -0.9838 C.3     1  LIG1       -0.0325
     26 H          -6.7113   -1.6904   -0.4284 H       1  LIG1        0.0280
     27 H          -6.3263   -1.0908   -2.0465 H       1  LIG1        0.0280
     28 H          -6.3189    0.0221   -0.6760 H       1  LIG1        0.0280
     29 C          -4.3881   -3.8409   -0.8398 C.ar    1  LIG1        0.0842
     30 C          -5.5806   -4.3981   -1.2811 C.ar    1  LIG1       -0.0173
     31 C          -5.4396   -5.8171   -1.2342 C.ar    1  LIG1        0.0521
     32 C          -4.1452   -6.0895   -0.7596 C.ar    1  LIG1        0.0826
     33 N          -3.5376   -4.8844   -0.5321 N.ar    1  LIG1       -0.3495
     34 H          -2.5924   -4.7964   -0.1876 H       1  LIG1        0.1661
     35 H          -6.4526   -3.8622   -1.6209 H       1  LIG1        0.0652
     36 C          -6.4066   -6.7861   -1.6011 C.1     1  LIG1       -0.0675
     37 C          -7.2205   -7.6303   -1.9145 C.1     1  LIG1       -0.1138
     38 H          -7.9657   -8.3384   -2.1946 H       1  LIG1        0.1232
     39 C          -3.4629   -7.3307   -0.5115 C.ar    1  LIG1        0.1076
     40 C          -2.2031   -7.5661    0.0255 C.ar    1  LIG1        0.1640
     41 C          -1.9920   -8.9854    0.0443 C.ar    1  LIG1        0.1112
     42 C          -3.1449   -9.5641   -0.4818 C.ar    1  LIG1        0.0233
     43 N          -4.0040   -8.5689   -0.8137 N.ar    1  LIG1       -0.3553
     44 H          -4.9289   -8.6796   -1.2096 H       1  LIG1        0.1655
     45 H          -3.3824  -10.6052   -0.6335 H       1  LIG1        0.0821
     46 O          -1.3508   -6.5600    0.3884 O.3     1  LIG1       -0.4916
     47 C          -0.7606   -6.6753    1.6944 C.3     1  LIG1        0.0789
     48 H          -0.1860   -5.7604    1.8472 H       1  LIG1        0.0660
     49 H          -1.5362   -6.7576    2.4640 H       1  LIG1        0.0660
     50 H          -0.0918   -7.5377    1.7529 H       1  LIG1        0.0660
     51 N           0.1137  -10.2577    0.8293 N.1     1  LIG1       -0.1907
     52 C          -0.8396   -9.6903    0.4728 C.1     1  LIG1        0.1044
@<TRIPOS>BOND
     1    38    37    1
     2    27    25    1
     3    37    36    3
     4    35    30    1
     5    36    31    1
     6    30    31   ar
     7    30    29   ar
     8    31    32   ar
     9    44    43    1
    10    25    20    1
    11    25    28    1
    12    25    26    1
    13    29    21    1
    14    29    33   ar
    15    43    39   ar
    16    43    42   ar
    17    32    33   ar
    18    32    39    1
    19    20    21   ar
    20    20    19   ar
    21    21    22   ar
    22    45    42    1
    23    33    34    1
    24    39    40   ar
    25    42    41   ar
    26    19    23    1
    27    19    18   ar
    28    23    24    1
    29     6     5    1
    30    22    18   ar
    31    18     4    1
    32    12     9    1
    33     5     4   ar
    34     5     1   ar
    35     4     3   ar
    36    40    41   ar
    37    40    46    1
    38    41    52    1
    39     7     1    1
    40     1     2   ar
    41     3     2   ar
    42     3    13    1
    43    46    47    1
    44     2     8    1
    45    52    51    3
    46    13    14    1
    47     8     9    1
    48     9    10    1
    49     9    11    1
    50    47    50    1
    51    47    48    1
    52    47    49    1
    53    15    14    1
    54    14    17    1
    55    14    16    1
