@<TRIPOS>MOLECULE
mol_data/opt/b3lyp/geoms/mol2/13ll13ll-13ll-13ll.out
 66 69 0 0 0
SMALL
GASTEIGER

@<TRIPOS>ATOM
      1 C           1.1124   -0.6847   -0.0536 C.ar    1  LIG1        0.0482
      2 C           0.7752    0.6152   -0.3959 C.ar    1  LIG1        0.1795
      3 C          -0.6472    0.6895   -0.4484 C.ar    1  LIG1        0.1884
      4 C          -1.1453   -0.5689   -0.1289 C.ar    1  LIG1        0.1126
      5 N          -0.0648   -1.3845    0.1104 N.ar    1  LIG1       -0.3534
      6 H          -0.1690   -2.3472    0.3916 H       1  LIG1        0.1656
      7 H           2.0721   -1.1528    0.0899 H       1  LIG1        0.0845
      8 O           1.5847    1.6847   -0.6579 O.3     1  LIG1       -0.4900
      9 C           2.9748    1.4264   -0.5574 C.3     1  LIG1        0.0790
     10 H           3.4856    2.3627   -0.7873 H       1  LIG1        0.0660
     11 H           3.2463    1.1029    0.4567 H       1  LIG1        0.0660
     12 H           3.2901    0.6536   -1.2721 H       1  LIG1        0.0660
     13 O          -1.4471    1.7821   -0.7040 O.3     1  LIG1       -0.4895
     14 C          -1.1808    2.4381   -1.9504 C.3     1  LIG1        0.0791
     15 H          -1.8878    3.2677   -2.0189 H       1  LIG1        0.0660
     16 H          -0.1574    2.8222   -1.9784 H       1  LIG1        0.0660
     17 H          -1.3346    1.7532   -2.7940 H       1  LIG1        0.0660
     18 C          -2.5025   -1.0268   -0.0177 C.ar    1  LIG1        0.1131
     19 C          -3.0167   -2.2985    0.2029 C.ar    1  LIG1        0.1891
     20 C          -4.4352   -2.2032    0.2106 C.ar    1  LIG1        0.1891
     21 C          -4.7748   -0.8641   -0.0149 C.ar    1  LIG1        0.1131
     22 N          -3.5796   -0.1728   -0.1195 N.ar    1  LIG1       -0.3458
     23 H          -3.4605    0.7899   -0.4014 H       1  LIG1        0.1662
     24 O          -2.2313   -3.4045    0.4361 O.3     1  LIG1       -0.4895
     25 C          -2.5051   -4.5217   -0.4201 C.3     1  LIG1        0.0791
     26 H          -1.8282   -5.3206   -0.1090 H       1  LIG1        0.0660
     27 H          -3.5420   -4.8498   -0.3117 H       1  LIG1        0.0660
     28 H          -2.3123   -4.2662   -1.4699 H       1  LIG1        0.0660
     29 O          -5.2820   -3.2692    0.3829 O.3     1  LIG1       -0.4895
     30 C          -5.9805   -3.2854    1.6321 C.3     1  LIG1        0.0791
     31 H          -6.5678   -4.2059    1.6432 H       1  LIG1        0.0660
     32 H          -5.2765   -3.2880    2.4732 H       1  LIG1        0.0660
     33 H          -6.6553   -2.4286    1.7198 H       1  LIG1        0.0660
     34 C          -6.0447   -0.1806   -0.0734 C.ar    1  LIG1        0.1131
     35 C          -7.3332   -0.6111   -0.4103 C.ar    1  LIG1        0.1891
     36 C          -8.2025    0.5109   -0.3231 C.ar    1  LIG1        0.1891
     37 C          -7.4450    1.6124    0.0550 C.ar    1  LIG1        0.1131
     38 N          -6.1418    1.1788    0.1734 N.ar    1  LIG1       -0.3458
     39 H          -5.4205    1.7746    0.5537 H       1  LIG1        0.1662
     40 O          -7.7390   -1.8796   -0.7402 O.3     1  LIG1       -0.4895
     41 C          -7.2915   -2.3405   -2.0191 C.3     1  LIG1        0.0791
     42 H          -7.7317   -3.3298   -2.1597 H       1  LIG1        0.0660
     43 H          -7.6321   -1.6695   -2.8172 H       1  LIG1        0.0660
     44 H          -6.2013   -2.4259   -2.0503 H       1  LIG1        0.0660
     45 O          -9.5462    0.5785   -0.6136 O.3     1  LIG1       -0.4895
     46 C         -10.3604   -0.3566    0.1072 C.3     1  LIG1        0.0791
     47 H         -11.3852   -0.2008   -0.2370 H       1  LIG1        0.0660
     48 H         -10.0503   -1.3836   -0.1015 H       1  LIG1        0.0660
     49 H         -10.3045   -0.1719    1.1875 H       1  LIG1        0.0660
     50 C          -7.8270    2.9760    0.2975 C.ar    1  LIG1        0.1126
     51 C          -7.0853    4.0496    0.7772 C.ar    1  LIG1        0.1884
     52 C          -7.9433    5.1883    0.8123 C.ar    1  LIG1        0.1795
     53 C          -9.1853    4.7832    0.3598 C.ar    1  LIG1        0.0482
     54 N          -9.0990    3.4463    0.0530 N.ar    1  LIG1       -0.3534
     55 H          -9.8276    2.8521   -0.3131 H       1  LIG1        0.1656
     56 H         -10.0997    5.3439    0.2486 H       1  LIG1        0.0845
     57 O          -5.7483    3.9783    1.1136 O.3     1  LIG1       -0.4895
     58 C          -5.4804    4.3046    2.4863 C.3     1  LIG1        0.0791
     59 H          -4.3971    4.2484    2.6123 H       1  LIG1        0.0660
     60 H          -5.8306    5.3138    2.7232 H       1  LIG1        0.0660
     61 H          -5.9681    3.5886    3.1590 H       1  LIG1        0.0660
     62 O          -7.6213    6.4483    1.2549 O.3     1  LIG1       -0.4900
     63 C          -6.7175    7.1435    0.3916 C.3     1  LIG1        0.0790
     64 H          -6.5304    8.1153    0.8540 H       1  LIG1        0.0660
     65 H          -5.7708    6.6015    0.2827 H       1  LIG1        0.0660
     66 H          -7.1596    7.2906   -0.6020 H       1  LIG1        0.0660
@<TRIPOS>BOND
     1    43    41    1
     2    17    14    1
     3    42    41    1
     4    44    41    1
     5    41    40    1
     6    15    14    1
     7    16    14    1
     8    14    13    1
     9    28    25    1
    10    12     9    1
    11    10     9    1
    12    40    35    1
    13    13     3    1
    14     8     9    1
    15     8     2    1
    16    45    36    1
    17    45    46    1
    18    66    63    1
    19     9    11    1
    20     3     2   ar
    21     3     4   ar
    22    25    27    1
    23    25    26    1
    24    25    24    1
    25    35    36   ar
    26    35    34   ar
    27    23    22    1
    28     2     1   ar
    29    36    37   ar
    30    55    54    1
    31    47    46    1
    32     4    18    1
    33     4     5   ar
    34    22    18   ar
    35    22    21   ar
    36    48    46    1
    37    34    21    1
    38    34    38   ar
    39     1     7    1
    40     1     5   ar
    41    18    19   ar
    42    21    20   ar
    43    54    50   ar
    44    54    53   ar
    45    37    38   ar
    46    37    50    1
    47    46    49    1
    48     5     6    1
    49    38    39    1
    50    19    20   ar
    51    19    24    1
    52    20    29    1
    53    56    53    1
    54    65    63    1
    55    50    51   ar
    56    53    52   ar
    57    29    30    1
    58    63    64    1
    59    63    62    1
    60    51    52   ar
    61    51    57    1
    62    52    62    1
    63    57    58    1
    64    30    31    1
    65    30    33    1
    66    30    32    1
    67    58    59    1
    68    58    60    1
    69    58    61    1
