@<TRIPOS>MOLECULE
mol_data/opt/b3lyp/geoms/mol2/13ll13ll13ll-13ll.out
 66 69 0 0 0
SMALL
GASTEIGER

@<TRIPOS>ATOM
      1 C           1.3995   -0.1896   -1.1204 C.ar    1  LIG1        0.0482
      2 C           1.2600    0.8866   -0.2683 C.ar    1  LIG1        0.1795
      3 C          -0.1034    0.9301    0.1634 C.ar    1  LIG1        0.1884
      4 C          -0.7753   -0.1211   -0.4452 C.ar    1  LIG1        0.1126
      5 N           0.1634   -0.8136   -1.1972 N.ar    1  LIG1       -0.3534
      6 H          -0.1014   -1.4245   -1.9542 H       1  LIG1        0.1656
      7 H           2.2542   -0.5681   -1.6566 H       1  LIG1        0.0845
      8 O           2.1909    1.7787    0.1756 O.3     1  LIG1       -0.4900
      9 C           3.4957    1.6007   -0.3491 C.3     1  LIG1        0.0790
     10 H           4.1181    2.3850    0.0844 H       1  LIG1        0.0660
     11 H           3.9053    0.6179   -0.0771 H       1  LIG1        0.0660
     12 H           3.5002    1.6955   -1.4436 H       1  LIG1        0.0660
     13 O          -0.6681    1.8487    1.0047 O.3     1  LIG1       -0.4895
     14 C          -0.1746    1.8138    2.3465 C.3     1  LIG1        0.0791
     15 H          -0.7183    2.5864    2.8942 H       1  LIG1        0.0660
     16 H          -0.3672    0.8376    2.8088 H       1  LIG1        0.0660
     17 H           0.8992    2.0271    2.3790 H       1  LIG1        0.0660
     18 C          -2.1407   -0.5904   -0.3472 C.ar    1  LIG1        0.1131
     19 C          -3.3795    0.0460   -0.2088 C.ar    1  LIG1        0.1891
     20 C          -4.3787   -0.9681   -0.1624 C.ar    1  LIG1        0.1891
     21 C          -3.7478   -2.2037   -0.2704 C.ar    1  LIG1        0.1131
     22 N          -2.4017   -1.9524   -0.4041 N.ar    1  LIG1       -0.3458
     23 H          -1.7097   -2.6842   -0.3428 H       1  LIG1        0.1662
     24 O          -3.6811    1.3767   -0.1258 O.3     1  LIG1       -0.4895
     25 C          -3.0883    2.2346   -1.1030 C.3     1  LIG1        0.0791
     26 H          -3.6023    3.1943   -1.0124 H       1  LIG1        0.0660
     27 H          -2.0228    2.3826   -0.9158 H       1  LIG1        0.0660
     28 H          -3.2355    1.8367   -2.1153 H       1  LIG1        0.0660
     29 O          -5.7353   -0.8426    0.0168 O.3     1  LIG1       -0.4895
     30 C          -6.3929    0.0902   -0.8474 C.3     1  LIG1        0.0791
     31 H          -7.4615   -0.0094   -0.6458 H       1  LIG1        0.0660
     32 H          -6.0674    1.1122   -0.6387 H       1  LIG1        0.0660
     33 H          -6.1979   -0.1465   -1.9013 H       1  LIG1        0.0660
     34 C          -4.2911   -3.5311   -0.2265 C.ar    1  LIG1        0.1131
     35 C          -3.6527   -4.7716   -0.2863 C.ar    1  LIG1        0.1891
     36 C          -4.6600   -5.7735   -0.2077 C.ar    1  LIG1        0.1891
     37 C          -5.8938   -5.1236   -0.1074 C.ar    1  LIG1        0.1131
     38 N          -5.6423   -3.7753   -0.1215 N.ar    1  LIG1       -0.3458
     39 H          -6.3450   -3.0523   -0.0412 H       1  LIG1        0.1662
     40 O          -2.2931   -4.8655   -0.4756 O.3     1  LIG1       -0.4895
     41 C          -1.6397   -6.0053    0.0774 C.3     1  LIG1        0.0791
     42 H          -0.5785   -5.8909   -0.1532 H       1  LIG1        0.0660
     43 H          -1.7670   -6.0450    1.1673 H       1  LIG1        0.0660
     44 H          -2.0136   -6.9315   -0.3673 H       1  LIG1        0.0660
     45 O          -4.4994   -7.1492   -0.2430 O.3     1  LIG1       -0.4895
     46 C          -4.5166   -7.7700    1.0510 C.3     1  LIG1        0.0791
     47 H          -4.3802   -8.8415    0.8839 H       1  LIG1        0.0660
     48 H          -3.7029   -7.3946    1.6816 H       1  LIG1        0.0660
     49 H          -5.4706   -7.5969    1.5615 H       1  LIG1        0.0660
     50 C          -7.2286   -5.6576   -0.0616 C.ar    1  LIG1        0.1126
     51 C          -8.4448   -5.0260    0.1710 C.ar    1  LIG1        0.1884
     52 C          -9.4755   -6.0063    0.0542 C.ar    1  LIG1        0.1795
     53 C          -8.8696   -7.2095   -0.2484 C.ar    1  LIG1        0.0482
     54 N          -7.5109   -6.9887   -0.2993 N.ar    1  LIG1       -0.3534
     55 H          -6.8110   -7.6382   -0.6233 H       1  LIG1        0.1656
     56 H          -9.3010   -8.1857   -0.4031 H       1  LIG1        0.0845
     57 O          -8.5898   -3.6795    0.4234 O.3     1  LIG1       -0.4895
     58 C          -9.0621   -3.3877    1.7469 C.3     1  LIG1        0.0791
     59 H          -9.1575   -2.3018    1.8098 H       1  LIG1        0.0660
     60 H         -10.0343   -3.8579    1.9270 H       1  LIG1        0.0660
     61 H          -8.3467   -3.7365    2.5012 H       1  LIG1        0.0660
     62 O         -10.8180   -5.8146    0.2646 O.3     1  LIG1       -0.4900
     63 C         -11.4392   -4.9811   -0.7182 C.3     1  LIG1        0.0790
     64 H         -12.4875   -4.8855   -0.4266 H       1  LIG1        0.0660
     65 H         -10.9751   -3.9890   -0.7518 H       1  LIG1        0.0660
     66 H         -11.3778   -5.4376   -1.7143 H       1  LIG1        0.0660
@<TRIPOS>BOND
     1    28    25    1
     2     6     5    1
     3    33    30    1
     4    66    63    1
     5     7     1    1
     6    12     9    1
     7     5     1   ar
     8     5     4   ar
     9     1     2   ar
    10    25    26    1
    11    25    27    1
    12    25    24    1
    13    30    31    1
    14    30    32    1
    15    30    29    1
    16    65    63    1
    17    63    64    1
    18    63    62    1
    19    55    54    1
    20    40    35    1
    21    40    41    1
    22     4    18    1
    23     4     3   ar
    24    22    18   ar
    25    22    23    1
    26    22    21   ar
    27    56    53    1
    28    44    41    1
    29     9    11    1
    30     9    10    1
    31     9     8    1
    32    18    19   ar
    33    54    53   ar
    34    54    50   ar
    35    35    34   ar
    36    35    36   ar
    37    21    34    1
    38    21    20   ar
    39     2     3   ar
    40     2     8    1
    41    53    52   ar
    42    45    36    1
    43    45    46    1
    44    34    38   ar
    45    19    20   ar
    46    19    24    1
    47    36    37   ar
    48    20    29    1
    49    42    41    1
    50    38    37   ar
    51    38    39    1
    52    37    50    1
    53    50    51   ar
    54    52    51   ar
    55    52    62    1
    56    41    43    1
    57     3    13    1
    58    51    57    1
    59    57    58    1
    60    47    46    1
    61    13    14    1
    62    46    49    1
    63    46    48    1
    64    58    59    1
    65    58    60    1
    66    58    61    1
    67    14    17    1
    68    14    16    1
    69    14    15    1
