@<TRIPOS>MOLECULE
mol_data/opt/b3lyp/geoms/mol2/13ll13ll-.out
 34 35 0 0 0
SMALL
GASTEIGER

@<TRIPOS>ATOM
      1 C           1.2142   -0.4857   -0.0001 C.ar    1  LIG1        0.0482
      2 C           0.8864    0.8625    0.0000 C.ar    1  LIG1        0.1795
      3 C          -0.5374    0.9554    0.0005 C.ar    1  LIG1        0.1884
      4 C          -1.0403   -0.3424    0.0007 C.ar    1  LIG1        0.1126
      5 N           0.0376   -1.1971    0.0004 N.ar    1  LIG1       -0.3534
      6 H          -0.0715   -2.1992    0.0001 H       1  LIG1        0.1656
      7 H           2.1735   -0.9758   -0.0004 H       1  LIG1        0.0845
      8 O           1.7268    1.9461   -0.0002 O.3     1  LIG1       -0.4900
      9 C           3.1078    1.6341   -0.0007 C.3     1  LIG1        0.0790
     10 H           3.6438    2.5847   -0.0009 H       1  LIG1        0.0660
     11 H           3.3882    1.0584    0.8924 H       1  LIG1        0.0660
     12 H           3.3876    1.0585   -0.8941 H       1  LIG1        0.0660
     13 O          -1.3859    2.0403    0.0008 O.3     1  LIG1       -0.4895
     14 C          -0.8068    3.3409    0.0006 C.3     1  LIG1        0.0791
     15 H          -1.6448    4.0412    0.0008 H       1  LIG1        0.0660
     16 H          -0.1897    3.5061    0.8898 H       1  LIG1        0.0660
     17 H          -0.1904    3.5061   -0.8891 H       1  LIG1        0.0660
     18 C          -2.4015   -0.8098    0.0012 C.ar    1  LIG1        0.1126
     19 C          -2.9044   -2.1077    0.0011 C.ar    1  LIG1        0.1884
     20 C          -4.3283   -2.0148    0.0016 C.ar    1  LIG1        0.1795
     21 C          -4.6561   -0.6666    0.0019 C.ar    1  LIG1        0.0482
     22 N          -3.4795    0.0449    0.0018 N.ar    1  LIG1       -0.3534
     23 H          -3.3703    1.0469    0.0017 H       1  LIG1        0.1656
     24 H          -5.6153   -0.1764    0.0024 H       1  LIG1        0.0845
     25 O          -2.0560   -3.1926    0.0007 O.3     1  LIG1       -0.4895
     26 C          -2.6351   -4.4932   -0.0008 C.3     1  LIG1        0.0791
     27 H          -1.7971   -5.1934   -0.0011 H       1  LIG1        0.0660
     28 H          -3.2522   -4.6592    0.8882 H       1  LIG1        0.0660
     29 H          -3.2515   -4.6575   -0.8906 H       1  LIG1        0.0660
     30 O          -5.1687   -3.0984    0.0017 O.3     1  LIG1       -0.4900
     31 C          -6.5496   -2.7864    0.0018 C.3     1  LIG1        0.0790
     32 H          -7.0857   -3.7370    0.0017 H       1  LIG1        0.0660
     33 H          -6.8297   -2.2108    0.8951 H       1  LIG1        0.0660
     34 H          -6.8298   -2.2106   -0.8914 H       1  LIG1        0.0660
@<TRIPOS>BOND
     1    12     9    1
     2    34    31    1
     3    29    26    1
     4    17    14    1
     5    27    26    1
     6    10     9    1
     7    26    25    1
     8    26    28    1
     9     9     8    1
    10     9    11    1
    11     7     1    1
    12     8     2    1
    13     1     2   ar
    14     1     5   ar
    15     2     3   ar
    16     6     5    1
    17     5     4   ar
    18     3     4   ar
    19     3    13    1
    20    14    13    1
    21    14    15    1
    22    14    16    1
    23    25    19    1
    24     4    18    1
    25    19    18   ar
    26    19    20   ar
    27    18    22   ar
    28    20    30    1
    29    20    21   ar
    30    23    22    1
    31    30    31    1
    32    32    31    1
    33    31    33    1
    34    22    21   ar
    35    21    24    1
