@<TRIPOS>MOLECULE
mol_data/opt/b3lyp/geoms/mol2/13ll13ll13ll.out
 50 52 0 0 0
SMALL
GASTEIGER

@<TRIPOS>ATOM
      1 C           1.3053   -0.0773    0.9492 C.ar    1  LIG1        0.0482
      2 C           1.1461    0.9738    0.0671 C.ar    1  LIG1        0.1795
      3 C          -0.2414    1.0561   -0.2671 C.ar    1  LIG1        0.1884
      4 C          -0.9093    0.0617    0.4356 C.ar    1  LIG1        0.1126
      5 N           0.0555   -0.6350    1.1466 N.ar    1  LIG1       -0.3534
      6 H          -0.1736   -1.2686    1.8951 H       1  LIG1        0.1656
      7 H           2.1822   -0.4717    1.4357 H       1  LIG1        0.0845
      8 O           2.0779    1.8115   -0.4720 O.3     1  LIG1       -0.4900
      9 C           3.4103    1.5923   -0.0392 C.3     1  LIG1        0.0790
     10 H           4.0307    2.3321   -0.5471 H       1  LIG1        0.0660
     11 H           3.5019    1.7249    1.0475 H       1  LIG1        0.0660
     12 H           3.7555    0.5832   -0.3038 H       1  LIG1        0.0660
     13 O          -0.8341    1.9654   -1.1011 O.3     1  LIG1       -0.4895
     14 C          -0.3961    1.9097   -2.4621 C.3     1  LIG1        0.0791
     15 H          -0.9629    2.6734   -2.9983 H       1  LIG1        0.0660
     16 H           0.6748    2.1221   -2.5417 H       1  LIG1        0.0660
     17 H          -0.6068    0.9261   -2.9001 H       1  LIG1        0.0660
     18 C          -2.2963   -0.3683    0.4491 C.ar    1  LIG1        0.1131
     19 C          -3.5277    0.2675    0.5374 C.ar    1  LIG1        0.1891
     20 C          -4.5498   -0.7331    0.4135 C.ar    1  LIG1        0.1891
     21 C          -3.9382   -1.9632    0.2558 C.ar    1  LIG1        0.1131
     22 N          -2.5648   -1.7456    0.3327 N.ar    1  LIG1       -0.3458
     23 H          -1.9317   -2.3205   -0.2073 H       1  LIG1        0.1662
     24 O          -3.8799    1.5580    0.7713 O.3     1  LIG1       -0.4895
     25 C          -2.9072    2.4386    1.3335 C.3     1  LIG1        0.0791
     26 H          -3.4589    3.3290    1.6424 H       1  LIG1        0.0660
     27 H          -2.4277    1.9859    2.2099 H       1  LIG1        0.0660
     28 H          -2.1488    2.7133    0.5976 H       1  LIG1        0.0660
     29 O          -5.8974   -0.5197    0.4389 O.3     1  LIG1       -0.4895
     30 C          -6.4174   -0.0568    1.6884 C.3     1  LIG1        0.0791
     31 H          -7.4967    0.0377    1.5537 H       1  LIG1        0.0660
     32 H          -6.2149   -0.7801    2.4885 H       1  LIG1        0.0660
     33 H          -5.9928    0.9153    1.9572 H       1  LIG1        0.0660
     34 C          -4.4651   -3.3029    0.1206 C.ar    1  LIG1        0.1126
     35 C          -5.6342   -3.8290   -0.4264 C.ar    1  LIG1        0.1884
     36 C          -5.5924   -5.2498   -0.2536 C.ar    1  LIG1        0.1795
     37 C          -4.4129   -5.5626    0.3845 C.ar    1  LIG1        0.0482
     38 N          -3.7134   -4.3873    0.5597 N.ar    1  LIG1       -0.3534
     39 H          -2.9469   -4.2785    1.2042 H       1  LIG1        0.1656
     40 H          -4.0137   -6.5202    0.6789 H       1  LIG1        0.0845
     41 O          -6.6784   -3.1852   -1.0308 O.3     1  LIG1       -0.4895
     42 C          -6.3510   -2.4051   -2.1821 C.3     1  LIG1        0.0791
     43 H          -7.3019   -2.0737   -2.6046 H       1  LIG1        0.0660
     44 H          -5.7549   -1.5276   -1.9170 H       1  LIG1        0.0660
     45 H          -5.8127   -3.0092   -2.9232 H       1  LIG1        0.0660
     46 O          -6.4950   -6.1676   -0.7143 O.3     1  LIG1       -0.4900
     47 C          -7.8324   -5.9812   -0.2443 C.3     1  LIG1        0.0790
     48 H          -8.4282   -6.7784   -0.6946 H       1  LIG1        0.0660
     49 H          -7.8795   -6.0679    0.8495 H       1  LIG1        0.0660
     50 H          -8.2285   -5.0074   -0.5464 H       1  LIG1        0.0660
@<TRIPOS>BOND
     1    15    14    1
     2    45    42    1
     3    17    14    1
     4    43    42    1
     5    16    14    1
     6    14    13    1
     7    42    44    1
     8    42    41    1
     9    13     3    1
    10    41    35    1
    11    46    36    1
    12    46    47    1
    13    48    47    1
    14    10     9    1
    15    50    47    1
    16     8     9    1
    17     8     2    1
    18    35    36   ar
    19    35    34   ar
    20    12     9    1
    21     3     2   ar
    22     3     4   ar
    23    36    37   ar
    24    47    49    1
    25    23    22    1
    26     9    11    1
    27     2     1   ar
    28    34    21    1
    29    34    38   ar
    30    21    22   ar
    31    21    20   ar
    32    22    18   ar
    33    37    38   ar
    34    37    40    1
    35    20    29    1
    36    20    19   ar
    37     4    18    1
    38     4     5   ar
    39    29    30    1
    40    18    19   ar
    41    19    24    1
    42    38    39    1
    43    28    25    1
    44    24    25    1
    45     1     5   ar
    46     1     7    1
    47     5     6    1
    48    25    26    1
    49    25    27    1
    50    31    30    1
    51    30    33    1
    52    30    32    1
