@<TRIPOS>MOLECULE
mol_data/opt/b3lyp/geoms/mol2/13ll13ll-13ll-13ll-.out
 66 69 0 0 0
SMALL
GASTEIGER

@<TRIPOS>ATOM
      1 C           0.9983   -0.1723   -0.3372 C.ar    1  LIG1        0.0482
      2 C           0.4933    1.0729   -0.6765 C.ar    1  LIG1        0.1795
      3 C          -0.9272    0.9987   -0.5861 C.ar    1  LIG1        0.1884
      4 C          -1.2556   -0.2916   -0.1851 C.ar    1  LIG1        0.1126
      5 N          -0.0767   -0.9820   -0.0353 N.ar    1  LIG1       -0.3534
      6 H          -0.0527   -1.9423    0.2719 H       1  LIG1        0.1656
      7 H           2.0114   -0.5341   -0.2801 H       1  LIG1        0.0845
      8 O           1.1547    2.2105   -1.0466 O.3     1  LIG1       -0.4900
      9 C           2.5671    2.0999   -1.0858 C.3     1  LIG1        0.0790
     10 H           2.9503    3.0753   -1.3898 H       1  LIG1        0.0660
     11 H           2.9730    1.8412   -0.0982 H       1  LIG1        0.0660
     12 H           2.8885    1.3394   -1.8110 H       1  LIG1        0.0660
     13 O          -1.8581    1.9947   -0.7930 O.3     1  LIG1       -0.4895
     14 C          -1.7873    2.6125   -2.0842 C.3     1  LIG1        0.0791
     15 H          -2.5802    3.3633   -2.1113 H       1  LIG1        0.0660
     16 H          -0.8178    3.0960   -2.2334 H       1  LIG1        0.0660
     17 H          -1.9516    1.8758   -2.8809 H       1  LIG1        0.0660
     18 C          -2.5386   -0.8856    0.0725 C.ar    1  LIG1        0.1131
     19 C          -2.8880   -2.1969    0.3666 C.ar    1  LIG1        0.1891
     20 C          -4.3024   -2.2566    0.5164 C.ar    1  LIG1        0.1891
     21 C          -4.8042   -0.9694    0.2988 C.ar    1  LIG1        0.1131
     22 N          -3.7045   -0.1532    0.0719 N.ar    1  LIG1       -0.3458
     23 H          -3.7284    0.7961   -0.2718 H       1  LIG1        0.1662
     24 O          -1.9664   -3.2034    0.5467 O.3     1  LIG1       -0.4895
     25 C          -2.1953   -4.3727   -0.2513 C.3     1  LIG1        0.0791
     26 H          -1.4019   -5.0788    0.0041 H       1  LIG1        0.0660
     27 H          -3.1703   -4.8120   -0.0264 H       1  LIG1        0.0660
     28 H          -2.1421   -4.1324   -1.3209 H       1  LIG1        0.0660
     29 O          -4.9653   -3.4160    0.8107 O.3     1  LIG1       -0.4895
     30 C          -5.7910   -3.3915    1.9764 C.3     1  LIG1        0.0791
     31 H          -6.1011   -4.4243    2.1497 H       1  LIG1        0.0660
     32 H          -5.2284   -3.0288    2.8459 H       1  LIG1        0.0660
     33 H          -6.6799   -2.7737    1.8252 H       1  LIG1        0.0660
     34 C          -6.1356   -0.4056    0.3246 C.ar    1  LIG1        0.1131
     35 C          -7.3754   -0.9219   -0.0352 C.ar    1  LIG1        0.1891
     36 C          -8.3588    0.0961    0.1474 C.ar    1  LIG1        0.1891
     37 C          -7.7082    1.2429    0.6045 C.ar    1  LIG1        0.1131
     38 N          -6.3592    0.9010    0.7079 N.ar    1  LIG1       -0.3458
     39 H          -5.6605    1.5137    1.0960 H       1  LIG1        0.1662
     40 O          -7.6030   -2.2088   -0.4371 O.3     1  LIG1       -0.4895
     41 C          -8.0923   -2.3407   -1.7742 C.3     1  LIG1        0.0791
     42 H          -8.2072   -3.4117   -1.9542 H       1  LIG1        0.0660
     43 H          -9.0592   -1.8412   -1.8928 H       1  LIG1        0.0660
     44 H          -7.3767   -1.9263   -2.4958 H       1  LIG1        0.0660
     45 O          -9.6650   -0.1690   -0.1244 O.3     1  LIG1       -0.4895
     46 C         -10.6626    0.6820    0.4343 C.3     1  LIG1        0.0791
     47 H         -11.6117    0.1617    0.2875 H       1  LIG1        0.0660
     48 H         -10.4956    0.8331    1.5076 H       1  LIG1        0.0660
     49 H         -10.6919    1.6494   -0.0733 H       1  LIG1        0.0660
     50 C          -8.1245    2.5857    0.9769 C.ar    1  LIG1        0.1126
     51 C          -8.8415    3.5609    0.3002 C.ar    1  LIG1        0.1884
     52 C          -8.8922    4.7256    1.1292 C.ar    1  LIG1        0.1795
     53 C          -8.1921    4.4487    2.2864 C.ar    1  LIG1        0.0482
     54 N          -7.7084    3.1572    2.1723 N.ar    1  LIG1       -0.3534
     55 H          -7.4004    2.6052    2.9574 H       1  LIG1        0.1656
     56 H          -7.9915    5.0506    3.1575 H       1  LIG1        0.0845
     57 O          -9.4229    3.3990   -0.9280 O.3     1  LIG1       -0.4895
     58 C          -8.9402    4.2820   -1.9446 C.3     1  LIG1        0.0791
     59 H          -9.4845    4.0269   -2.8562 H       1  LIG1        0.0660
     60 H          -9.1296    5.3281   -1.6837 H       1  LIG1        0.0660
     61 H          -7.8653    4.1363   -2.1106 H       1  LIG1        0.0660
     62 O          -9.5167    5.8736    0.7385 O.3     1  LIG1       -0.4900
     63 C          -9.4677    6.9369    1.6755 C.3     1  LIG1        0.0790
     64 H         -10.0083    7.7730    1.2295 H       1  LIG1        0.0660
     65 H          -9.9496    6.6549    2.6215 H       1  LIG1        0.0660
     66 H          -8.4319    7.2401    1.8815 H       1  LIG1        0.0660
@<TRIPOS>BOND
     1    17    14    1
     2    59    58    1
     3    44    41    1
     4    16    14    1
     5    15    14    1
     6    61    58    1
     7    14    13    1
     8    42    41    1
     9    58    60    1
    10    58    57    1
    11    43    41    1
    12    12     9    1
    13    41    40    1
    14    10     9    1
    15    28    25    1
    16     9     8    1
    17     9    11    1
    18     8     2    1
    19    57    51    1
    20    13     3    1
    21     2     3   ar
    22     2     1   ar
    23     3     4   ar
    24    40    35    1
    25     1     7    1
    26     1     5   ar
    27    23    22    1
    28    25    27    1
    29    25    26    1
    30    25    24    1
    31     4     5   ar
    32     4    18    1
    33    45    36    1
    34    45    46    1
    35    49    46    1
    36     5     6    1
    37    35    36   ar
    38    35    34   ar
    39    22    18   ar
    40    22    21   ar
    41    18    19   ar
    42    36    37   ar
    43    47    46    1
    44    21    34    1
    45    21    20   ar
    46    51    50   ar
    47    51    52   ar
    48    34    38   ar
    49    19    20   ar
    50    19    24    1
    51    46    48    1
    52    20    29    1
    53    37    38   ar
    54    37    50    1
    55    38    39    1
    56    62    52    1
    57    62    63    1
    58    29    30    1
    59    50    54   ar
    60    52    53   ar
    61    64    63    1
    62    63    66    1
    63    63    65    1
    64    33    30    1
    65    30    31    1
    66    30    32    1
    67    54    53   ar
    68    54    55    1
    69    53    56    1
