@<TRIPOS>MOLECULE
mol_data/opt/b3lyp/geoms/mol2/13ll13ll-13ll13ll-.out
 66 69 0 0 0
SMALL
GASTEIGER

@<TRIPOS>ATOM
      1 C           1.4001   -0.6419    0.2515 C.ar    1  LIG1        0.0482
      2 C           1.0387    0.6954    0.2377 C.ar    1  LIG1        0.1795
      3 C          -0.3824    0.7561    0.1528 C.ar    1  LIG1        0.1884
      4 C          -0.8578   -0.5507    0.1084 C.ar    1  LIG1        0.1126
      5 N           0.2379   -1.3803    0.1595 N.ar    1  LIG1       -0.3534
      6 H           0.1522   -2.3844    0.1700 H       1  LIG1        0.1656
      7 H           2.3658   -1.1151    0.3135 H       1  LIG1        0.0845
      8 O           1.8249    1.8123    0.2939 O.3     1  LIG1       -0.4900
      9 C           3.2170    1.5638    0.3794 C.3     1  LIG1        0.0790
     10 H           3.7089    2.5373    0.4137 H       1  LIG1        0.0660
     11 H           3.4672    0.9967    1.2869 H       1  LIG1        0.0660
     12 H           3.5757    1.0055   -0.4962 H       1  LIG1        0.0660
     13 O          -1.1886    1.8689    0.0632 O.3     1  LIG1       -0.4895
     14 C          -1.0617    2.7816    1.1597 C.3     1  LIG1        0.0791
     15 H          -1.7762    3.5867    0.9744 H       1  LIG1        0.0660
     16 H          -1.3040    2.2891    2.1100 H       1  LIG1        0.0660
     17 H          -0.0486    3.1914    1.2129 H       1  LIG1        0.0660
     18 C          -2.2036   -1.0429   -0.0042 C.ar    1  LIG1        0.1131
     19 C          -2.6884   -2.3510   -0.0365 C.ar    1  LIG1        0.1891
     20 C          -4.1058   -2.2797   -0.1401 C.ar    1  LIG1        0.1891
     21 C          -4.4577   -0.9257   -0.1620 C.ar    1  LIG1        0.1131
     22 N          -3.2926   -0.2042   -0.0793 N.ar    1  LIG1       -0.3458
     23 H          -3.2321    0.8051   -0.0882 H       1  LIG1        0.1662
     24 O          -1.8432   -3.4269    0.1057 O.3     1  LIG1       -0.4895
     25 C          -2.2408   -4.6494   -0.5100 C.3     1  LIG1        0.0791
     26 H          -1.4440   -5.3675   -0.3053 H       1  LIG1        0.0660
     27 H          -3.1819   -5.0163   -0.0920 H       1  LIG1        0.0660
     28 H          -2.3458   -4.5295   -1.5965 H       1  LIG1        0.0660
     29 O          -5.0102   -3.3252   -0.1805 O.3     1  LIG1       -0.4895
     30 C          -5.4678   -3.6599   -1.4993 C.3     1  LIG1        0.0791
     31 H          -6.2235   -4.4389   -1.3762 H       1  LIG1        0.0660
     32 H          -5.9182   -2.7937   -1.9956 H       1  LIG1        0.0660
     33 H          -4.6462   -4.0386   -2.1186 H       1  LIG1        0.0660
     34 C          -5.7498   -0.3001   -0.2071 C.ar    1  LIG1        0.1131
     35 C          -6.0954    1.0410   -0.3707 C.ar    1  LIG1        0.1891
     36 C          -7.5119    1.1328   -0.3187 C.ar    1  LIG1        0.1891
     37 C          -8.0136   -0.1517   -0.1290 C.ar    1  LIG1        0.1131
     38 N          -6.9296   -1.0007   -0.0716 N.ar    1  LIG1       -0.3458
     39 H          -7.0021   -1.9865    0.1388 H       1  LIG1        0.1662
     40 O          -5.1909    2.0708   -0.5190 O.3     1  LIG1       -0.4895
     41 C          -5.1984    2.6579   -1.8283 C.3     1  LIG1        0.0791
     42 H          -4.4498    3.4529   -1.8165 H       1  LIG1        0.0660
     43 H          -4.9326    1.9153   -2.5898 H       1  LIG1        0.0660
     44 H          -6.1823    3.0784   -2.0634 H       1  LIG1        0.0660
     45 O          -8.2949    2.2581   -0.4763 O.3     1  LIG1       -0.4895
     46 C          -8.0807    3.2519    0.5367 C.3     1  LIG1        0.0791
     47 H          -8.7245    4.0974    0.2840 H       1  LIG1        0.0660
     48 H          -8.3510    2.8648    1.5267 H       1  LIG1        0.0660
     49 H          -7.0354    3.5758    0.5523 H       1  LIG1        0.0660
     50 C          -9.3678   -0.6213   -0.0246 C.ar    1  LIG1        0.1126
     51 C          -9.8581   -1.8993    0.2206 C.ar    1  LIG1        0.1884
     52 C         -11.2815   -1.8286    0.1830 C.ar    1  LIG1        0.1795
     53 C         -11.6278   -0.5129   -0.0785 C.ar    1  LIG1        0.0482
     54 N         -10.4545    0.2027   -0.2038 N.ar    1  LIG1       -0.3534
     55 H         -10.3590    1.1751   -0.4519 H       1  LIG1        0.1656
     56 H         -12.5906   -0.0413   -0.1846 H       1  LIG1        0.0845
     57 O          -9.0563   -3.0039    0.3985 O.3     1  LIG1       -0.4895
     58 C          -9.2865   -3.7174    1.6199 C.3     1  LIG1        0.0791
     59 H          -8.5663   -4.5381    1.6368 H       1  LIG1        0.0660
     60 H          -9.1225   -3.0686    2.4895 H       1  LIG1        0.0660
     61 H         -10.3042   -4.1169    1.6533 H       1  LIG1        0.0660
     62 O         -12.0820   -2.9170    0.3875 O.3     1  LIG1       -0.4900
     63 C         -13.4740   -2.6645    0.3061 C.3     1  LIG1        0.0790
     64 H         -13.9768   -3.6170    0.4812 H       1  LIG1        0.0660
     65 H         -13.7940   -1.9383    1.0663 H       1  LIG1        0.0660
     66 H         -13.7514   -2.2835   -0.6864 H       1  LIG1        0.0660
@<TRIPOS>BOND
     1    43    41    1
     2    33    30    1
     3    44    41    1
     4    32    30    1
     5    41    42    1
     6    41    40    1
     7    28    25    1
     8    30    31    1
     9    30    29    1
    10    66    63    1
    11    40    35    1
    12    25    26    1
    13    25    27    1
    14    25    24    1
    15    12     9    1
    16    45    36    1
    17    45    46    1
    18    55    54    1
    19    35    36   ar
    20    35    34   ar
    21    36    37   ar
    22    34    21    1
    23    34    38   ar
    24    54    53   ar
    25    54    50   ar
    26    56    53    1
    27    29    20    1
    28    21    20   ar
    29    21    22   ar
    30    20    19   ar
    31    37    38   ar
    32    37    50    1
    33    23    22    1
    34    22    18   ar
    35    53    52   ar
    36    38    39    1
    37    19    18   ar
    38    19    24    1
    39    50    51   ar
    40    18     4    1
    41    13     3    1
    42    13    14    1
    43     4     3   ar
    44     4     5   ar
    45     3     2   ar
    46     5     6    1
    47     5     1   ar
    48    52    51   ar
    49    52    62    1
    50    51    57    1
    51     2     1   ar
    52     2     8    1
    53     1     7    1
    54    47    46    1
    55     8     9    1
    56    63    62    1
    57    63    64    1
    58    63    65    1
    59     9    10    1
    60     9    11    1
    61    57    58    1
    62    46    49    1
    63    46    48    1
    64    15    14    1
    65    14    17    1
    66    14    16    1
    67    58    59    1
    68    58    61    1
    69    58    60    1
