@<TRIPOS>MOLECULE
mol_data/opt/b3lyp/geoms/mol2/13ll4ah-12le4di4aa12ea-4dd-4if.out
 102 109 0 0 0
SMALL
GASTEIGER

@<TRIPOS>ATOM
      1 C           1.5505    0.7588    0.8260 C.ar    1  LIG1        0.0481
      2 C           1.0266    2.0166    0.5967 C.ar    1  LIG1        0.1794
      3 C          -0.3793    1.8685    0.3941 C.ar    1  LIG1        0.1868
      4 C          -0.6866    0.5134    0.4957 C.ar    1  LIG1        0.0925
      5 N           0.5090   -0.1424    0.7339 N.ar    1  LIG1       -0.3546
      6 H           0.5513   -1.0777    1.1053 H       1  LIG1        0.1656
      7 H           2.5554    0.4369    1.0456 H       1  LIG1        0.0845
      8 O           1.6540    3.2258    0.5340 O.3     1  LIG1       -0.4900
      9 C           3.0504    3.1955    0.7788 C.3     1  LIG1        0.0790
     10 H           3.4051    4.2239    0.6981 H       1  LIG1        0.0660
     11 H           3.2691    2.8131    1.7851 H       1  LIG1        0.0660
     12 H           3.5714    2.5707    0.0402 H       1  LIG1        0.0660
     13 O          -1.2802    2.8702    0.1624 O.3     1  LIG1       -0.4895
     14 C          -1.0490    3.6282   -1.0298 C.3     1  LIG1        0.0791
     15 H          -1.8402    4.3793   -1.0727 H       1  LIG1        0.0660
     16 H          -0.0735    4.1232   -1.0011 H       1  LIG1        0.0660
     17 H          -1.1072    2.9868   -1.9182 H       1  LIG1        0.0660
     18 C          -3.1839    0.4646    0.5545 C.ar    1  LIG1       -0.0517
     19 C          -4.3681   -0.2412    0.4544 C.ar    1  LIG1       -0.0486
     20 C          -1.9525   -0.1991    0.3745 C.ar    1  LIG1        0.0038
     21 C          -4.4117   -1.6262    0.1756 C.ar    1  LIG1        0.0416
     22 H          -5.3076    0.2760    0.6045 H       1  LIG1        0.0625
     23 C          -1.9792   -1.5700    0.0908 C.ar    1  LIG1       -0.0311
     24 C          -3.1712   -2.3057   -0.0045 C.ar    1  LIG1        0.0361
     25 H          -1.0480   -2.1002   -0.0960 H       1  LIG1        0.0643
     26 H          -3.1933    1.5232    0.7798 H       1  LIG1        0.0624
     27 N          -3.0786   -3.6737   -0.2371 N.pl3   1  LIG1       -0.3574
     28 H          -3.9062   -4.1338   -0.5824 H       1  LIG1        0.1423
     29 H          -2.2262   -3.9695   -0.6904 H       1  LIG1        0.1423
     30 C          -5.7128   -2.2675    0.0629 C.ar    1  LIG1        0.1801
     31 C          -7.0076   -1.7899   -0.0033 C.ar    1  LIG1        0.1817
     32 C          -7.8960   -2.9197   -0.1018 C.ar    1  LIG1        0.1127
     33 C          -7.0859   -4.0406   -0.1115 C.ar    1  LIG1        0.1560
     34 O          -5.7790   -3.6438    0.0084 O.2     1  LIG1       -0.4497
     35 O          -7.3865   -0.4857    0.0800 O.3     1  LIG1       -0.4901
     36 C          -8.0169    0.0406   -1.0991 C.3     1  LIG1        0.0790
     37 H          -8.2708    1.0761   -0.8676 H       1  LIG1        0.0660
     38 H          -7.3289    0.0110   -1.9517 H       1  LIG1        0.0660
     39 H          -8.9275   -0.5149   -1.3411 H       1  LIG1        0.0660
     40 C          -9.3094   -2.8594   -0.0503 C.1     1  LIG1       -0.0622
     41 C         -10.5146   -2.7773    0.0160 C.1     1  LIG1       -0.1137
     42 H         -11.5778   -2.7251    0.0597 H       1  LIG1        0.1232
     43 C          -8.3177   -6.1225   -0.8595 C.ar    1  LIG1        0.0630
     44 C          -8.4898   -7.5087   -0.7421 C.ar    1  LIG1       -0.0357
     45 C          -7.3109   -5.4775   -0.1000 C.ar    1  LIG1        0.0362
     46 C          -7.6747   -8.2997    0.0745 C.ar    1  LIG1       -0.0137
     47 H          -9.2577   -7.9846   -1.3425 H       1  LIG1        0.0637
     48 C          -6.4888   -6.2858    0.7040 C.ar    1  LIG1       -0.0463
     49 C          -6.6388   -7.6687    0.8098 C.ar    1  LIG1       -0.0420
     50 H          -5.7194   -5.7972    1.2932 H       1  LIG1        0.0628
     51 N          -9.7516   -4.9504   -2.6766 N.1     1  LIG1       -0.1908
     52 C          -9.1111   -5.4386   -1.8365 C.1     1  LIG1        0.0999
     53 C          -5.7241   -8.4245    1.7465 C.3     1  LIG1       -0.0391
     54 H          -5.3161   -7.7527    2.5059 H       1  LIG1        0.0278
     55 H          -4.8728   -8.8657    1.2148 H       1  LIG1        0.0278
     56 H          -6.2455   -9.2412    2.2517 H       1  LIG1        0.0278
     57 C          -9.2512  -10.2297    0.3556 C.ar    1  LIG1       -0.0534
     58 C          -9.5418  -11.5880    0.3803 C.ar    1  LIG1       -0.0505
     59 C          -7.9450   -9.7613    0.1315 C.ar    1  LIG1       -0.0176
     60 C          -8.5258  -12.5400    0.1737 C.ar    1  LIG1        0.0185
     61 H         -10.5577  -11.9145    0.5648 H       1  LIG1        0.0625
     62 C          -6.9358  -10.7167   -0.0771 C.ar    1  LIG1       -0.0534
     63 C          -7.2162  -12.0764   -0.0586 C.ar    1  LIG1       -0.0505
     64 H          -5.9219  -10.3907   -0.2834 H       1  LIG1        0.0624
     65 H         -10.0486   -9.5139    0.5312 H       1  LIG1        0.0624
     66 H          -6.4187  -12.7891   -0.2332 H       1  LIG1        0.0625
     67 C          -8.8087  -13.9660    0.1950 C.ar    1  LIG1        0.1510
     68 C          -9.9498  -14.7337    0.4031 C.ar    1  LIG1        0.0709
     69 C          -9.5446  -16.1018    0.2905 C.ar    1  LIG1        0.0003
     70 C          -8.2003  -16.1043    0.0233 C.ar    1  LIG1        0.1382
     71 O          -7.7570  -14.8027   -0.0335 O.2     1  LIG1       -0.4535
     72 C         -11.2730  -14.3047    0.6765 C.1     1  LIG1       -0.0658
     73 C         -12.4176  -13.9884    0.9116 C.1     1  LIG1       -0.1138
     74 H         -13.4249  -13.7086    1.1180 H       1  LIG1        0.1232
     75 H         -10.1934  -16.9554    0.3990 H       1  LIG1        0.0668
     76 C          -7.4525  -18.5198   -0.1808 C.ar    1  LIG1        0.0631
     77 C          -6.4255  -19.4465   -0.4117 C.ar    1  LIG1       -0.0347
     78 C          -7.1893  -17.1236   -0.2051 C.ar    1  LIG1        0.0359
     79 C          -5.1099  -19.0605   -0.6727 C.ar    1  LIG1        0.0011
     80 H          -6.6743  -20.5014   -0.4036 H       1  LIG1        0.0637
     81 C          -5.8668  -16.7348   -0.4675 C.ar    1  LIG1       -0.0319
     82 C          -4.8502  -17.6680   -0.6958 C.ar    1  LIG1        0.0602
     83 H          -5.6228  -15.6808   -0.4890 H       1  LIG1        0.0638
     84 N          -9.8093  -19.5079    0.2707 N.1     1  LIG1       -0.1908
     85 C          -8.7589  -19.0490    0.0689 C.1     1  LIG1        0.0999
     86 N          -2.4788  -16.6959   -1.1285 N.1     1  LIG1       -0.1908
     87 C          -3.5287  -17.1581   -0.9365 C.1     1  LIG1        0.0998
     88 C          -3.7361  -21.0849   -0.0093 C.ar    1  LIG1       -0.0425
     89 C          -2.7465  -22.0117   -0.3678 C.ar    1  LIG1       -0.0548
     90 C          -4.0565  -20.0786   -0.9453 C.ar    1  LIG1       -0.0103
     91 C          -2.0890  -21.9682   -1.5911 C.ar    1  LIG1       -0.0199
     92 H          -2.4767  -22.7872    0.3442 H       1  LIG1        0.0622
     93 C          -3.3889  -20.0247   -2.1791 C.ar    1  LIG1       -0.0122
     94 C          -2.4079  -20.9607   -2.5055 C.ar    1  LIG1        0.1175
     95 H          -3.6488  -19.2482   -2.8943 H       1  LIG1        0.0660
     96 H          -1.3233  -22.6923   -1.8477 H       1  LIG1        0.0654
     97 C          -4.3860  -21.1826    1.3540 C.3     1  LIG1       -0.0391
     98 H          -3.7360  -21.7257    2.0452 H       1  LIG1        0.0278
     99 H          -5.3407  -21.7218    1.3238 H       1  LIG1        0.0278
    100 H          -4.5856  -20.1988    1.7874 H       1  LIG1        0.0278
    101 O          -1.7378  -20.9478   -3.6940 O.3     1  LIG1       -0.5067
    102 H          -2.0014  -20.1695   -4.2026 H       1  LIG1        0.2921
@<TRIPOS>BOND
     1   102   101    1
     2   101    94    1
     3    95    93    1
     4    51    52    3
     5    94    93   ar
     6    94    91   ar
     7    93    90   ar
     8    38    36    1
     9    17    14    1
    10    96    91    1
    11    52    43    1
    12    91    89   ar
    13    47    44    1
    14    39    36    1
    15    86    87    3
    16    36    37    1
    17    36    35    1
    18    15    14    1
    19    14    16    1
    20    14    13    1
    21    90    79    1
    22    90    88   ar
    23    87    82    1
    24    43    44   ar
    25    43    45   ar
    26    44    46   ar
    27    82    79   ar
    28    82    81   ar
    29    29    27    1
    30    79    77   ar
    31    28    27    1
    32    83    81    1
    33    81    78   ar
    34    77    80    1
    35    77    76   ar
    36    89    88   ar
    37    89    92    1
    38    64    62    1
    39    27    24    1
    40    66    63    1
    41    78    76   ar
    42    78    70    1
    43    76    85    1
    44    33    32   ar
    45    33    45    1
    46    33    34   ar
    47    32    40    1
    48    32    31   ar
    49    45    48   ar
    50    25    23    1
    51    62    63   ar
    52    62    59   ar
    53    63    60   ar
    54    40    41    3
    55    71    70   ar
    56    71    67   ar
    57    88    97    1
    58    24    23   ar
    59    24    21   ar
    60    31    30   ar
    61    31    35    1
    62    34    30   ar
    63    41    42    1
    64    70    69   ar
    65    12     9    1
    66    30    21    1
    67    85    84    3
    68    46    59    1
    69    46    49   ar
    70    23    20   ar
    71    59    57   ar
    72    13     3    1
    73    60    67    1
    74    60    58   ar
    75    21    19   ar
    76    67    68   ar
    77    69    75    1
    78    69    68   ar
    79    57    58   ar
    80    57    65    1
    81    20     4    1
    82    20    18   ar
    83    58    61    1
    84     3     4   ar
    85     3     2   ar
    86    68    72    1
    87    19    18   ar
    88    19    22    1
    89     4     5   ar
    90     8     2    1
    91     8     9    1
    92    18    26    1
    93     2     1   ar
    94    72    73    3
    95    10     9    1
    96    48    49   ar
    97    48    50    1
    98     5     1   ar
    99     5     6    1
   100     9    11    1
   101    49    53    1
   102     1     7    1
   103    73    74    1
   104    55    53    1
   105    99    97    1
   106    97   100    1
   107    97    98    1
   108    53    56    1
   109    53    54    1
