@<TRIPOS>MOLECULE
mol_data/opt/b3lyp/geoms/mol2/13ll6ea13ha-13el-12ef-13ae-6hi4hl.out
 103 110 0 0 0
SMALL
GASTEIGER

@<TRIPOS>ATOM
      1 C           1.4000    0.1963    0.8148 C.ar    1  LIG1        0.0481
      2 C           0.8212    1.4174    1.1188 C.ar    1  LIG1        0.1794
      3 C          -0.5756    1.2958    0.8821 C.ar    1  LIG1        0.1869
      4 C          -0.8265   -0.0108    0.4472 C.ar    1  LIG1        0.0951
      5 N           0.3944   -0.6509    0.4176 N.ar    1  LIG1       -0.3546
      6 H           0.5641   -1.5683    0.0327 H       1  LIG1        0.1656
      7 H           2.4236   -0.1371    0.8553 H       1  LIG1        0.0845
      8 O           1.3963    2.5687    1.5761 O.3     1  LIG1       -0.4900
      9 C           2.7969    2.5026    1.7827 C.3     1  LIG1        0.0790
     10 H           3.1065    3.4827    2.1488 H       1  LIG1        0.0660
     11 H           3.0561    1.7364    2.5264 H       1  LIG1        0.0660
     12 H           3.3279    2.2810    0.8466 H       1  LIG1        0.0660
     13 O          -1.5195    2.2771    1.0241 O.3     1  LIG1       -0.4895
     14 C          -1.6474    2.8021    2.3503 C.3     1  LIG1        0.0791
     15 H          -2.4377    3.5544    2.3071 H       1  LIG1        0.0660
     16 H          -1.9332    2.0129    3.0567 H       1  LIG1        0.0660
     17 H          -0.7141    3.2670    2.6820 H       1  LIG1        0.0660
     18 C          -2.4048   -2.0051    0.2270 C.ar    1  LIG1        0.1231
     19 C          -2.0990   -0.6239    0.0841 C.ar    1  LIG1        0.0359
     20 C          -3.1452    0.1850   -0.4102 C.ar    1  LIG1       -0.0478
     21 C          -4.3701   -0.3586   -0.7447 C.ar    1  LIG1       -0.0335
     22 C          -4.5670   -1.7476   -0.5945 C.ar    1  LIG1        0.0903
     23 N          -3.5925   -2.5398   -0.1082 N.ar    1  LIG1       -0.2362
     24 H          -2.9762    1.2502   -0.5087 H       1  LIG1        0.0626
     25 C          -1.4703   -2.9463    0.7817 C.1     1  LIG1       -0.0491
     26 C          -0.7218   -3.7700    1.2583 C.1     1  LIG1       -0.1124
     27 H          -0.0709   -4.4947    1.6904 H       1  LIG1        0.1232
     28 H          -5.1822    0.2747   -1.0818 H       1  LIG1        0.0640
     29 C          -5.8219   -2.4082   -0.8932 C.ar    1  LIG1        0.0864
     30 C          -7.0210   -1.9852   -1.4869 C.ar    1  LIG1        0.0523
     31 C          -7.9407   -3.0531   -1.3939 C.ar    1  LIG1       -0.0136
     32 C          -7.2987   -4.1182   -0.7586 C.ar    1  LIG1        0.0665
     33 N          -6.0122   -3.7181   -0.4960 N.ar    1  LIG1       -0.3503
     34 H          -5.3086   -4.1804    0.0619 H       1  LIG1        0.1660
     35 N          -7.2694   -0.7181   -2.0448 N.pl3   1  LIG1       -0.3563
     36 H          -6.5452   -0.4206   -2.6899 H       1  LIG1        0.1424
     37 H          -8.1656   -0.6837   -2.5161 H       1  LIG1        0.1424
     38 H          -8.9540   -3.0705   -1.7665 H       1  LIG1        0.0658
     39 C          -7.7921   -5.4302   -0.4346 C.ar    1  LIG1        0.0827
     40 C          -9.1146   -5.8935   -0.2930 C.ar    1  LIG1        0.0936
     41 C          -9.0345   -7.2764    0.0630 C.ar    1  LIG1        0.1643
     42 C          -7.6895   -7.6381    0.1199 C.ar    1  LIG1        0.1274
     43 N          -6.9634   -6.4874   -0.1658 N.ar    1  LIG1       -0.3466
     44 H          -5.9644   -6.4918   -0.2937 H       1  LIG1        0.1662
     45 C         -10.2975   -5.1220   -0.3854 C.1     1  LIG1       -0.0638
     46 C         -11.3208   -4.4780   -0.4711 C.1     1  LIG1       -0.1137
     47 H         -12.2179   -3.9050   -0.5057 H       1  LIG1        0.1232
     48 O         -10.0605   -8.0954    0.3987 O.3     1  LIG1       -0.4916
     49 C         -11.0218   -8.3545   -0.6311 C.3     1  LIG1        0.0789
     50 H         -11.7821   -8.9914   -0.1770 H       1  LIG1        0.0660
     51 H         -11.4826   -7.4288   -0.9877 H       1  LIG1        0.0660
     52 H         -10.5564   -8.8878   -1.4679 H       1  LIG1        0.0660
     53 C          -7.0069   -8.8642    0.4049 C.ar    1  LIG1        0.1745
     54 C          -7.3651  -10.1943    0.6035 C.ar    1  LIG1        0.1141
     55 C          -6.1290  -10.8942    0.8305 C.ar    1  LIG1        0.1805
     56 C          -5.1064   -9.9856    0.7655 C.ar    1  LIG1        0.1943
     57 O          -5.6422   -8.7383    0.4928 O.2     1  LIG1       -0.4467
     58 C          -8.6283  -10.8279    0.5498 C.1     1  LIG1       -0.0621
     59 C          -9.6598  -11.4593    0.5013 C.1     1  LIG1       -0.1137
     60 H         -10.5773  -11.9994    0.4794 H       1  LIG1        0.1232
     61 O          -6.0570  -12.2310    1.0343 O.3     1  LIG1       -0.5023
     62 H          -5.1370  -12.5105    0.9162 H       1  LIG1        0.2923
     63 C          -3.6818  -10.1155    0.8829 C.ar    1  LIG1        0.0875
     64 C          -2.9055  -11.0817    1.5097 C.ar    1  LIG1       -0.0172
     65 C          -1.5346  -10.7564    1.2775 C.ar    1  LIG1        0.0507
     66 C          -1.5062   -9.5782    0.5105 C.ar    1  LIG1        0.0659
     67 N          -2.8191   -9.2302    0.2814 N.ar    1  LIG1       -0.3506
     68 H          -3.0826   -8.4090   -0.2484 H       1  LIG1        0.1660
     69 H          -3.2609  -11.8980    2.1220 H       1  LIG1        0.0652
     70 C          -0.4271  -11.5108    1.7418 C.1     1  LIG1       -0.0675
     71 C           0.4963  -12.1794    2.1523 C.1     1  LIG1       -0.1138
     72 H           1.3087  -12.7701    2.5064 H       1  LIG1        0.1232
     73 C          -0.5299   -7.8585   -1.0634 C.ar    1  LIG1        0.1261
     74 C          -0.4051   -8.7376    0.0450 C.ar    1  LIG1        0.0393
     75 C           0.8209   -8.6944    0.7199 C.ar    1  LIG1       -0.0444
     76 C           1.8436   -7.8141    0.3534 C.ar    1  LIG1       -0.0237
     77 C           1.5855   -6.9612   -0.7396 C.ar    1  LIG1        0.0779
     78 N           0.4250   -7.0065   -1.4218 N.ar    1  LIG1       -0.2314
     79 H           0.9619   -9.3360    1.5830 H       1  LIG1        0.0628
     80 N          -1.7138   -7.8015   -1.8298 N.pl3   1  LIG1       -0.3426
     81 H          -1.5742   -7.1619   -2.6058 H       1  LIG1        0.1437
     82 H          -2.0154   -8.7113   -2.1673 H       1  LIG1        0.1437
     83 C           3.1156   -7.7407    1.1634 C.3     1  LIG1       -0.0377
     84 H           3.3148   -6.7150    1.4917 H       1  LIG1        0.0278
     85 H           3.9852   -8.0573    0.5788 H       1  LIG1        0.0278
     86 H           3.0429   -8.3738    2.0516 H       1  LIG1        0.0278
     87 C           3.8167   -6.1753   -1.7117 C.ar    1  LIG1        0.0341
     88 C           4.6141   -5.1028   -2.1300 C.ar    1  LIG1       -0.0370
     89 C           2.5330   -5.8945   -1.1868 C.ar    1  LIG1        0.0247
     90 C           4.1719   -3.7819   -2.0527 C.ar    1  LIG1       -0.0182
     91 H           5.6016   -5.3059   -2.5374 H       1  LIG1        0.0637
     92 C           2.0869   -4.5716   -1.1425 C.ar    1  LIG1       -0.0090
     93 C           2.8948   -3.5120   -1.5550 C.ar    1  LIG1        0.1208
     94 H           1.0844   -4.3600   -0.7860 H       1  LIG1        0.0661
     95 H           4.8258   -2.9863   -2.3901 H       1  LIG1        0.0655
     96 N           4.3002   -7.4920   -1.7973 N.pl3   1  LIG1       -0.3575
     97 H           3.5729   -8.1876   -1.9099 H       1  LIG1        0.1423
     98 H           5.0228   -7.6131   -2.4952 H       1  LIG1        0.1423
     99 O           2.3510   -2.2518   -1.4287 O.3     1  LIG1       -0.4951
    100 C           3.0111   -1.1800   -2.0872 C.3     1  LIG1        0.0788
    101 H           2.3811   -0.3021   -1.9422 H       1  LIG1        0.0660
    102 H           4.0010   -0.9830   -1.6542 H       1  LIG1        0.0660
    103 H           3.1255   -1.3818   -3.1596 H       1  LIG1        0.0660
@<TRIPOS>BOND
     1   103   100    1
     2    36    35    1
     3    81    80    1
     4    91    88    1
     5    37    35    1
     6    98    96    1
     7    95    90    1
     8    82    80    1
     9    88    90   ar
    10    88    87   ar
    11   100   101    1
    12   100   102    1
    13   100    99    1
    14    90    93   ar
    15    35    30    1
    16    97    96    1
    17    80    73    1
    18    96    87    1
    19    38    31    1
    20    87    89   ar
    21    93    99    1
    22    93    92   ar
    23    30    31   ar
    24    30    29   ar
    25    52    49    1
    26    78    73   ar
    27    78    77   ar
    28    31    32   ar
    29    89    92   ar
    30    89    77    1
    31    92    94    1
    32    28    21    1
    33    73    74   ar
    34    51    49    1
    35    29    22    1
    36    29    33   ar
    37    32    33   ar
    38    32    39    1
    39    21    22   ar
    40    21    20   ar
    41    77    76   ar
    42    49    50    1
    43    49    48    1
    44    22    23   ar
    45    24    20    1
    46    47    46    1
    47    33    34    1
    48    46    45    3
    49    39    40   ar
    50    39    43   ar
    51    20    19   ar
    52    45    40    1
    53    44    43    1
    54    40    41   ar
    55    68    67    1
    56    43    42   ar
    57    23    18   ar
    58     6     5    1
    59    74    66    1
    60    74    75   ar
    61    41    42   ar
    62    41    48    1
    63    19    18   ar
    64    19     4    1
    65    42    53    1
    66    18    25    1
    67    67    66   ar
    68    67    63   ar
    69    76    75   ar
    70    76    83    1
    71    53    57   ar
    72    53    54   ar
    73     5     4   ar
    74     5     1   ar
    75     4     3   ar
    76    60    59    1
    77    57    56   ar
    78    59    58    3
    79    66    65   ar
    80    58    54    1
    81    85    83    1
    82    54    55   ar
    83    75    79    1
    84    56    55   ar
    85    56    63    1
    86    25    26    3
    87     1     7    1
    88     1     2   ar
    89    55    61    1
    90    12     9    1
    91     3    13    1
    92     3     2   ar
    93    63    64   ar
    94    62    61    1
    95    13    14    1
    96     2     8    1
    97    83    84    1
    98    83    86    1
    99    26    27    1
   100    65    64   ar
   101    65    70    1
   102    64    69    1
   103     8     9    1
   104    70    71    3
   105     9    10    1
   106     9    11    1
   107    71    72    1
   108    15    14    1
   109    14    17    1
   110    14    16    1
