@<TRIPOS>MOLECULE
mol_data/opt/b3lyp/geoms/mol2/13ll13ll13ll13ll.out
 66 69 0 0 0
SMALL
GASTEIGER

@<TRIPOS>ATOM
      1 C           0.5130    0.2033   -2.4233 C.ar    1  LIG1        0.0482
      2 C           0.8791    0.8771   -1.2752 C.ar    1  LIG1        0.1795
      3 C          -0.2145    0.7976   -0.3563 C.ar    1  LIG1        0.1884
      4 C          -1.2365    0.0896   -0.9707 C.ar    1  LIG1        0.1126
      5 N          -0.7623   -0.2930   -2.2179 N.ar    1  LIG1       -0.3534
      6 H          -1.3746   -0.5860   -2.9629 H       1  LIG1        0.1656
      7 H           1.0426    0.0306   -3.3459 H       1  LIG1        0.0845
      8 O           2.0508    1.5014   -0.9643 O.3     1  LIG1       -0.4900
      9 C           3.0325    1.4904   -1.9882 C.3     1  LIG1        0.0790
     10 H           3.8984    2.0268   -1.5977 H       1  LIG1        0.0660
     11 H           3.3259    0.4641   -2.2486 H       1  LIG1        0.0660
     12 H           2.6679    1.9960   -2.8925 H       1  LIG1        0.0660
     13 O          -0.2842    1.3467    0.8948 O.3     1  LIG1       -0.4895
     14 C           0.6970    0.8703    1.8208 C.3     1  LIG1        0.0791
     15 H           0.5046    1.3868    2.7634 H       1  LIG1        0.0660
     16 H           0.5979   -0.2120    1.9726 H       1  LIG1        0.0660
     17 H           1.7107    1.0977    1.4766 H       1  LIG1        0.0660
     18 C          -2.5418   -0.3457   -0.5017 C.ar    1  LIG1        0.1131
     19 C          -3.6246    0.2778    0.1207 C.ar    1  LIG1        0.1891
     20 C          -4.6245   -0.7156    0.3480 C.ar    1  LIG1        0.1891
     21 C          -4.1707   -1.9253   -0.1573 C.ar    1  LIG1        0.1131
     22 N          -2.9165   -1.6732   -0.6833 N.ar    1  LIG1       -0.3458
     23 H          -2.3034   -2.3808   -1.0551 H       1  LIG1        0.1662
     24 O          -3.8425    1.5684    0.4949 O.3     1  LIG1       -0.4895
     25 C          -3.1157    2.6004   -0.1692 C.3     1  LIG1        0.0791
     26 H          -3.6226    3.5330    0.0884 H       1  LIG1        0.0660
     27 H          -2.0787    2.6413    0.1722 H       1  LIG1        0.0660
     28 H          -3.1430    2.4628   -1.2570 H       1  LIG1        0.0660
     29 O          -5.8694   -0.5137    0.8795 O.3     1  LIG1       -0.4895
     30 C          -5.8823   -0.0157    2.2203 C.3     1  LIG1        0.0791
     31 H          -6.9333    0.0802    2.5009 H       1  LIG1        0.0660
     32 H          -5.3873   -0.7184    2.9030 H       1  LIG1        0.0660
     33 H          -5.3919    0.9600    2.2850 H       1  LIG1        0.0660
     34 C          -4.7370   -3.2683   -0.1448 C.ar    1  LIG1        0.1131
     35 C          -5.8764   -3.8662   -0.6844 C.ar    1  LIG1        0.1891
     36 C          -5.8576   -5.2474   -0.3241 C.ar    1  LIG1        0.1891
     37 C          -4.7035   -5.4978    0.4048 C.ar    1  LIG1        0.1131
     38 N          -4.0356   -4.2931    0.4899 N.ar    1  LIG1       -0.3458
     39 H          -3.1861   -4.1547    1.0132 H       1  LIG1        0.1662
     40 O          -6.8967   -3.3810   -1.4423 O.3     1  LIG1       -0.4895
     41 C          -6.8254   -2.0332   -1.8990 C.3     1  LIG1        0.0791
     42 H          -7.6901   -1.8976   -2.5519 H       1  LIG1        0.0660
     43 H          -6.8741   -1.3258   -1.0667 H       1  LIG1        0.0660
     44 H          -5.9082   -1.8581   -2.4741 H       1  LIG1        0.0660
     45 O          -6.7708   -6.1975   -0.6975 O.3     1  LIG1       -0.4895
     46 C          -8.0921   -5.9931   -0.1892 C.3     1  LIG1        0.0791
     47 H          -8.6958   -6.8240   -0.5605 H       1  LIG1        0.0660
     48 H          -8.0948   -6.0045    0.9082 H       1  LIG1        0.0660
     49 H          -8.5100   -5.0463   -0.5447 H       1  LIG1        0.0660
     50 C          -4.2080   -6.6837    1.0884 C.ar    1  LIG1        0.1126
     51 C          -3.9432   -7.9993    0.7219 C.ar    1  LIG1        0.1884
     52 C          -3.4808   -8.6932    1.8906 C.ar    1  LIG1        0.1795
     53 C          -3.4629   -7.7981    2.9327 C.ar    1  LIG1        0.0482
     54 N          -3.8460   -6.5722    2.4375 N.ar    1  LIG1       -0.3534
     55 H          -4.2149   -5.8340    3.0168 H       1  LIG1        0.1656
     56 H          -3.1621   -7.9379    3.9594 H       1  LIG1        0.0845
     57 O          -3.9965   -8.6489   -0.4721 O.3     1  LIG1       -0.4895
     58 C          -4.1289   -7.8748   -1.6612 C.3     1  LIG1        0.0791
     59 H          -3.9690   -8.5716   -2.4869 H       1  LIG1        0.0660
     60 H          -5.1246   -7.4309   -1.7395 H       1  LIG1        0.0660
     61 H          -3.3690   -7.0849   -1.7020 H       1  LIG1        0.0660
     62 O          -3.0210   -9.9799    1.9518 O.3     1  LIG1       -0.4900
     63 C          -3.9821  -10.9745    1.5920 C.3     1  LIG1        0.0790
     64 H          -3.4801  -11.9387    1.6999 H       1  LIG1        0.0660
     65 H          -4.8516  -10.9416    2.2620 H       1  LIG1        0.0660
     66 H          -4.3188  -10.8495    0.5583 H       1  LIG1        0.0660
@<TRIPOS>BOND
     1     7     1    1
     2     6     5    1
     3    12     9    1
     4    42    41    1
     5    59    58    1
     6    44    41    1
     7     1     5   ar
     8     1     2   ar
     9    11     9    1
    10     5     4   ar
    11     9    10    1
    12     9     8    1
    13    41    40    1
    14    41    43    1
    15    60    58    1
    16    61    58    1
    17    58    57    1
    18    40    35    1
    19     2     8    1
    20     2     3   ar
    21    28    25    1
    22    23    22    1
    23     4    18    1
    24     4     3   ar
    25    45    36    1
    26    45    46    1
    27    35    36   ar
    28    35    34   ar
    29    22    18   ar
    30    22    21   ar
    31    47    46    1
    32    49    46    1
    33    18    19   ar
    34    57    51    1
    35     3    13    1
    36    36    37   ar
    37    46    48    1
    38    25    26    1
    39    25    27    1
    40    25    24    1
    41    21    34    1
    42    21    20   ar
    43    34    38   ar
    44    19    20   ar
    45    19    24    1
    46    20    29    1
    47    37    38   ar
    48    37    50    1
    49    38    39    1
    50    66    63    1
    51    51    50   ar
    52    51    52   ar
    53    29    30    1
    54    13    14    1
    55    50    54   ar
    56    17    14    1
    57    63    64    1
    58    63    62    1
    59    63    65    1
    60    14    16    1
    61    14    15    1
    62    52    62    1
    63    52    53   ar
    64    30    33    1
    65    30    31    1
    66    30    32    1
    67    54    53   ar
    68    54    55    1
    69    53    56    1
