@<TRIPOS>MOLECULE
mol_data/opt/b3lyp/geoms/mol2/13ll12fd13li-12di-.out
 53 56 0 0 0
SMALL
GASTEIGER

@<TRIPOS>ATOM
      1 C           1.4490   -0.1934    0.7864 C.ar    1  LIG1        0.0482
      2 C           1.2031    1.0267    0.1820 C.ar    1  LIG1        0.1795
      3 C          -0.1621    1.0419   -0.2340 C.ar    1  LIG1        0.1900
      4 C          -0.7241   -0.1745    0.1434 C.ar    1  LIG1        0.1318
      5 N           0.2767   -0.9190    0.7370 N.ar    1  LIG1       -0.3521
      6 H           0.1275   -1.8108    1.1769 H       1  LIG1        0.1656
      7 H           2.3466   -0.6046    1.2183 H       1  LIG1        0.0845
      8 O           2.0442    2.0742   -0.0445 O.3     1  LIG1       -0.4900
      9 C           3.3770    1.8890    0.4028 C.3     1  LIG1        0.0790
     10 H           3.9216    2.7994    0.1490 H       1  LIG1        0.0660
     11 H           3.4156    1.7326    1.4898 H       1  LIG1        0.0660
     12 H           3.8482    1.0316   -0.0968 H       1  LIG1        0.0660
     13 O          -0.7890    2.0009   -0.9699 O.3     1  LIG1       -0.4894
     14 C          -0.9466    3.2617   -0.3102 C.3     1  LIG1        0.0791
     15 H          -1.4172    3.9277   -1.0361 H       1  LIG1        0.0660
     16 H          -1.5985    3.1606    0.5650 H       1  LIG1        0.0660
     17 H           0.0220    3.6744   -0.0096 H       1  LIG1        0.0660
     18 C          -2.0605   -0.6760   -0.0075 C.ar    1  LIG1        0.1980
     19 C          -3.3039   -0.1014   -0.0718 C.ar    1  LIG1        0.1827
     20 C          -4.2667   -1.1647   -0.1984 C.ar    1  LIG1        0.1410
     21 C          -3.5472   -2.3527   -0.1847 C.ar    1  LIG1        0.1765
     22 O          -2.2212   -2.0571   -0.0737 O.2     1  LIG1       -0.4465
     23 O          -3.5758    1.2195    0.0106 O.3     1  LIG1       -0.5023
     24 H          -4.5330    1.3474   -0.0700 H       1  LIG1        0.2923
     25 N          -6.7567   -0.5213   -0.2827 N.1     1  LIG1       -0.1906
     26 C          -5.6546   -0.9022   -0.2620 C.1     1  LIG1        0.1067
     27 C          -3.8710   -3.7410   -0.2674 C.ar    1  LIG1        0.1265
     28 C          -5.0942   -4.4182   -0.3709 C.ar    1  LIG1        0.1519
     29 C          -4.8497   -5.8094   -0.4455 C.ar    1  LIG1        0.0203
     30 C          -3.4568   -5.9606   -0.3675 C.ar    1  LIG1        0.0904
     31 N          -2.8930   -4.7062   -0.2690 N.ar    1  LIG1       -0.3461
     32 H          -1.9026   -4.5220   -0.2584 H       1  LIG1        0.1662
     33 O          -6.3005   -3.7961   -0.4813 O.3     1  LIG1       -0.4926
     34 C          -7.1505   -3.8792    0.6718 C.3     1  LIG1        0.0789
     35 H          -8.0138   -3.2501    0.4546 H       1  LIG1        0.0660
     36 H          -7.4746   -4.9100    0.8539 H       1  LIG1        0.0660
     37 H          -6.6389   -3.4976    1.5626 H       1  LIG1        0.0660
     38 C          -5.9006   -6.8509   -0.6817 C.3     1  LIG1       -0.0341
     39 H          -6.2079   -7.3623    0.2362 H       1  LIG1        0.0279
     40 H          -5.5489   -7.6228   -1.3717 H       1  LIG1        0.0279
     41 H          -6.7829   -6.3791   -1.1228 H       1  LIG1        0.0279
     42 C          -2.5984   -7.1105   -0.4198 C.ar    1  LIG1        0.1688
     43 C          -2.7323   -8.4647   -0.1516 C.ar    1  LIG1        0.1017
     44 C          -1.4434   -9.0792   -0.4008 C.ar    1  LIG1        0.0054
     45 C          -0.6299   -8.0613   -0.7770 C.ar    1  LIG1        0.0968
     46 O          -1.3074   -6.8671   -0.7955 O.2     1  LIG1       -0.4599
     47 H           0.4103   -8.0143   -1.0581 H       1  LIG1        0.1032
     48 N          -4.7501   -9.7368    0.8337 N.1     1  LIG1       -0.1907
     49 C          -3.8572   -9.1431    0.3772 C.1     1  LIG1        0.1033
     50 C          -1.1083  -10.5294   -0.2490 C.3     1  LIG1       -0.0355
     51 H          -0.0531  -10.7126   -0.4663 H       1  LIG1        0.0279
     52 H          -1.7076  -11.1465   -0.9268 H       1  LIG1        0.0279
     53 H          -1.3131  -10.8775    0.7688 H       1  LIG1        0.0279
@<TRIPOS>BOND
     1    40    38    1
     2    41    38    1
     3    47    45    1
     4    15    14    1
     5    13    14    1
     6    13     3    1
     7    52    50    1
     8    46    45   ar
     9    46    42   ar
    10    45    44   ar
    11    38    29    1
    12    38    39    1
    13    33    28    1
    14    33    34    1
    15    51    50    1
    16    29    28   ar
    17    29    30   ar
    18    42    30    1
    19    42    43   ar
    20    44    50    1
    21    44    43   ar
    22    28    27   ar
    23    30    31   ar
    24    14    17    1
    25    14    16    1
    26    25    26    3
    27    31    27   ar
    28    31    32    1
    29    27    21    1
    30    26    20    1
    31    50    53    1
    32     3     4   ar
    33     3     2   ar
    34    20    21   ar
    35    20    19   ar
    36    21    22   ar
    37    43    49    1
    38    12     9    1
    39    22    18   ar
    40    19    18   ar
    41    19    23    1
    42    24    23    1
    43     8     2    1
    44     8     9    1
    45    18     4    1
    46     4     5   ar
    47    10     9    1
    48     2     1   ar
    49    49    48    3
    50     9    11    1
    51    35    34    1
    52    34    36    1
    53    34    37    1
    54     5     1   ar
    55     5     6    1
    56     1     7    1
