@<TRIPOS>MOLECULE
mol_data/opt/b3lyp/geoms/mol2/13ll13ll13ll-13ll-.out
 66 69 0 0 0
SMALL
GASTEIGER

@<TRIPOS>ATOM
      1 C           1.2455   -0.2214   -0.8714 C.ar    1  LIG1        0.0482
      2 C           1.0061    0.9037   -0.1078 C.ar    1  LIG1        0.1795
      3 C          -0.3900    0.9341    0.1993 C.ar    1  LIG1        0.1884
      4 C          -0.9820   -0.1704   -0.3978 C.ar    1  LIG1        0.1126
      5 N           0.0356   -0.8777   -1.0198 N.ar    1  LIG1       -0.3534
      6 H          -0.1412   -1.5815   -1.7186 H       1  LIG1        0.1656
      7 H           2.1531   -0.6096   -1.3035 H       1  LIG1        0.0845
      8 O           1.8744    1.8491    0.3539 O.3     1  LIG1       -0.4900
      9 C           3.2270    1.6635   -0.0279 C.3     1  LIG1        0.0790
     10 H           3.7926    2.4874    0.4098 H       1  LIG1        0.0660
     11 H           3.6207    0.7093    0.3489 H       1  LIG1        0.0660
     12 H           3.3382    1.6859   -1.1207 H       1  LIG1        0.0660
     13 O          -1.0497    1.8875    0.9269 O.3     1  LIG1       -0.4895
     14 C          -0.6653    1.9622    2.3030 C.3     1  LIG1        0.0791
     15 H          -1.2740    2.7510    2.7498 H       1  LIG1        0.0660
     16 H          -0.8656    1.0134    2.8161 H       1  LIG1        0.0660
     17 H           0.3954    2.2148    2.4033 H       1  LIG1        0.0660
     18 C          -2.3379   -0.6841   -0.3756 C.ar    1  LIG1        0.1131
     19 C          -3.6079   -0.1073   -0.4811 C.ar    1  LIG1        0.1891
     20 C          -4.5654   -1.1551   -0.3490 C.ar    1  LIG1        0.1891
     21 C          -3.8798   -2.3503   -0.1689 C.ar    1  LIG1        0.1131
     22 N          -2.5388   -2.0520   -0.2142 N.ar    1  LIG1       -0.3458
     23 H          -1.8320   -2.7104    0.0793 H       1  LIG1        0.1662
     24 O          -3.9977    1.1820   -0.6954 O.3     1  LIG1       -0.4895
     25 C          -3.1608    2.0091   -1.5055 C.3     1  LIG1        0.0791
     26 H          -3.7769    2.8633   -1.7963 H       1  LIG1        0.0660
     27 H          -2.2925    2.3631   -0.9466 H       1  LIG1        0.0660
     28 H          -2.8328    1.4746   -2.4056 H       1  LIG1        0.0660
     29 O          -5.9400   -1.0698   -0.3534 O.3     1  LIG1       -0.4895
     30 C          -6.5044   -0.4335   -1.5071 C.3     1  LIG1        0.0791
     31 H          -7.5888   -0.4836   -1.3862 H       1  LIG1        0.0660
     32 H          -6.1864    0.6099   -1.5699 H       1  LIG1        0.0660
     33 H          -6.2141   -0.9597   -2.4255 H       1  LIG1        0.0660
     34 C          -4.3732   -3.6789    0.0563 C.ar    1  LIG1        0.1131
     35 C          -3.7024   -4.8901    0.1798 C.ar    1  LIG1        0.1891
     36 C          -4.6678   -5.9124    0.3955 C.ar    1  LIG1        0.1891
     37 C          -5.9293   -5.3079    0.3949 C.ar    1  LIG1        0.1131
     38 N          -5.7134   -3.9495    0.2227 N.ar    1  LIG1       -0.3458
     39 H          -6.4214   -3.2514    0.0465 H       1  LIG1        0.1662
     40 O          -2.3311   -5.0010    0.1697 O.3     1  LIG1       -0.4895
     41 C          -1.8153   -5.9438   -0.7781 C.3     1  LIG1        0.0791
     42 H          -0.7290   -5.9335   -0.6623 H       1  LIG1        0.0660
     43 H          -2.2002   -6.9470   -0.5784 H       1  LIG1        0.0660
     44 H          -2.0783   -5.6517   -1.8032 H       1  LIG1        0.0660
     45 O          -4.3374   -7.2315    0.5495 O.3     1  LIG1       -0.4895
     46 C          -4.7259   -7.8287    1.7884 C.3     1  LIG1        0.0791
     47 H          -4.2899   -8.8299    1.7930 H       1  LIG1        0.0660
     48 H          -4.3348   -7.2556    2.6385 H       1  LIG1        0.0660
     49 H          -5.8130   -7.9136    1.8697 H       1  LIG1        0.0660
     50 C          -7.2713   -5.8109    0.5856 C.ar    1  LIG1        0.1126
     51 C          -7.8665   -7.0253    0.2709 C.ar    1  LIG1        0.1884
     52 C          -9.2399   -6.9532    0.6676 C.ar    1  LIG1        0.1795
     53 C          -9.4590   -5.7038    1.2094 C.ar    1  LIG1        0.0482
     54 N          -8.2637   -5.0049    1.1262 N.ar    1  LIG1       -0.3534
     55 H          -8.0493   -4.2159    1.7165 H       1  LIG1        0.1656
     56 H         -10.3446   -5.2521    1.6252 H       1  LIG1        0.0845
     57 O          -7.2320   -8.0958   -0.2938 O.3     1  LIG1       -0.4895
     58 C          -7.7044   -8.4548   -1.5945 C.3     1  LIG1        0.0791
     59 H          -7.1019   -9.3072   -1.9155 H       1  LIG1        0.0660
     60 H          -8.7611   -8.7416   -1.5682 H       1  LIG1        0.0660
     61 H          -7.5693   -7.6278   -2.3031 H       1  LIG1        0.0660
     62 O         -10.1083   -7.9849    0.4664 O.3     1  LIG1       -0.4900
     63 C         -11.4307   -7.7584    0.9247 C.3     1  LIG1        0.0790
     64 H         -11.9985   -8.6636    0.7045 H       1  LIG1        0.0660
     65 H         -11.4493   -7.5708    2.0070 H       1  LIG1        0.0660
     66 H         -11.8913   -6.9042    0.4092 H       1  LIG1        0.0660
@<TRIPOS>BOND
     1    33    30    1
     2    28    25    1
     3    61    58    1
     4    59    58    1
     5    44    41    1
     6    26    25    1
     7     6     5    1
     8    58    60    1
     9    58    57    1
    10    32    30    1
    11    30    31    1
    12    30    29    1
    13    25    27    1
    14    25    24    1
    15     7     1    1
    16    12     9    1
    17     5     1   ar
    18     5     4   ar
    19     1     2   ar
    20    41    42    1
    21    41    43    1
    22    41    40    1
    23    24    19    1
    24    19    18   ar
    25    19    20   ar
    26     4    18    1
    27     4     3   ar
    28    18    22   ar
    29    29    20    1
    30    20    21   ar
    31    57    51    1
    32    22    21   ar
    33    22    23    1
    34    21    34    1
    35     2     3   ar
    36     2     8    1
    37     9    11    1
    38     9     8    1
    39     9    10    1
    40    39    38    1
    41    34    35   ar
    42    34    38   ar
    43    40    35    1
    44    35    36   ar
    45     3    13    1
    46    38    37   ar
    47    51    50   ar
    48    51    52   ar
    49    37    36   ar
    50    37    50    1
    51    36    45    1
    52    66    63    1
    53    62    52    1
    54    62    63    1
    55    45    46    1
    56    50    54   ar
    57    52    53   ar
    58    64    63    1
    59    63    65    1
    60    13    14    1
    61    54    53   ar
    62    54    55    1
    63    53    56    1
    64    46    47    1
    65    46    49    1
    66    46    48    1
    67    14    17    1
    68    14    15    1
    69    14    16    1
