@<TRIPOS>MOLECULE
mol_data/opt/b3lyp/geoms/mol2/2.out
 6 5 0 0 0
SMALL
GASTEIGER

@<TRIPOS>ATOM
      1 C           0.0051    0.0118   -0.0000 C.2     1  LIG1       -0.1058
      2 H           1.0918   -0.0030   -0.0005 H       1  LIG1        0.0529
      3 C          -0.6815    1.1511    0.0002 C.2     1  LIG1       -0.1058
      4 H          -1.7681    1.1652    0.0009 H       1  LIG1        0.0529
      5 H          -0.1865    2.1186   -0.0001 H       1  LIG1        0.0529
      6 H          -0.4897   -0.9556    0.0005 H       1  LIG1        0.0529
@<TRIPOS>BOND
     1     2     1    1
     2     5     3    1
     3     1     3    2
     4     1     6    1
     5     3     4    1
