@<TRIPOS>MOLECULE
mol_data/opt/b3lyp/geoms/mol2/22-.out
 10 9 0 0 0
SMALL
GASTEIGER

@<TRIPOS>ATOM
      1 C          -0.0281   -0.0911    0.0000 C.2     1  LIG1       -0.0987
      2 H           1.0568   -0.1496   -0.0011 H       1  LIG1        0.0535
      3 C          -0.6849    1.0762    0.0003 C.2     1  LIG1       -0.0694
      4 H          -1.7735    1.0476    0.0013 H       1  LIG1        0.0612
      5 H          -0.5628   -1.0356    0.0010 H       1  LIG1        0.0535
      6 C          -0.1015    2.4267   -0.0007 C.2     1  LIG1       -0.0694
      7 H          -0.8270    3.2389   -0.0016 H       1  LIG1        0.0612
      8 C           1.1986    2.7489   -0.0005 C.2     1  LIG1       -0.0987
      9 H           1.9850    1.9992    0.0007 H       1  LIG1        0.0535
     10 H           1.5194    3.7850   -0.0013 H       1  LIG1        0.0535
@<TRIPOS>BOND
     1     7     6    1
     2    10     8    1
     3     2     1    1
     4     6     8    2
     5     6     3    1
     6     8     9    1
     7     1     3    2
     8     1     5    1
     9     3     4    1
