@<TRIPOS>MOLECULE
mol_data/opt/b3lyp/geoms/mol2/22-22-.out
 18 17 0 0 0
SMALL
GASTEIGER

@<TRIPOS>ATOM
      1 C          -0.0940   -0.2463    0.0008 C.2     1  LIG1       -0.0987
      2 H           0.9904   -0.3081   -0.0004 H       1  LIG1        0.0535
      3 C          -0.7544    0.9236    0.0008 C.2     1  LIG1       -0.0689
      4 H          -1.8429    0.8857    0.0020 H       1  LIG1        0.0612
      5 H          -0.6304   -1.1890    0.0021 H       1  LIG1        0.0535
      6 C          -0.1928    2.2716   -0.0007 C.2     1  LIG1       -0.0623
      7 H          -0.9282    3.0738   -0.0015 H       1  LIG1        0.0617
      8 C           1.1216    2.5998   -0.0012 C.2     1  LIG1       -0.0618
      9 H           1.8490    1.7899   -0.0004 H       1  LIG1        0.0618
     10 C           1.6981    3.9329   -0.0027 C.2     1  LIG1       -0.0618
     11 H           2.7865    3.9576   -0.0036 H       1  LIG1        0.0618
     12 C           1.0370    5.1155   -0.0032 C.2     1  LIG1       -0.0623
     13 H          -0.0512    5.1019   -0.0024 H       1  LIG1        0.0617
     14 C           1.6347    6.4479   -0.0047 C.2     1  LIG1       -0.0689
     15 H           0.9168    7.2670   -0.0057 H       1  LIG1        0.0612
     16 C           2.9395    6.7679   -0.0048 C.2     1  LIG1       -0.0987
     17 H           3.7271    6.0201   -0.0036 H       1  LIG1        0.0535
     18 H           3.2590    7.8046   -0.0060 H       1  LIG1        0.0535
@<TRIPOS>BOND
     1    18    16    1
     2    15    14    1
     3    16    14    2
     4    16    17    1
     5    14    12    1
     6    11    10    1
     7    12    10    2
     8    12    13    1
     9    10     8    1
    10     7     6    1
    11     8     6    2
    12     8     9    1
    13     6     3    1
    14     2     1    1
    15     3     1    2
    16     3     4    1
    17     1     5    1
