@<TRIPOS>MOLECULE
mol_data/opt/b3lyp/geoms/mol2/22-2-.out
 14 13 0 0 0
SMALL
GASTEIGER

@<TRIPOS>ATOM
      1 C          -0.0944   -0.1587    0.0003 C.2     1  LIG1       -0.0987
      2 H           0.9878   -0.2513   -0.0008 H       1  LIG1        0.0535
      3 C          -0.7184    1.0296    0.0004 C.2     1  LIG1       -0.0689
      4 H          -1.8074    1.0284    0.0014 H       1  LIG1        0.0612
      5 H          -0.6581   -1.0856    0.0013 H       1  LIG1        0.0535
      6 C          -0.1072    2.3579   -0.0008 C.2     1  LIG1       -0.0623
      7 H          -0.8067    3.1932   -0.0016 H       1  LIG1        0.0617
      8 C           1.2120    2.6514   -0.0008 C.2     1  LIG1       -0.0623
      9 H           1.9480    1.8480    0.0002 H       1  LIG1        0.0617
     10 C           1.7348    4.0033   -0.0021 C.2     1  LIG1       -0.0689
     11 H           0.9977    4.8063   -0.0030 H       1  LIG1        0.0612
     12 C           3.0413    4.3132   -0.0023 C.2     1  LIG1       -0.0987
     13 H           3.8077    3.5425   -0.0014 H       1  LIG1        0.0535
     14 H           3.3833    5.3427   -0.0033 H       1  LIG1        0.0535
@<TRIPOS>BOND
     1    14    12    1
     2    11    10    1
     3    12    10    2
     4    12    13    1
     5    10     8    1
     6     7     6    1
     7     8     6    2
     8     8     9    1
     9     2     1    1
    10     6     3    1
    11     1     3    2
    12     1     5    1
    13     3     4    1
