@<TRIPOS>MOLECULE
mol_data/opt/b3lyp/geoms/mol2/22-22.out
 18 17 0 0 0
SMALL
GASTEIGER

@<TRIPOS>ATOM
      1 C          -0.0301   -0.2495    0.0009 C.2     1  LIG1       -0.0987
      2 H           1.0556   -0.2827   -0.0001 H       1  LIG1        0.0535
      3 C          -0.7204    0.9029    0.0006 C.2     1  LIG1       -0.0689
      4 H          -1.8076    0.8374    0.0015 H       1  LIG1        0.0612
      5 H          -0.5417   -1.2059    0.0021 H       1  LIG1        0.0535
      6 C          -0.1925    2.2646   -0.0009 C.2     1  LIG1       -0.0623
      7 H          -0.9473    3.0488   -0.0018 H       1  LIG1        0.0617
      8 C           1.1128    2.6261   -0.0011 C.2     1  LIG1       -0.0618
      9 H           1.8623    1.8366   -0.0001 H       1  LIG1        0.0618
     10 C           1.6494    3.9754   -0.0025 C.2     1  LIG1       -0.0618
     11 H           2.7370    4.0413   -0.0032 H       1  LIG1        0.0618
     12 C           0.9610    5.1431   -0.0030 C.2     1  LIG1       -0.0623
     13 H          -0.1283    5.1344   -0.0022 H       1  LIG1        0.0617
     14 C           1.5931    6.4449   -0.0045 C.2     1  LIG1       -0.0689
     15 H           2.6832    6.4530   -0.0052 H       1  LIG1        0.0612
     16 C           0.9302    7.6139   -0.0051 C.2     1  LIG1       -0.0987
     17 H          -0.1561    7.6504   -0.0044 H       1  LIG1        0.0535
     18 H           1.4516    8.5651   -0.0062 H       1  LIG1        0.0535
@<TRIPOS>BOND
     1    18    16    1
     2    15    14    1
     3    16    14    2
     4    16    17    1
     5    14    12    1
     6    11    10    1
     7    12    10    2
     8    12    13    1
     9    10     8    1
    10     7     6    1
    11     8     6    2
    12     8     9    1
    13     6     3    1
    14     2     1    1
    15     3     1    2
    16     3     4    1
    17     1     5    1
