@<TRIPOS>MOLECULE
mol_data/opt/b3lyp/geoms/mol2/22-2.out
 14 13 0 0 0
SMALL
GASTEIGER

@<TRIPOS>ATOM
      1 C          -0.0463   -0.1724    0.0005 C.2     1  LIG1       -0.0987
      2 H           1.0385   -0.2276   -0.0005 H       1  LIG1        0.0535
      3 C          -0.7133    0.9925    0.0003 C.2     1  LIG1       -0.0689
      4 H          -1.8015    0.9492    0.0012 H       1  LIG1        0.0612
      5 H          -0.5769   -1.1187    0.0015 H       1  LIG1        0.0535
      6 C          -0.1567    2.3453   -0.0009 C.2     1  LIG1       -0.0623
      7 H          -0.8956    3.1448   -0.0019 H       1  LIG1        0.0617
      8 C           1.1513    2.6822   -0.0009 C.2     1  LIG1       -0.0623
      9 H           1.8902    1.8828    0.0001 H       1  LIG1        0.0617
     10 C           1.7078    4.0351   -0.0021 C.2     1  LIG1       -0.0689
     11 H           2.7960    4.0784   -0.0030 H       1  LIG1        0.0612
     12 C           1.0408    5.2000   -0.0023 C.2     1  LIG1       -0.0987
     13 H          -0.0440    5.2551   -0.0014 H       1  LIG1        0.0535
     14 H           1.5714    6.1462   -0.0033 H       1  LIG1        0.0535
@<TRIPOS>BOND
     1    14    12    1
     2    11    10    1
     3    12    10    2
     4    12    13    1
     5    10     8    1
     6     7     6    1
     7     6     8    2
     8     6     3    1
     9     8     9    1
    10     2     1    1
    11     3     1    2
    12     3     4    1
    13     1     5    1
