@<TRIPOS>MOLECULE
mol_data/opt/b3lyp/geoms/mol2/22-2-2-.out
 18 17 0 0 0
SMALL
GASTEIGER

@<TRIPOS>ATOM
      1 C          -0.1573   -0.2004    0.0008 C.2     1  LIG1       -0.0987
      2 H           0.9237   -0.3073   -0.0001 H       1  LIG1        0.0535
      3 C          -0.7668    0.9966    0.0005 C.2     1  LIG1       -0.0689
      4 H          -1.8558    1.0077    0.0013 H       1  LIG1        0.0612
      5 H          -0.7331   -1.1199    0.0019 H       1  LIG1        0.0535
      6 C          -0.1418    2.3158   -0.0008 C.2     1  LIG1       -0.0623
      7 H          -0.8302    3.1601   -0.0017 H       1  LIG1        0.0617
      8 C           1.1848    2.5919   -0.0010 C.2     1  LIG1       -0.0618
      9 H           1.9046    1.7740    0.0001 H       1  LIG1        0.0618
     10 C           1.7280    3.9253   -0.0024 C.2     1  LIG1       -0.0618
     11 H           1.0125    4.7483   -0.0033 H       1  LIG1        0.0618
     12 C           3.0526    4.2142   -0.0028 C.2     1  LIG1       -0.0623
     13 H           3.7717    3.3947   -0.0019 H       1  LIG1        0.0617
     14 C           3.5926    5.5569   -0.0043 C.2     1  LIG1       -0.0689
     15 H           2.8670    6.3703   -0.0050 H       1  LIG1        0.0612
     16 C           4.9036    5.8511   -0.0050 C.2     1  LIG1       -0.0987
     17 H           5.6605    5.0711   -0.0044 H       1  LIG1        0.0535
     18 H           5.2575    6.8762   -0.0061 H       1  LIG1        0.0535
@<TRIPOS>BOND
     1    18    16    1
     2    16    17    1
     3    16    14    2
     4    15    14    1
     5    14    12    1
     6    11    10    1
     7    12    10    2
     8    12    13    1
     9    10     8    1
    10     7     6    1
    11     8     6    2
    12     8     9    1
    13     6     3    1
    14     2     1    1
    15     3     1    2
    16     3     4    1
    17     1     5    1
