@<TRIPOS>MOLECULE
mol_data/opt/b3lyp/geoms/mol2/22-2-2.out
 18 17 0 0 0
SMALL
GASTEIGER

@<TRIPOS>ATOM
      1 C          -0.1136   -0.2332    0.0010 C.2     1  LIG1       -0.0987
      2 H           0.9696   -0.3132    0.0001 H       1  LIG1        0.0535
      3 C          -0.7530    0.9483    0.0005 C.2     1  LIG1       -0.0689
      4 H          -1.8419    0.9317    0.0013 H       1  LIG1        0.0612
      5 H          -0.6664   -1.1666    0.0022 H       1  LIG1        0.0535
      6 C          -0.1622    2.2827   -0.0009 C.2     1  LIG1       -0.0623
      7 H          -0.8719    3.1091   -0.0020 H       1  LIG1        0.0617
      8 C           1.1574    2.5929   -0.0011 C.2     1  LIG1       -0.0618
      9 H           1.8981    1.7937    0.0001 H       1  LIG1        0.0618
     10 C           1.6660    3.9391   -0.0026 C.2     1  LIG1       -0.0618
     11 H           0.9253    4.7383   -0.0037 H       1  LIG1        0.0618
     12 C           2.9856    4.2492   -0.0030 C.2     1  LIG1       -0.0623
     13 H           3.6953    3.4228   -0.0021 H       1  LIG1        0.0617
     14 C           3.5764    5.5835   -0.0045 C.2     1  LIG1       -0.0689
     15 H           4.6653    5.6002   -0.0054 H       1  LIG1        0.0612
     16 C           2.9370    6.7650   -0.0048 C.2     1  LIG1       -0.0987
     17 H           1.8538    6.8452   -0.0038 H       1  LIG1        0.0535
     18 H           3.4896    7.6982   -0.0061 H       1  LIG1        0.0535
@<TRIPOS>BOND
     1    18    16    1
     2    15    14    1
     3    16    14    2
     4    16    17    1
     5    14    12    1
     6    11    10    1
     7    12    10    2
     8    12    13    1
     9    10     8    1
    10     7     6    1
    11     8     6    2
    12     8     9    1
    13     6     3    1
    14     2     1    1
    15     3     1    2
    16     3     4    1
    17     1     5    1
