@<TRIPOS>MOLECULE
mol_data/opt/b3lyp/geoms/mol2/22.out
 10 9 0 0 0
SMALL
GASTEIGER

@<TRIPOS>ATOM
      1 C          -0.0132   -0.0439    0.0002 C.2     1  LIG1       -0.0987
      2 H           1.0738   -0.0415   -0.0006 H       1  LIG1        0.0535
      3 C          -0.7147    1.0979    0.0003 C.2     1  LIG1       -0.0694
      4 H          -1.8039    1.0566    0.0011 H       1  LIG1        0.0612
      5 H          -0.5006   -1.0132    0.0007 H       1  LIG1        0.0535
      6 C          -0.1196    2.4279   -0.0006 C.2     1  LIG1       -0.0694
      7 H           0.9696    2.4695   -0.0013 H       1  LIG1        0.0612
      8 C          -0.8211    3.5697   -0.0006 C.2     1  LIG1       -0.0987
      9 H          -1.9081    3.5677    0.0000 H       1  LIG1        0.0535
     10 H          -0.3337    4.5392   -0.0015 H       1  LIG1        0.0535
@<TRIPOS>BOND
     1    10     8    1
     2     7     6    1
     3     2     1    1
     4     8     6    2
     5     8     9    1
     6     6     3    1
     7     1     3    2
     8     1     5    1
     9     3     4    1
