@<TRIPOS>MOLECULE
mol_data/opt/b3lyp/geoms/mol2/222-.out
 14 13 0 0 0
SMALL
GASTEIGER

@<TRIPOS>ATOM
      1 C          -0.0646   -0.1422    0.0003 C.2     1  LIG1       -0.0987
      2 H           1.0219   -0.1728   -0.0007 H       1  LIG1        0.0535
      3 C          -0.7330    1.0224    0.0004 C.2     1  LIG1       -0.0689
      4 H          -1.8230    1.0102    0.0015 H       1  LIG1        0.0612
      5 H          -0.5808   -1.0965    0.0014 H       1  LIG1        0.0535
      6 C          -0.1058    2.3291   -0.0009 C.2     1  LIG1       -0.0623
      7 H           0.9836    2.3425   -0.0020 H       1  LIG1        0.0617
      8 C          -0.7952    3.4915   -0.0010 C.2     1  LIG1       -0.0623
      9 H          -1.8829    3.4295   -0.0000 H       1  LIG1        0.0617
     10 C          -0.2457    4.8463   -0.0022 C.2     1  LIG1       -0.0689
     11 H          -0.9908    5.6405   -0.0030 H       1  LIG1        0.0612
     12 C           1.0475    5.2057   -0.0024 C.2     1  LIG1       -0.0987
     13 H           1.8561    4.4805   -0.0013 H       1  LIG1        0.0535
     14 H           1.3366    6.2509   -0.0033 H       1  LIG1        0.0535
@<TRIPOS>BOND
     1    14    12    1
     2    11    10    1
     3    12    10    2
     4    12    13    1
     5    10     8    1
     6     7     6    1
     7     8     6    2
     8     8     9    1
     9     6     3    1
    10     2     1    1
    11     1     3    2
    12     1     5    1
    13     3     4    1
