@<TRIPOS>MOLECULE
mol_data/opt/b3lyp/geoms/mol2/222-2-.out
 18 17 0 0 0
SMALL
GASTEIGER

@<TRIPOS>ATOM
      1 C          -0.1650   -0.2308    0.0007 C.2     1  LIG1       -0.0987
      2 H           0.9199   -0.2970   -0.0004 H       1  LIG1        0.0535
      3 C          -0.7954    0.9558    0.0007 C.2     1  LIG1       -0.0689
      4 H          -1.8853    0.9783    0.0018 H       1  LIG1        0.0612
      5 H          -0.7121   -1.1672    0.0019 H       1  LIG1        0.0535
      6 C          -0.1276    2.2399   -0.0009 C.2     1  LIG1       -0.0623
      7 H           0.9616    2.2189   -0.0020 H       1  LIG1        0.0617
      8 C          -0.7833    3.4258   -0.0010 C.2     1  LIG1       -0.0618
      9 H          -1.8723    3.3916   -0.0000 H       1  LIG1        0.0618
     10 C          -0.2059    4.7576   -0.0025 C.2     1  LIG1       -0.0618
     11 H          -0.9252    5.5759   -0.0031 H       1  LIG1        0.0618
     12 C           1.1080    5.0897   -0.0030 C.2     1  LIG1       -0.0623
     13 H           1.8678    4.3090   -0.0022 H       1  LIG1        0.0617
     14 C           1.5887    6.4548   -0.0045 C.2     1  LIG1       -0.0689
     15 H           0.8274    7.2349   -0.0052 H       1  LIG1        0.0612
     16 C           2.8858    6.8058   -0.0051 C.2     1  LIG1       -0.0987
     17 H           3.6757    6.0592   -0.0045 H       1  LIG1        0.0535
     18 H           3.1954    7.8455   -0.0063 H       1  LIG1        0.0535
@<TRIPOS>BOND
     1    18    16    1
     2    15    14    1
     3    16    14    2
     4    16    17    1
     5    14    12    1
     6    11    10    1
     7    12    10    2
     8    12    13    1
     9    10     8    1
    10     7     6    1
    11     8     6    2
    12     8     9    1
    13     6     3    1
    14     2     1    1
    15     3     1    2
    16     3     4    1
    17     1     5    1
