@<TRIPOS>MOLECULE
mol_data/opt/b3lyp/geoms/mol2/222-2.out
 18 17 0 0 0
SMALL
GASTEIGER

@<TRIPOS>ATOM
      1 C          -0.0938   -0.2230    0.0009 C.2     1  LIG1       -0.0987
      2 H           0.9924   -0.2604   -0.0001 H       1  LIG1        0.0535
      3 C          -0.7558    0.9465    0.0007 C.2     1  LIG1       -0.0689
      4 H          -1.8459    0.9392    0.0018 H       1  LIG1        0.0612
      5 H          -0.6159   -1.1736    0.0022 H       1  LIG1        0.0535
      6 C          -0.1227    2.2478   -0.0009 C.2     1  LIG1       -0.0623
      7 H           0.9666    2.2556   -0.0019 H       1  LIG1        0.0617
      8 C          -0.8100    3.4160   -0.0012 C.2     1  LIG1       -0.0618
      9 H          -1.8977    3.3511   -0.0003 H       1  LIG1        0.0618
     10 C          -0.2722    4.7649   -0.0028 C.2     1  LIG1       -0.0618
     11 H          -1.0209    5.5551   -0.0036 H       1  LIG1        0.0618
     12 C           1.0335    5.1253   -0.0032 C.2     1  LIG1       -0.0623
     13 H           1.7875    4.3403   -0.0024 H       1  LIG1        0.0617
     14 C           1.5627    6.4866   -0.0047 C.2     1  LIG1       -0.0689
     15 H           2.6499    6.5509   -0.0058 H       1  LIG1        0.0612
     16 C           0.8734    7.6395   -0.0048 C.2     1  LIG1       -0.0987
     17 H          -0.2123    7.6737   -0.0036 H       1  LIG1        0.0535
     18 H           1.3859    8.5957   -0.0061 H       1  LIG1        0.0535
@<TRIPOS>BOND
     1    18    16    1
     2    15    14    1
     3    16    14    2
     4    16    17    1
     5    14    12    1
     6    11    10    1
     7    12    10    2
     8    12    13    1
     9    10     8    1
    10     7     6    1
    11     8     6    2
    12     8     9    1
    13     6     3    1
    14     2     1    1
    15     3     1    2
    16     3     4    1
    17     1     5    1
