@<TRIPOS>MOLECULE
mol_data/opt/b3lyp/geoms/mol2/222.out
 14 13 0 0 0
SMALL
GASTEIGER

@<TRIPOS>ATOM
      1 C          -0.0133   -0.0966    0.0004 C.2     1  LIG1       -0.0987
      2 H           1.0736   -0.0910   -0.0005 H       1  LIG1        0.0535
      3 C          -0.7201    1.0448    0.0003 C.2     1  LIG1       -0.0689
      4 H          -1.8089    0.9955    0.0012 H       1  LIG1        0.0612
      5 H          -0.4977   -1.0675    0.0013 H       1  LIG1        0.0535
      6 C          -0.1366    2.3719   -0.0009 C.2     1  LIG1       -0.0623
      7 H           0.9523    2.4290   -0.0017 H       1  LIG1        0.0617
      8 C          -0.8525    3.5186   -0.0010 C.2     1  LIG1       -0.0623
      9 H          -1.9414    3.4615   -0.0001 H       1  LIG1        0.0617
     10 C          -0.2691    4.8457   -0.0022 C.2     1  LIG1       -0.0689
     11 H           0.8198    4.8950   -0.0030 H       1  LIG1        0.0612
     12 C          -0.9759    5.9871   -0.0024 C.2     1  LIG1       -0.0987
     13 H          -2.0628    5.9815   -0.0016 H       1  LIG1        0.0535
     14 H          -0.4918    6.9575   -0.0033 H       1  LIG1        0.0535
@<TRIPOS>BOND
     1    14    12    1
     2    11    10    1
     3    12    10    2
     4    12    13    1
     5    10     8    1
     6     7     6    1
     7     8     6    2
     8     8     9    1
     9     6     3    1
    10     2     1    1
    11     3     1    2
    12     3     4    1
    13     1     5    1
