@<TRIPOS>MOLECULE
mol_data/opt/b3lyp/geoms/mol2/2222.out
 18 17 0 0 0
SMALL
GASTEIGER

@<TRIPOS>ATOM
      1 C          -0.0112   -0.1490    0.0007 C.2     1  LIG1       -0.0987
      2 H           1.0757   -0.1437   -0.0003 H       1  LIG1        0.0535
      3 C          -0.7180    0.9935    0.0006 C.2     1  LIG1       -0.0689
      4 H          -1.8069    0.9434    0.0017 H       1  LIG1        0.0612
      5 H          -0.4961   -1.1197    0.0020 H       1  LIG1        0.0535
      6 C          -0.1365    2.3189   -0.0009 C.2     1  LIG1       -0.0623
      7 H           0.9521    2.3786   -0.0019 H       1  LIG1        0.0617
      8 C          -0.8568    3.4669   -0.0012 C.2     1  LIG1       -0.0618
      9 H          -1.9453    3.4020   -0.0002 H       1  LIG1        0.0618
     10 C          -0.2841    4.7886   -0.0027 C.2     1  LIG1       -0.0618
     11 H           0.8044    4.8535   -0.0036 H       1  LIG1        0.0618
     12 C          -1.0044    5.9366   -0.0031 C.2     1  LIG1       -0.0623
     13 H          -2.0931    5.8768   -0.0021 H       1  LIG1        0.0617
     14 C          -0.4230    7.2620   -0.0046 C.2     1  LIG1       -0.0689
     15 H           0.6659    7.3122   -0.0055 H       1  LIG1        0.0612
     16 C          -1.1300    8.4044   -0.0051 C.2     1  LIG1       -0.0987
     17 H          -2.2168    8.3992   -0.0042 H       1  LIG1        0.0535
     18 H          -0.6455    9.3744   -0.0062 H       1  LIG1        0.0535
@<TRIPOS>BOND
     1    18    16    1
     2    15    14    1
     3    16    14    2
     4    16    17    1
     5    14    12    1
     6    11    10    1
     7    12    10    2
     8    12    13    1
     9    10     8    1
    10     7     6    1
    11     8     6    2
    12     8     9    1
    13     6     3    1
    14     2     1    1
    15     3     1    2
    16     3     4    1
    17     1     5    1
