@<TRIPOS>MOLECULE
mol_data/opt/b3lyp/geoms/mol2/2222-.out
 18 17 0 0 0
SMALL
GASTEIGER

@<TRIPOS>ATOM
      1 C          -0.0665   -0.1882    0.0007 C.2     1  LIG1       -0.0987
      2 H           1.0202   -0.2060   -0.0005 H       1  LIG1        0.0535
      3 C          -0.7489    0.9692    0.0007 C.2     1  LIG1       -0.0689
      4 H          -1.8386    0.9421    0.0020 H       1  LIG1        0.0612
      5 H          -0.5719   -1.1482    0.0020 H       1  LIG1        0.0535
      6 C          -0.1394    2.2818   -0.0009 C.2     1  LIG1       -0.0623
      7 H           0.9503    2.3182   -0.0021 H       1  LIG1        0.0617
      8 C          -0.8350    3.4453   -0.0011 C.2     1  LIG1       -0.0618
      9 H          -1.9248    3.4042    0.0001 H       1  LIG1        0.0618
     10 C          -0.2344    4.7539   -0.0028 C.2     1  LIG1       -0.0618
     11 H           0.8546    4.7885   -0.0039 H       1  LIG1        0.0618
     12 C          -0.9408    5.9102   -0.0030 C.2     1  LIG1       -0.0623
     13 H          -2.0275    5.8344   -0.0020 H       1  LIG1        0.0617
     14 C          -0.4068    7.2683   -0.0046 C.2     1  LIG1       -0.0689
     15 H          -1.1602    8.0547   -0.0054 H       1  LIG1        0.0612
     16 C           0.8831    7.6432   -0.0051 C.2     1  LIG1       -0.0987
     17 H           1.7009    6.9282   -0.0041 H       1  LIG1        0.0535
     18 H           1.1593    8.6918   -0.0063 H       1  LIG1        0.0535
@<TRIPOS>BOND
     1    18    16    1
     2    15    14    1
     3    16    14    2
     4    16    17    1
     5    14    12    1
     6    11    10    1
     7    12    10    2
     8    12    13    1
     9    10     8    1
    10     7     6    1
    11     8     6    2
    12     8     9    1
    13     6     3    1
    14     2     1    1
    15     3     1    2
    16     3     4    1
    17     1     5    1
