@<TRIPOS>MOLECULE
mol_data/opt/b3lyp/geoms/mol2/3.out
 4 3 0 0 0
SMALL
GASTEIGER

@<TRIPOS>ATOM
      1 C           0.8464    0.1188    0.0461 C.1     1  LIG1       -0.1225
      2 C           1.5641    1.0861    0.0036 C.1     1  LIG1       -0.1225
      3 H           2.1987    1.9413   -0.0341 H       1  LIG1        0.1225
      4 H           0.2117   -0.7366    0.0841 H       1  LIG1        0.1225
@<TRIPOS>BOND
     1     3     2    1
     2     2     1    3
     3     1     4    1
