@<TRIPOS>MOLECULE
mol_data/opt/b3lyp/geoms/mol2/412-5.out
 26 28 0 0 0
SMALL
GASTEIGER

@<TRIPOS>ATOM
      1 C          -0.1502    0.1797    0.0004 C.ar    1  LIG1       -0.0611
      2 C           1.2385    0.0776    0.0002 C.ar    1  LIG1       -0.0511
      3 C          -0.7683    1.4313    0.0003 C.ar    1  LIG1       -0.0617
      4 C           2.0397    1.2337   -0.0002 C.ar    1  LIG1        0.0173
      5 H           1.7132   -0.8969    0.0003 H       1  LIG1        0.0625
      6 C           0.0188    2.5857   -0.0001 C.ar    1  LIG1       -0.0611
      7 C           1.4065    2.4910   -0.0004 C.ar    1  LIG1       -0.0511
      8 H          -0.4511    3.5650   -0.0002 H       1  LIG1        0.0618
      9 H          -1.8515    1.5077    0.0006 H       1  LIG1        0.0618
     10 H          -0.7529   -0.7239    0.0007 H       1  LIG1        0.0618
     11 H           2.0049    3.3967   -0.0007 H       1  LIG1        0.0625
     12 C           3.4923    1.1401   -0.0005 C.ar    1  LIG1        0.1357
     13 C           4.5029    2.0714   -0.0006 C.ar    1  LIG1       -0.0152
     14 C           5.7303    1.3548   -0.0007 C.ar    1  LIG1       -0.0147
     15 C           5.4068    0.0193   -0.0008 C.ar    1  LIG1        0.1422
     16 O           4.0441   -0.1166   -0.0006 O.2     1  LIG1       -0.4543
     17 H           4.3839    3.1449   -0.0005 H       1  LIG1        0.0656
     18 H           6.7281    1.7699   -0.0008 H       1  LIG1        0.0656
     19 C           6.1791   -1.1974   -0.0010 C.ar    1  LIG1        0.0544
     20 C           5.7215   -2.4975   -0.0014 C.ar    1  LIG1       -0.0440
     21 C           6.7693   -3.4609   -0.0015 C.ar    1  LIG1       -0.0540
     22 C           8.0144   -2.8959   -0.0012 C.ar    1  LIG1       -0.0236
     23 S           7.9313   -1.1608   -0.0006 S.2     1  LIG1       -0.0936
     24 H           8.9782   -3.3862   -0.0013 H       1  LIG1        0.0693
     25 H           4.6664   -2.7411   -0.0016 H       1  LIG1        0.0630
     26 H           6.6029   -4.5322   -0.0018 H       1  LIG1        0.0623
@<TRIPOS>BOND
     1    26    21    1
     2    25    20    1
     3    21    20   ar
     4    21    22   ar
     5    20    19   ar
     6    24    22    1
     7    22    23   ar
     8    19    15    1
     9    19    23   ar
    10    18    14    1
    11    15    14   ar
    12    15    16   ar
    13    14    13   ar
    14    11     7    1
    15    16    12   ar
    16    13    12   ar
    17    13    17    1
    18    12     4    1
    19     7     4   ar
    20     7     6   ar
    21     4     2   ar
    22     8     6    1
    23     6     3   ar
    24     2     5    1
    25     2     1   ar
    26     3     1   ar
    27     3     9    1
    28     1    10    1
