@<TRIPOS>MOLECULE
mol_data/opt/b3lyp/geoms/mol2/412-13.out
 27 29 0 0 0
SMALL
GASTEIGER

@<TRIPOS>ATOM
      1 C          -0.1259    0.1541    0.0006 C.ar    1  LIG1       -0.0611
      2 C           1.2639    0.0662    0.0004 C.ar    1  LIG1       -0.0511
      3 C          -0.7578    1.3987    0.0002 C.ar    1  LIG1       -0.0617
      4 C           2.0537    1.2305   -0.0002 C.ar    1  LIG1        0.0173
      5 H           1.7491   -0.9032    0.0008 H       1  LIG1        0.0625
      6 C           0.0178    2.5611   -0.0004 C.ar    1  LIG1       -0.0611
      7 C           1.4063    2.4809   -0.0007 C.ar    1  LIG1       -0.0511
      8 H          -0.4620    3.5356   -0.0007 H       1  LIG1        0.0618
      9 H          -1.8417    1.4639    0.0004 H       1  LIG1        0.0618
     10 H          -0.7185   -0.7565    0.0011 H       1  LIG1        0.0618
     11 H           1.9956    3.3931   -0.0012 H       1  LIG1        0.0625
     12 C           3.5061    1.1510   -0.0004 C.ar    1  LIG1        0.1358
     13 C           4.5098    2.0874   -0.0007 C.ar    1  LIG1       -0.0152
     14 C           5.7439    1.3785   -0.0007 C.ar    1  LIG1       -0.0138
     15 C           5.4282    0.0402   -0.0005 C.ar    1  LIG1        0.1517
     16 O           4.0691   -0.1038   -0.0003 O.2     1  LIG1       -0.4534
     17 H           4.3847    3.1603   -0.0008 H       1  LIG1        0.0656
     18 H           6.7346    1.8108   -0.0009 H       1  LIG1        0.0656
     19 C           6.2057   -1.1706   -0.0004 C.ar    1  LIG1        0.0821
     20 C           5.8117   -2.5026   -0.0004 C.ar    1  LIG1       -0.0334
     21 C           6.9850   -3.2990   -0.0006 C.ar    1  LIG1       -0.0437
     22 C           8.0675   -2.4429   -0.0002 C.ar    1  LIG1        0.0023
     23 N           7.5874   -1.1570   -0.0003 N.ar    1  LIG1       -0.3583
     24 H           8.1559   -0.3261   -0.0005 H       1  LIG1        0.1654
     25 H           9.1289   -2.6410    0.0000 H       1  LIG1        0.0807
     26 H           4.7879   -2.8458   -0.0004 H       1  LIG1        0.0640
     27 H           7.0331   -4.3785   -0.0007 H       1  LIG1        0.0633
@<TRIPOS>BOND
     1    11     7    1
     2    18    14    1
     3    17    13    1
     4    14    13   ar
     5    14    15   ar
     6     8     6    1
     7    13    12   ar
     8    27    21    1
     9     7     6   ar
    10     7     4   ar
    11    21    20   ar
    12    21    22   ar
    13    24    23    1
    14    15    19    1
    15    15    16   ar
    16     6     3   ar
    17    12    16   ar
    18    12     4    1
    19    19    20   ar
    20    19    23   ar
    21    20    26    1
    22    23    22   ar
    23     4     2   ar
    24    22    25    1
    25     3     9    1
    26     3     1   ar
    27     2     1   ar
    28     2     5    1
    29     1    10    1
