@<TRIPOS>MOLECULE
mol_data/opt/b3lyp/geoms/mol2/412-5-8-.out
 32 35 0 0 0
SMALL
GASTEIGER

@<TRIPOS>ATOM
      1 C          -0.1738    0.2628    0.0003 C.ar    1  LIG1       -0.0611
      2 C           1.2140    0.1502    0.0002 C.ar    1  LIG1       -0.0511
      3 C          -0.7819    1.5195    0.0001 C.ar    1  LIG1       -0.0617
      4 C           2.0214    1.3020   -0.0002 C.ar    1  LIG1        0.0173
      5 H           1.6812   -0.8281    0.0003 H       1  LIG1        0.0625
      6 C           0.0124    2.6690   -0.0002 C.ar    1  LIG1       -0.0611
      7 C           1.3993    2.5645   -0.0003 C.ar    1  LIG1       -0.0511
      8 H          -0.4509    3.6512   -0.0004 H       1  LIG1        0.0618
      9 H          -1.8644    1.6035    0.0002 H       1  LIG1        0.0618
     10 H          -0.7829   -0.6363    0.0005 H       1  LIG1        0.0618
     11 H           2.0044    3.4658   -0.0006 H       1  LIG1        0.0625
     12 C           3.4729    1.1985   -0.0003 C.ar    1  LIG1        0.1357
     13 C           4.4911    2.1254   -0.0004 C.ar    1  LIG1       -0.0152
     14 C           5.7119    1.4039   -0.0005 C.ar    1  LIG1       -0.0147
     15 C           5.3806    0.0673   -0.0005 C.ar    1  LIG1        0.1422
     16 O           4.0167   -0.0583   -0.0003 O.2     1  LIG1       -0.4543
     17 H           4.3785    3.1992   -0.0003 H       1  LIG1        0.0656
     18 H           6.7113    1.8133   -0.0006 H       1  LIG1        0.0656
     19 C           6.1566   -1.1399   -0.0005 C.ar    1  LIG1        0.0551
     20 C           7.5400   -1.2551   -0.0005 C.ar    1  LIG1       -0.0433
     21 C           7.9807   -2.5922   -0.0006 C.ar    1  LIG1       -0.0431
     22 C           6.9427   -3.5052   -0.0006 C.ar    1  LIG1        0.0605
     23 S           5.3857   -2.7073   -0.0005 S.2     1  LIG1       -0.0820
     24 H           8.2050   -0.3997   -0.0005 H       1  LIG1        0.0630
     25 H           9.0183   -2.9021   -0.0007 H       1  LIG1        0.0630
     26 C           7.0362   -4.9460   -0.0007 C.ar    1  LIG1        0.2099
     27 N           8.2747   -5.5008   -0.0008 N.ar    1  LIG1       -0.1253
     28 C           7.1941   -7.4987   -0.0008 C.ar    1  LIG1        0.1605
     29 N           5.8794   -5.6520   -0.0006 N.ar    1  LIG1       -0.1253
     30 N           8.3484   -6.8148   -0.0008 N.ar    1  LIG1       -0.1339
     31 N           5.9653   -6.9661   -0.0006 N.ar    1  LIG1       -0.1339
     32 H           7.2631   -8.5812   -0.0006 H       1  LIG1        0.1085
@<TRIPOS>BOND
     1    30    27   ar
     2    30    28   ar
     3    27    26   ar
     4    28    31   ar
     5    28    32    1
     6    25    21    1
     7    26    22    1
     8    26    29   ar
     9    21    22   ar
    10    21    20   ar
    11    22    23   ar
    12    18    14    1
    13    11     7    1
    14    31    29   ar
    15    20    19   ar
    16    20    24    1
    17    23    19   ar
    18    19    15    1
    19    14    15   ar
    20    14    13   ar
    21    15    16   ar
    22    13    17    1
    23    13    12   ar
    24     8     6    1
    25     7     6   ar
    26     7     4   ar
    27    16    12   ar
    28    12     4    1
    29     6     3   ar
    30     4     2   ar
    31     3     9    1
    32     3     1   ar
    33     2     1   ar
    34     2     5    1
    35     1    10    1
