@<TRIPOS>MOLECULE
mol_data/opt/b3lyp/geoms/mol2/412-4.out
 29 31 0 0 0
SMALL
GASTEIGER

@<TRIPOS>ATOM
      1 C          -0.1551    0.1827    0.0007 C.ar    1  LIG1       -0.0611
      2 C           1.2342    0.0875    0.0006 C.ar    1  LIG1       -0.0511
      3 C          -0.7794    1.4312   -0.0000 C.ar    1  LIG1       -0.0617
      4 C           2.0298    1.2474   -0.0002 C.ar    1  LIG1        0.0173
      5 H           1.7136   -0.8848    0.0011 H       1  LIG1        0.0625
      6 C           0.0022    2.5894   -0.0008 C.ar    1  LIG1       -0.0611
      7 C           1.3905    2.5013   -0.0008 C.ar    1  LIG1       -0.0511
      8 H          -0.4724    3.5664   -0.0013 H       1  LIG1        0.0618
      9 H          -1.8629    1.5023    0.0000 H       1  LIG1        0.0618
     10 H          -0.7531   -0.7241    0.0012 H       1  LIG1        0.0618
     11 H           1.9849    3.4097   -0.0015 H       1  LIG1        0.0625
     12 C           3.4833    1.1606   -0.0003 C.ar    1  LIG1        0.1357
     13 C           4.4893    2.0964   -0.0006 C.ar    1  LIG1       -0.0153
     14 C           5.7187    1.3831   -0.0005 C.ar    1  LIG1       -0.0153
     15 C           5.4055    0.0453   -0.0001 C.ar    1  LIG1        0.1357
     16 O           4.0417   -0.0911    0.0001 O.2     1  LIG1       -0.4548
     17 H           4.3666    3.1694   -0.0009 H       1  LIG1        0.0656
     18 H           6.7111    1.8091   -0.0007 H       1  LIG1        0.0656
     19 C           5.5901   -2.4398    0.0008 C.ar    1  LIG1       -0.0511
     20 C           6.3622   -3.5987    0.0011 C.ar    1  LIG1       -0.0611
     21 C           6.2022   -1.1735    0.0003 C.ar    1  LIG1        0.0173
     22 C           7.7559   -3.5212    0.0009 C.ar    1  LIG1       -0.0617
     23 H           5.8716   -4.5678    0.0015 H       1  LIG1        0.0618
     24 C           7.6081   -1.1063    0.0000 C.ar    1  LIG1       -0.0511
     25 C           8.3736   -2.2678    0.0003 C.ar    1  LIG1       -0.0611
     26 H           8.1018   -0.1394   -0.0004 H       1  LIG1        0.0625
     27 H           8.3554   -4.4265    0.0011 H       1  LIG1        0.0618
     28 H           4.5080   -2.5061    0.0010 H       1  LIG1        0.0625
     29 H           9.4573   -2.1951    0.0001 H       1  LIG1        0.0618
@<TRIPOS>BOND
     1    11     7    1
     2     8     6    1
     3    17    13    1
     4     7     6   ar
     5     7     4   ar
     6     6     3   ar
     7    18    14    1
     8    13    14   ar
     9    13    12   ar
    10    14    15   ar
    11    26    24    1
    12    12     4    1
    13    12    16   ar
    14     4     2   ar
    15    15    16   ar
    16    15    21    1
    17     3     9    1
    18     3     1   ar
    19    24    21   ar
    20    24    25   ar
    21    29    25    1
    22    21    19   ar
    23    25    22   ar
    24     2     1   ar
    25     2     5    1
    26     1    10    1
    27    19    28    1
    28    19    20   ar
    29    22    20   ar
    30    22    27    1
    31    20    23    1
