@<TRIPOS>MOLECULE
mol_data/opt/b3lyp/geoms/mol2/412-12-13.out
 34 37 0 0 0
SMALL
GASTEIGER

@<TRIPOS>ATOM
      1 C          -0.2268    0.4105    0.0006 C.ar    1  LIG1       -0.0611
      2 C           1.1570    0.2556    0.0003 C.ar    1  LIG1       -0.0511
      3 C          -0.7977    1.6846    0.0003 C.ar    1  LIG1       -0.0617
      4 C           2.0007    1.3817   -0.0002 C.ar    1  LIG1        0.0173
      5 H           1.5971   -0.7353    0.0005 H       1  LIG1        0.0625
      6 C           0.0323    2.8087   -0.0002 C.ar    1  LIG1       -0.0611
      7 C           1.4155    2.6620   -0.0004 C.ar    1  LIG1       -0.0511
      8 H          -0.4005    3.8050   -0.0004 H       1  LIG1        0.0618
      9 H          -1.8772    1.8016    0.0005 H       1  LIG1        0.0618
     10 H          -0.8629   -0.4700    0.0010 H       1  LIG1        0.0618
     11 H           2.0483    3.5442   -0.0008 H       1  LIG1        0.0625
     12 C           3.4476    1.2310   -0.0004 C.ar    1  LIG1        0.1358
     13 C           4.4972    2.1193   -0.0007 C.ar    1  LIG1       -0.0151
     14 C           5.6934    1.3537   -0.0008 C.ar    1  LIG1       -0.0122
     15 C           5.3093    0.0324   -0.0007 C.ar    1  LIG1        0.1706
     16 O           3.9458   -0.0480   -0.0004 O.2     1  LIG1       -0.4517
     17 H           4.4237    3.1968   -0.0007 H       1  LIG1        0.0656
     18 H           6.7077    1.7251   -0.0010 H       1  LIG1        0.0657
     19 C           6.0529   -1.1953   -0.0007 C.ar    1  LIG1        0.1706
     20 C           7.3999   -1.4684   -0.0009 C.ar    1  LIG1       -0.0121
     21 C           7.5269   -2.8846   -0.0009 C.ar    1  LIG1       -0.0137
     22 C           6.2498   -3.3977   -0.0006 C.ar    1  LIG1        0.1519
     23 O           5.3466   -2.3699   -0.0006 O.2     1  LIG1       -0.4503
     24 H           8.1991   -0.7418   -0.0010 H       1  LIG1        0.0657
     25 H           8.4499   -3.4468   -0.0010 H       1  LIG1        0.0656
     26 C           5.7068   -4.7293   -0.0005 C.ar    1  LIG1        0.0821
     27 C           4.3892   -5.1697   -0.0005 C.ar    1  LIG1       -0.0334
     28 C           4.4100   -6.5875   -0.0006 C.ar    1  LIG1       -0.0437
     29 C           5.7321   -6.9839   -0.0002 C.ar    1  LIG1        0.0023
     30 N           6.5105   -5.8533   -0.0004 N.ar    1  LIG1       -0.3583
     31 H           7.5172   -5.8435   -0.0005 H       1  LIG1        0.1654
     32 H           6.1783   -7.9669    0.0000 H       1  LIG1        0.0807
     33 H           3.5220   -4.5263   -0.0006 H       1  LIG1        0.0640
     34 H           3.5534   -7.2462   -0.0006 H       1  LIG1        0.0633
@<TRIPOS>BOND
     1    18    14    1
     2    24    20    1
     3    25    21    1
     4    20    21   ar
     5    20    19   ar
     6    21    22   ar
     7    11     7    1
     8    14    13   ar
     9    14    15   ar
    10    17    13    1
    11    19    15    1
    12    19    23   ar
    13    13    12   ar
    14    15    16   ar
    15    34    28    1
    16    22    23   ar
    17    22    26    1
    18    33    27    1
    19    28    27   ar
    20    28    29   ar
    21    26    27   ar
    22    26    30   ar
    23    31    30    1
    24    16    12   ar
    25    12     4    1
    26     7     4   ar
    27     7     6   ar
    28     8     6    1
    29    30    29   ar
    30    29    32    1
    31     4     2   ar
    32     6     3   ar
    33     2     5    1
    34     2     1   ar
    35     3     9    1
    36     3     1   ar
    37     1    10    1
