@<TRIPOS>MOLECULE
mol_data/opt/b3lyp/geoms/mol2/412-.out
 19 20 0 0 0
SMALL
GASTEIGER

@<TRIPOS>ATOM
      1 C          -0.0161    0.0635    0.0005 C.ar    1  LIG1       -0.0611
      2 C           1.3756    0.0085    0.0003 C.ar    1  LIG1       -0.0511
      3 C          -0.6764    1.2932    0.0003 C.ar    1  LIG1       -0.0617
      4 C           2.1365    1.1907   -0.0002 C.ar    1  LIG1        0.0172
      5 H           1.8839   -0.9491    0.0005 H       1  LIG1        0.0625
      6 C           0.0713    2.4734   -0.0002 C.ar    1  LIG1       -0.0611
      7 C           1.4617    2.4252   -0.0005 C.ar    1  LIG1       -0.0511
      8 H          -0.4314    3.4363   -0.0004 H       1  LIG1        0.0618
      9 H          -1.7616    1.3328    0.0005 H       1  LIG1        0.0618
     10 H          -0.5876   -0.8604    0.0008 H       1  LIG1        0.0618
     11 H           2.0300    3.3504   -0.0008 H       1  LIG1        0.0625
     12 C           3.5940    1.1444   -0.0005 C.ar    1  LIG1        0.1348
     13 C           4.5745    2.1042   -0.0006 C.ar    1  LIG1       -0.0159
     14 C           5.8281    1.4181   -0.0008 C.ar    1  LIG1       -0.0233
     15 C           5.5311    0.0897   -0.0007 C.ar    1  LIG1        0.0926
     16 O           4.1821   -0.0961   -0.0005 O.2     1  LIG1       -0.4629
     17 H           6.1298   -0.8080   -0.0008 H       1  LIG1        0.1029
     18 H           4.4247    3.1737   -0.0006 H       1  LIG1        0.0655
     19 H           6.8152    1.8575   -0.0009 H       1  LIG1        0.0649
@<TRIPOS>BOND
     1    19    14    1
     2    11     7    1
     3    17    15    1
     4    14    15   ar
     5    14    13   ar
     6    15    16   ar
     7    13    18    1
     8    13    12   ar
     9    16    12   ar
    10     7     4   ar
    11     7     6   ar
    12    12     4    1
    13     8     6    1
    14     4     2   ar
    15     6     3   ar
    16     3     1   ar
    17     3     9    1
    18     2     5    1
    19     2     1   ar
    20     1    10    1
