@<TRIPOS>MOLECULE
mol_data/opt/b3lyp/geoms/mol2/412.out
 19 20 0 0 0
SMALL
GASTEIGER

@<TRIPOS>ATOM
      1 C           0.0139    0.0462    0.0004 C.ar    1  LIG1       -0.0611
      2 C           1.4051    0.0284    0.0003 C.ar    1  LIG1       -0.0511
      3 C          -0.6771    1.2604    0.0002 C.ar    1  LIG1       -0.0617
      4 C           2.1376    1.2293   -0.0002 C.ar    1  LIG1        0.0172
      5 H           1.9289   -0.9225    0.0005 H       1  LIG1        0.0625
      6 C           0.0406    2.4574   -0.0002 C.ar    1  LIG1       -0.0611
      7 C           1.4334    2.4465   -0.0005 C.ar    1  LIG1       -0.0511
      8 H          -0.4863    3.4074   -0.0004 H       1  LIG1        0.0618
      9 H          -1.7629    1.2722    0.0004 H       1  LIG1        0.0618
     10 H          -0.5338   -0.8919    0.0008 H       1  LIG1        0.0618
     11 H           1.9865    3.3791   -0.0008 H       1  LIG1        0.0625
     12 C           3.5955    1.2065   -0.0004 C.ar    1  LIG1        0.1348
     13 C           4.5295    0.2014   -0.0006 C.ar    1  LIG1       -0.0159
     14 C           5.8143    0.8274   -0.0008 C.ar    1  LIG1       -0.0233
     15 C           5.5805    2.1684   -0.0008 C.ar    1  LIG1        0.0926
     16 O           4.2417    2.4178   -0.0006 O.2     1  LIG1       -0.4629
     17 H           6.2208    3.0367   -0.0010 H       1  LIG1        0.1029
     18 H           4.3294   -0.8599   -0.0005 H       1  LIG1        0.0655
     19 H           6.7793    0.3416   -0.0010 H       1  LIG1        0.0649
@<TRIPOS>BOND
     1    19    14    1
     2    17    15    1
     3    15    14   ar
     4    15    16   ar
     5    14    13   ar
     6    11     7    1
     7    13    18    1
     8    13    12   ar
     9    16    12   ar
    10     7     6   ar
    11     7     4   ar
    12    12     4    1
    13     8     6    1
    14     6     3   ar
    15     4     2   ar
    16     3     9    1
    17     3     1   ar
    18     2     1   ar
    19     2     5    1
    20     1    10    1
