@<TRIPOS>MOLECULE
mol_data/opt/b3lyp/geoms/mol2/41213.out
 27 29 0 0 0
SMALL
GASTEIGER

@<TRIPOS>ATOM
      1 C          -0.0416   -0.0279    0.0002 C.ar    1  LIG1       -0.0611
      2 C           1.3491   -0.0198    0.0001 C.ar    1  LIG1       -0.0511
      3 C          -0.7570    1.1725   -0.0000 C.ar    1  LIG1       -0.0617
      4 C           2.0614    1.1952   -0.0002 C.ar    1  LIG1        0.0173
      5 H           1.8901   -0.9610    0.0004 H       1  LIG1        0.0625
      6 C          -0.0615    2.3826   -0.0003 C.ar    1  LIG1       -0.0611
      7 C           1.3309    2.3978   -0.0005 C.ar    1  LIG1       -0.0511
      8 H          -0.6061    3.3226   -0.0005 H       1  LIG1        0.0618
      9 H          -1.8427    1.1635    0.0001 H       1  LIG1        0.0618
     10 H          -0.5706   -0.9767    0.0005 H       1  LIG1        0.0618
     11 H           1.8633    3.3425   -0.0007 H       1  LIG1        0.0625
     12 C           3.5153    1.1961   -0.0003 C.ar    1  LIG1        0.1358
     13 C           4.4672    0.2070   -0.0005 C.ar    1  LIG1       -0.0152
     14 C           5.7405    0.8417   -0.0005 C.ar    1  LIG1       -0.0138
     15 C           5.5041    2.1940   -0.0005 C.ar    1  LIG1        0.1517
     16 O           4.1506    2.4195   -0.0003 O.2     1  LIG1       -0.4534
     17 H           4.2814   -0.8571   -0.0005 H       1  LIG1        0.0656
     18 H           6.7088    0.3635   -0.0006 H       1  LIG1        0.0656
     19 C           6.3492    3.3583   -0.0005 C.ar    1  LIG1        0.0821
     20 C           7.7330    3.4935   -0.0008 C.ar    1  LIG1       -0.0334
     21 C           8.0273    4.8802   -0.0009 C.ar    1  LIG1       -0.0437
     22 C           6.8250    5.5606   -0.0002 C.ar    1  LIG1        0.0023
     23 N           5.8174    4.6312   -0.0001 N.ar    1  LIG1       -0.3583
     24 H           4.8286    4.8231   -0.0001 H       1  LIG1        0.1654
     25 H           6.6095    6.6184    0.0001 H       1  LIG1        0.0807
     26 H           8.4433    2.6791   -0.0011 H       1  LIG1        0.0640
     27 H           9.0091    5.3317   -0.0012 H       1  LIG1        0.0633
@<TRIPOS>BOND
     1    27    21    1
     2    26    20    1
     3    21    20   ar
     4    21    22   ar
     5    20    19   ar
     6    11     7    1
     7    18    14    1
     8    14    15   ar
     9    14    13   ar
    10     8     6    1
    11    19    15    1
    12    19    23   ar
    13    17    13    1
    14    15    16   ar
    15     7     6   ar
    16     7     4   ar
    17    13    12   ar
    18     6     3   ar
    19    16    12   ar
    20    12     4    1
    21     4     2   ar
    22    22    23   ar
    23    22    25    1
    24    23    24    1
    25     3     9    1
    26     3     1   ar
    27     2     1   ar
    28     2     5    1
    29     1    10    1
