@<TRIPOS>MOLECULE
mol_data/opt/b3lyp/geoms/mol2/4121312.out
 34 37 0 0 0
SMALL
GASTEIGER

@<TRIPOS>ATOM
      1 C          -0.0538   -0.1278    0.0001 C.ar    1  LIG1       -0.0611
      2 C           1.3367   -0.1001   -0.0000 C.ar    1  LIG1       -0.0511
      3 C          -0.7854    1.0628   -0.0001 C.ar    1  LIG1       -0.0617
      4 C           2.0314    1.1249   -0.0002 C.ar    1  LIG1        0.0173
      5 H           1.8909   -1.0336    0.0001 H       1  LIG1        0.0625
      6 C          -0.1071    2.2828   -0.0003 C.ar    1  LIG1       -0.0611
      7 C           1.2851    2.3177   -0.0004 C.ar    1  LIG1       -0.0511
      8 H          -0.6648    3.2149   -0.0004 H       1  LIG1        0.0618
      9 H          -1.8708    1.0386    0.0000 H       1  LIG1        0.0618
     10 H          -0.5698   -1.0835    0.0003 H       1  LIG1        0.0618
     11 H           1.8047    3.2691   -0.0005 H       1  LIG1        0.0625
     12 C           3.4853    1.1458   -0.0004 C.ar    1  LIG1        0.1358
     13 C           4.4495    0.1676   -0.0005 C.ar    1  LIG1       -0.0152
     14 C           5.7139    0.8172   -0.0006 C.ar    1  LIG1       -0.0138
     15 C           5.4603    2.1677   -0.0004 C.ar    1  LIG1        0.1518
     16 O           4.1045    2.3763   -0.0003 O.2     1  LIG1       -0.4534
     17 H           4.2762   -0.8986   -0.0006 H       1  LIG1        0.0656
     18 H           6.6884    0.3516   -0.0008 H       1  LIG1        0.0656
     19 C           6.2929    3.3378   -0.0004 C.ar    1  LIG1        0.0826
     20 C           7.6799    3.4793   -0.0007 C.ar    1  LIG1       -0.0327
     21 C           7.9706    4.8592   -0.0004 C.ar    1  LIG1       -0.0327
     22 C           6.7590    5.5474   -0.0001 C.ar    1  LIG1        0.0826
     23 N           5.7566    4.6055   -0.0001 N.ar    1  LIG1       -0.3494
     24 H           4.7709    4.8159    0.0000 H       1  LIG1        0.1661
     25 H           8.3935    2.6680   -0.0010 H       1  LIG1        0.0640
     26 H           8.9508    5.3138   -0.0005 H       1  LIG1        0.0640
     27 C           6.4626    6.9556    0.0001 C.ar    1  LIG1        0.1509
     28 C           7.2270    8.0945    0.0000 C.ar    1  LIG1       -0.0144
     29 C           6.3151    9.1964    0.0004 C.ar    1  LIG1       -0.0233
     30 C           5.0635    8.6631    0.0009 C.ar    1  LIG1        0.0926
     31 O           5.1313    7.2967    0.0006 O.2     1  LIG1       -0.4615
     32 H           4.0710    9.0840    0.0014 H       1  LIG1        0.1029
     33 H           8.3060    8.1386   -0.0004 H       1  LIG1        0.0656
     34 H           6.5636   10.2479    0.0003 H       1  LIG1        0.0649
@<TRIPOS>BOND
     1    25    20    1
     2    18    14    1
     3    20    21   ar
     4    20    19   ar
     5    14    13   ar
     6    14    15   ar
     7    17    13    1
     8    11     7    1
     9    13    12   ar
    10    26    21    1
    11    15    19    1
    12    15    16   ar
    13    21    22   ar
    14    19    23   ar
    15    33    28    1
    16     8     6    1
    17     7     6   ar
    18     7     4   ar
    19    12    16   ar
    20    12     4    1
    21     6     3   ar
    22     4     2   ar
    23    22    23   ar
    24    22    27    1
    25    23    24    1
    26     3     9    1
    27     3     1   ar
    28     2     1   ar
    29     2     5    1
    30    28    27   ar
    31    28    29   ar
    32     1    10    1
    33    27    31   ar
    34    34    29    1
    35    29    30   ar
    36    31    30   ar
    37    30    32    1
