@<TRIPOS>MOLECULE
mol_data/opt/b3lyp/geoms/mol2/41212.out
 26 28 0 0 0
SMALL
GASTEIGER

@<TRIPOS>ATOM
      1 C          -0.0281   -0.0536    0.0004 C.ar    1  LIG1       -0.0611
      2 C           1.3627   -0.0273    0.0002 C.ar    1  LIG1       -0.0511
      3 C          -0.7574    1.1383    0.0002 C.ar    1  LIG1       -0.0617
      4 C           2.0562    1.1974   -0.0002 C.ar    1  LIG1        0.0173
      5 H           1.9166   -0.9611    0.0004 H       1  LIG1        0.0625
      6 C          -0.0784    2.3580   -0.0002 C.ar    1  LIG1       -0.0611
      7 C           1.3137    2.3924   -0.0004 C.ar    1  LIG1       -0.0511
      8 H          -0.6357    3.2904   -0.0004 H       1  LIG1        0.0618
      9 H          -1.8430    1.1151    0.0003 H       1  LIG1        0.0618
     10 H          -0.5458   -1.0085    0.0007 H       1  LIG1        0.0618
     11 H           1.8377    3.3415   -0.0007 H       1  LIG1        0.0625
     12 C           3.5114    1.2235   -0.0004 C.ar    1  LIG1        0.1358
     13 C           4.4818    0.2498   -0.0005 C.ar    1  LIG1       -0.0151
     14 C           5.7387    0.9133   -0.0007 C.ar    1  LIG1       -0.0122
     15 C           5.4668    2.2605   -0.0007 C.ar    1  LIG1        0.1705
     16 O           4.1154    2.4553   -0.0005 O.2     1  LIG1       -0.4517
     17 H           4.3178   -0.8177   -0.0005 H       1  LIG1        0.0656
     18 H           6.7184    0.4583   -0.0008 H       1  LIG1        0.0657
     19 C           6.3112    3.4257   -0.0008 C.ar    1  LIG1        0.1697
     20 C           7.6753    3.5857   -0.0010 C.ar    1  LIG1       -0.0128
     21 C           7.9156    4.9936   -0.0011 C.ar    1  LIG1       -0.0232
     22 C           6.6907    5.5898   -0.0010 C.ar    1  LIG1        0.0927
     23 O           5.7021    4.6512   -0.0009 O.2     1  LIG1       -0.4598
     24 H           6.3613    6.6166   -0.0009 H       1  LIG1        0.1029
     25 H           8.4122    2.7960   -0.0010 H       1  LIG1        0.0656
     26 H           8.8737    5.4925   -0.0012 H       1  LIG1        0.0649
@<TRIPOS>BOND
     1    26    21    1
     2    21    20   ar
     3    21    22   ar
     4    25    20    1
     5    20    19   ar
     6    22    24    1
     7    22    23   ar
     8    23    19   ar
     9    19    15    1
    10    18    14    1
    11    11     7    1
    12    14    15   ar
    13    14    13   ar
    14    15    16   ar
    15    13    17    1
    16    13    12   ar
    17    16    12   ar
    18     8     6    1
    19     7     6   ar
    20     7     4   ar
    21    12     4    1
    22     6     3   ar
    23     4     2   ar
    24     3     9    1
    25     3     1   ar
    26     2     1   ar
    27     2     5    1
    28     1    10    1
