@<TRIPOS>MOLECULE
mol_data/opt/b3lyp/geoms/mol2/41213-5.out
 34 37 0 0 0
SMALL
GASTEIGER

@<TRIPOS>ATOM
      1 C          -0.1154   -0.0585    0.0009 C.ar    1  LIG1       -0.0611
      2 C           1.2754   -0.0476    0.0007 C.ar    1  LIG1       -0.0511
      3 C          -0.8321    1.1411    0.0004 C.ar    1  LIG1       -0.0617
      4 C           1.9835    1.1691   -0.0000 C.ar    1  LIG1        0.0173
      5 H           1.8185   -0.9877    0.0010 H       1  LIG1        0.0625
      6 C          -0.1394    2.3530   -0.0002 C.ar    1  LIG1       -0.0611
      7 C           1.2530    2.3716   -0.0005 C.ar    1  LIG1       -0.0511
      8 H          -0.6860    3.2917   -0.0006 H       1  LIG1        0.0618
      9 H          -1.9178    1.1298    0.0006 H       1  LIG1        0.0618
     10 H          -0.6436   -1.0076    0.0014 H       1  LIG1        0.0618
     11 H           1.7859    3.3157   -0.0010 H       1  LIG1        0.0625
     12 C           3.4384    1.1764   -0.0003 C.ar    1  LIG1        0.1358
     13 C           4.3935    0.1893   -0.0003 C.ar    1  LIG1       -0.0152
     14 C           5.6612    0.8336   -0.0007 C.ar    1  LIG1       -0.0138
     15 C           5.4144    2.1873   -0.0010 C.ar    1  LIG1        0.1518
     16 O           4.0637    2.4002   -0.0007 O.2     1  LIG1       -0.4534
     17 H           4.2130   -0.8756   -0.0001 H       1  LIG1        0.0656
     18 H           6.6286    0.3516   -0.0009 H       1  LIG1        0.0656
     19 C           6.2515    3.3541   -0.0013 C.ar    1  LIG1        0.0826
     20 C           5.9211    4.7062   -0.0013 C.ar    1  LIG1       -0.0328
     21 C           7.1244    5.4408   -0.0018 C.ar    1  LIG1       -0.0352
     22 C           8.1846    4.5370   -0.0020 C.ar    1  LIG1        0.0536
     23 N           7.6283    3.2733   -0.0018 N.ar    1  LIG1       -0.3514
     24 H           8.1534    2.4146   -0.0015 H       1  LIG1        0.1660
     25 H           4.9156    5.0989   -0.0010 H       1  LIG1        0.0640
     26 H           7.2209    6.5173   -0.0020 H       1  LIG1        0.0639
     27 C           9.6145    4.7447   -0.0025 C.ar    1  LIG1        0.0355
     28 C          10.6336    3.8139   -0.0038 C.ar    1  LIG1       -0.0455
     29 C          11.9346    4.3933   -0.0039 C.ar    1  LIG1       -0.0541
     30 C          11.9097    5.7595   -0.0027 C.ar    1  LIG1       -0.0237
     31 S          10.2820    6.3669   -0.0014 S.2     1  LIG1       -0.0952
     32 H          12.7408    6.4501   -0.0025 H       1  LIG1        0.0693
     33 H          10.4667    2.7421   -0.0049 H       1  LIG1        0.0629
     34 H          12.8505    3.8136   -0.0049 H       1  LIG1        0.0623
@<TRIPOS>BOND
     1    34    29    1
     2    33    28    1
     3    29    28   ar
     4    29    30   ar
     5    28    27   ar
     6    30    32    1
     7    30    31   ar
     8    27    22    1
     9    27    31   ar
    10    22    23   ar
    11    22    21   ar
    12    26    21    1
    13    23    24    1
    14    23    19   ar
    15    21    20   ar
    16    19    20   ar
    17    19    15    1
    18    20    25    1
    19    11     7    1
    20    15    14   ar
    21    15    16   ar
    22    18    14    1
    23    14    13   ar
    24    16    12   ar
    25     8     6    1
    26     7     6   ar
    27     7     4   ar
    28    13    12   ar
    29    13    17    1
    30    12     4    1
    31     6     3   ar
    32     4     2   ar
    33     3     9    1
    34     3     1   ar
    35     2     1   ar
    36     2     5    1
    37     1    10    1
