@<TRIPOS>MOLECULE
mol_data/opt/b3lyp/geoms/mol2/4124-.out
 29 31 0 0 0
SMALL
GASTEIGER

@<TRIPOS>ATOM
      1 C          -0.0605   -0.0559    0.0009 C.ar    1  LIG1       -0.0611
      2 C           1.3304   -0.0402    0.0006 C.ar    1  LIG1       -0.0511
      3 C          -0.7808    1.1413    0.0004 C.ar    1  LIG1       -0.0617
      4 C           2.0342    1.1787   -0.0002 C.ar    1  LIG1        0.0173
      5 H           1.8768   -0.9783    0.0011 H       1  LIG1        0.0625
      6 C          -0.0924    2.3556   -0.0004 C.ar    1  LIG1       -0.0611
      7 C           1.3000    2.3785   -0.0007 C.ar    1  LIG1       -0.0511
      8 H          -0.6423    3.2924   -0.0008 H       1  LIG1        0.0618
      9 H          -1.8665    1.1266    0.0006 H       1  LIG1        0.0618
     10 H          -0.5854   -1.0069    0.0015 H       1  LIG1        0.0618
     11 H           1.8293    3.3246   -0.0013 H       1  LIG1        0.0625
     12 C           3.4902    1.1899   -0.0005 C.ar    1  LIG1        0.1357
     13 C           4.4462    0.2031   -0.0004 C.ar    1  LIG1       -0.0153
     14 C           5.7109    0.8515   -0.0009 C.ar    1  LIG1       -0.0153
     15 C           5.4677    2.2037   -0.0012 C.ar    1  LIG1        0.1357
     16 O           4.1129    2.4109   -0.0010 O.2     1  LIG1       -0.4548
     17 H           4.2679   -0.8621   -0.0001 H       1  LIG1        0.0656
     18 H           6.6799    0.3745   -0.0010 H       1  LIG1        0.0656
     19 C           5.7812    4.6759   -0.0022 C.ar    1  LIG1       -0.0511
     20 C           6.6126    5.7931   -0.0027 C.ar    1  LIG1       -0.0611
     21 C           6.3267    3.3795   -0.0017 C.ar    1  LIG1        0.0173
     22 C           8.0004    5.6432   -0.0028 C.ar    1  LIG1       -0.0617
     23 H           6.1730    6.7864   -0.0031 H       1  LIG1        0.0618
     24 C           7.7272    3.2393   -0.0018 C.ar    1  LIG1       -0.0511
     25 C           8.5520    4.3594   -0.0023 C.ar    1  LIG1       -0.0611
     26 H           8.1699    2.2480   -0.0014 H       1  LIG1        0.0625
     27 H           8.6461    6.5161   -0.0032 H       1  LIG1        0.0618
     28 H           4.7041    4.7984   -0.0022 H       1  LIG1        0.0625
     29 H           9.6305    4.2304   -0.0023 H       1  LIG1        0.0618
@<TRIPOS>BOND
     1    27    22    1
     2    23    20    1
     3    22    20   ar
     4    22    25   ar
     5    20    19   ar
     6    29    25    1
     7    25    24   ar
     8    19    28    1
     9    19    21   ar
    10    24    21   ar
    11    24    26    1
    12    21    15    1
    13    11     7    1
    14    15    16   ar
    15    15    14   ar
    16    16    12   ar
    17    18    14    1
    18    14    13   ar
    19     8     6    1
    20     7     6   ar
    21     7     4   ar
    22    12    13   ar
    23    12     4    1
    24    13    17    1
    25     6     3   ar
    26     4     2   ar
    27     3     9    1
    28     3     1   ar
    29     2     1   ar
    30     2     5    1
    31     1    10    1
