@<TRIPOS>MOLECULE
mol_data/opt/b3lyp/geoms/mol2/41248-.out
 35 38 0 0 0
SMALL
GASTEIGER

@<TRIPOS>ATOM
      1 C          -0.0786   -0.1752   -0.0008 C.ar    1  LIG1       -0.0611
      2 C           1.3114   -0.1245   -0.0007 C.ar    1  LIG1       -0.0511
      3 C          -0.8279    1.0041   -0.0007 C.ar    1  LIG1       -0.0617
      4 C           1.9828    1.1124   -0.0004 C.ar    1  LIG1        0.0173
      5 H           1.8814   -1.0483   -0.0007 H       1  LIG1        0.0625
      6 C          -0.1712    2.2359   -0.0004 C.ar    1  LIG1       -0.0611
      7 C           1.2200    2.2940   -0.0003 C.ar    1  LIG1       -0.0511
      8 H          -0.7449    3.1581   -0.0003 H       1  LIG1        0.0618
      9 H          -1.9128    0.9621   -0.0008 H       1  LIG1        0.0618
     10 H          -0.5798   -1.1386   -0.0010 H       1  LIG1        0.0618
     11 H           1.7253    3.2531   -0.0001 H       1  LIG1        0.0625
     12 C           3.4381    1.1591   -0.0003 C.ar    1  LIG1        0.1357
     13 C           4.4166    0.1918   -0.0007 C.ar    1  LIG1       -0.0153
     14 C           5.6645    0.8668   -0.0003 C.ar    1  LIG1       -0.0153
     15 C           5.3914    2.2151    0.0003 C.ar    1  LIG1        0.1357
     16 O           4.0313    2.3920    0.0003 O.2     1  LIG1       -0.4548
     17 H           4.2616   -0.8767   -0.0013 H       1  LIG1        0.0656
     18 H           6.6437    0.4114   -0.0005 H       1  LIG1        0.0656
     19 C           7.6285    3.2942    0.0010 C.ar    1  LIG1       -0.0504
     20 C           8.4302    4.4239    0.0016 C.ar    1  LIG1       -0.0503
     21 C           6.2227    3.4034    0.0009 C.ar    1  LIG1        0.0173
     22 C           7.8549    5.7079    0.0020 C.ar    1  LIG1        0.0227
     23 H           9.5097    4.3295    0.0017 H       1  LIG1        0.0625
     24 C           5.6522    4.6916    0.0013 C.ar    1  LIG1       -0.0504
     25 C           6.4541    5.8232    0.0019 C.ar    1  LIG1       -0.0503
     26 H           4.5734    4.7949    0.0013 H       1  LIG1        0.0625
     27 H           8.0939    2.3139    0.0007 H       1  LIG1        0.0625
     28 H           6.0067    6.8103    0.0023 H       1  LIG1        0.0625
     29 C           8.7045    6.9071    0.0027 C.ar    1  LIG1        0.2033
     30 N           8.0977    8.1170    0.0033 N.ar    1  LIG1       -0.1258
     31 C          10.1867    8.9992    0.0036 C.ar    1  LIG1        0.1605
     32 N          10.0471    6.7359    0.0025 N.ar    1  LIG1       -0.1258
     33 N           8.8612    9.1912    0.0039 N.ar    1  LIG1       -0.1339
     34 N          10.8075    7.8126    0.0030 N.ar    1  LIG1       -0.1339
     35 H          10.8138    9.8845    0.0043 H       1  LIG1        0.1085
@<TRIPOS>BOND
     1    17    13    1
     2    10     1    1
     3     1     3   ar
     4     1     2   ar
     5     9     3    1
     6     5     2    1
     7    13    14   ar
     8    13    12   ar
     9     3     6   ar
    10     2     4   ar
    11    18    14    1
    12     4    12    1
    13     4     7   ar
    14     6     8    1
    15     6     7   ar
    16    14    15   ar
    17    12    16   ar
    18     7    11    1
    19    15    16   ar
    20    15    21    1
    21    27    19    1
    22    21    19   ar
    23    21    24   ar
    24    19    20   ar
    25    26    24    1
    26    24    25   ar
    27    20    23    1
    28    20    22   ar
    29    25    22   ar
    30    25    28    1
    31    22    29    1
    32    32    29   ar
    33    32    34   ar
    34    29    30   ar
    35    34    31   ar
    36    30    33   ar
    37    31    33   ar
    38    31    35    1
