@<TRIPOS>MOLECULE
mol_data/opt/b3lyp/geoms/mol2/4128.out
 25 27 0 0 0
SMALL
GASTEIGER

@<TRIPOS>ATOM
      1 C          -0.0184   -0.0431    0.0003 C.ar    1  LIG1       -0.0611
      2 C           1.3724   -0.0156    0.0002 C.ar    1  LIG1       -0.0511
      3 C          -0.7463    1.1494    0.0001 C.ar    1  LIG1       -0.0617
      4 C           2.0608    1.2109   -0.0002 C.ar    1  LIG1        0.0173
      5 H           1.9276   -0.9484    0.0004 H       1  LIG1        0.0625
      6 C          -0.0708    2.3713   -0.0002 C.ar    1  LIG1       -0.0611
      7 C           1.3209    2.4072   -0.0004 C.ar    1  LIG1       -0.0511
      8 H          -0.6300    3.3022   -0.0003 H       1  LIG1        0.0618
      9 H          -1.8319    1.1253    0.0003 H       1  LIG1        0.0618
     10 H          -0.5365   -0.9975    0.0006 H       1  LIG1        0.0618
     11 H           1.8449    3.3564   -0.0006 H       1  LIG1        0.0625
     12 C           3.5168    1.2392   -0.0004 C.ar    1  LIG1        0.1358
     13 C           4.4864    0.2564   -0.0005 C.ar    1  LIG1       -0.0151
     14 C           5.7387    0.9164   -0.0007 C.ar    1  LIG1       -0.0120
     15 C           5.4666    2.2646   -0.0007 C.ar    1  LIG1        0.1760
     16 O           4.1148    2.4630   -0.0005 O.2     1  LIG1       -0.4516
     17 H           4.3181   -0.8102   -0.0005 H       1  LIG1        0.0656
     18 H           6.7248    0.4766   -0.0009 H       1  LIG1        0.0657
     19 C           6.3306    3.4205   -0.0008 C.ar    1  LIG1        0.2381
     20 N           7.6638    3.1712   -0.0011 N.ar    1  LIG1       -0.1226
     21 C           7.9087    5.4269   -0.0011 C.ar    1  LIG1        0.1605
     22 N           5.7712    4.6534   -0.0008 N.ar    1  LIG1       -0.1226
     23 N           8.4725    4.2087   -0.0012 N.ar    1  LIG1       -0.1338
     24 N           6.5951    5.6849   -0.0009 N.ar    1  LIG1       -0.1338
     25 H           8.5794    6.2793   -0.0012 H       1  LIG1        0.1085
@<TRIPOS>BOND
     1    23    21   ar
     2    23    20   ar
     3    25    21    1
     4    21    24   ar
     5    20    19   ar
     6    24    22   ar
     7    18    14    1
     8    19    22   ar
     9    19    15    1
    10    14    15   ar
    11    14    13   ar
    12    15    16   ar
    13    11     7    1
    14    13    17    1
    15    13    12   ar
    16    16    12   ar
    17     7     6   ar
    18     7     4   ar
    19    12     4    1
    20     8     6    1
    21     6     3   ar
    22     4     2   ar
    23     3     1   ar
    24     3     9    1
    25     2     1   ar
    26     2     5    1
    27     1    10    1
