@<TRIPOS>MOLECULE
mol_data/opt/b3lyp/geoms/mol2/412812.out
 32 35 0 0 0
SMALL
GASTEIGER

@<TRIPOS>ATOM
      1 C          -0.0141   -0.1999    0.0004 C.ar    1  LIG1       -0.0611
      2 C           1.3743   -0.1136    0.0002 C.ar    1  LIG1       -0.0511
      3 C          -0.7920    0.9607    0.0001 C.ar    1  LIG1       -0.0617
      4 C           2.0109    1.1408   -0.0002 C.ar    1  LIG1        0.0173
      5 H           1.9685   -1.0222    0.0004 H       1  LIG1        0.0625
      6 C          -0.1681    2.2099   -0.0003 C.ar    1  LIG1       -0.0611
      7 C           1.2209    2.3045   -0.0004 C.ar    1  LIG1       -0.0511
      8 H          -0.7657    3.1165   -0.0005 H       1  LIG1        0.0618
      9 H          -1.8756    0.8910    0.0003 H       1  LIG1        0.0618
     10 H          -0.4911   -1.1754    0.0007 H       1  LIG1        0.0618
     11 H           1.7049    3.2747   -0.0007 H       1  LIG1        0.0625
     12 C           3.4644    1.2302   -0.0004 C.ar    1  LIG1        0.1358
     13 C           4.4746    0.2902   -0.0005 C.ar    1  LIG1       -0.0151
     14 C           5.6982    1.0027   -0.0007 C.ar    1  LIG1       -0.0120
     15 C           5.3693    2.3384   -0.0007 C.ar    1  LIG1        0.1760
     16 O           4.0109    2.4795   -0.0005 O.2     1  LIG1       -0.4516
     17 H           4.3514   -0.7824   -0.0004 H       1  LIG1        0.0656
     18 H           6.7018    0.6054   -0.0008 H       1  LIG1        0.0657
     19 C           6.1847    3.5294   -0.0008 C.ar    1  LIG1        0.2381
     20 N           7.5289    3.3363   -0.0010 N.ar    1  LIG1       -0.1219
     21 C           7.6917    5.6106   -0.0010 C.ar    1  LIG1        0.2381
     22 N           5.5833    4.7397   -0.0007 N.ar    1  LIG1       -0.1219
     23 N           8.2944    4.3947   -0.0011 N.ar    1  LIG1       -0.1219
     24 N           6.3558    5.8048   -0.0008 N.ar    1  LIG1       -0.1219
     25 C           8.5730    6.7585   -0.0010 C.ar    1  LIG1        0.1751
     26 C           9.9432    6.8553   -0.0011 C.ar    1  LIG1       -0.0126
     27 C          10.2451    8.2471   -0.0012 C.ar    1  LIG1       -0.0232
     28 C           9.0419    8.8942   -0.0011 C.ar    1  LIG1        0.0927
     29 O           8.0164    8.0072   -0.0009 O.2     1  LIG1       -0.4597
     30 H           8.7603    9.9357   -0.0012 H       1  LIG1        0.1029
     31 H          10.6300    6.0228   -0.0012 H       1  LIG1        0.0656
     32 H          11.2223    8.7070   -0.0013 H       1  LIG1        0.0649
@<TRIPOS>BOND
     1    32    27    1
     2    31    26    1
     3    27    26   ar
     4    27    28   ar
     5    30    28    1
     6    26    25   ar
     7    28    29   ar
     8    23    21   ar
     9    23    20   ar
    10    25    21    1
    11    25    29   ar
    12    21    24   ar
    13    20    19   ar
    14    24    22   ar
    15    18    14    1
    16    19    22   ar
    17    19    15    1
    18    11     7    1
    19    14    15   ar
    20    14    13   ar
    21    15    16   ar
    22    13    17    1
    23    13    12   ar
    24    16    12   ar
    25     8     6    1
    26     7     6   ar
    27     7     4   ar
    28    12     4    1
    29     6     3   ar
    30     4     2   ar
    31     3     9    1
    32     3     1   ar
    33     2     1   ar
    34     2     5    1
    35     1    10    1
