@<TRIPOS>MOLECULE
mol_data/opt/b3lyp/geoms/mol2/413-12.out
 27 29 0 0 0
SMALL
GASTEIGER

@<TRIPOS>ATOM
      1 C          -0.1128    0.1083    0.0010 C.ar    1  LIG1       -0.0611
      2 C           1.2789    0.0477    0.0006 C.ar    1  LIG1       -0.0526
      3 C          -0.7670    1.3402    0.0006 C.ar    1  LIG1       -0.0617
      4 C           2.0601    1.2194   -0.0003 C.ar    1  LIG1       -0.0017
      5 H           1.7506   -0.9312    0.0011 H       1  LIG1        0.0624
      6 C          -0.0074    2.5128   -0.0003 C.ar    1  LIG1       -0.0611
      7 C           1.3818    2.4547   -0.0008 C.ar    1  LIG1       -0.0526
      8 H          -0.5009    3.4806   -0.0007 H       1  LIG1        0.0618
      9 H          -1.8517    1.3870    0.0009 H       1  LIG1        0.0618
     10 H          -0.6870   -0.8139    0.0017 H       1  LIG1        0.0618
     11 H           1.9526    3.3776   -0.0015 H       1  LIG1        0.0624
     12 C           3.5203    1.1834   -0.0007 C.ar    1  LIG1        0.0470
     13 C           4.4566    2.2152   -0.0007 C.ar    1  LIG1       -0.0357
     14 C           5.7472    1.6458   -0.0012 C.ar    1  LIG1       -0.0328
     15 C           5.5951    0.2639   -0.0015 C.ar    1  LIG1        0.0825
     16 N           4.2421    0.0058   -0.0013 N.ar    1  LIG1       -0.3518
     17 H           3.8408   -0.9169   -0.0012 H       1  LIG1        0.1660
     18 H           4.2293    3.2712   -0.0004 H       1  LIG1        0.0639
     19 H           6.6931    2.1663   -0.0013 H       1  LIG1        0.0640
     20 C           6.5786   -0.7869   -0.0022 C.ar    1  LIG1        0.1509
     21 C           6.5133   -2.1590   -0.0030 C.ar    1  LIG1       -0.0144
     22 C           7.8635   -2.6317   -0.0033 C.ar    1  LIG1       -0.0233
     23 C           8.6544   -1.5248   -0.0028 C.ar    1  LIG1        0.0926
     24 O           7.8909   -0.3929   -0.0020 O.2     1  LIG1       -0.4615
     25 H           9.7217   -1.3698   -0.0028 H       1  LIG1        0.1029
     26 H           5.6183   -2.7650   -0.0033 H       1  LIG1        0.0656
     27 H           8.1949   -3.6599   -0.0039 H       1  LIG1        0.0649
@<TRIPOS>BOND
     1    27    22    1
     2    26    21    1
     3    22    21   ar
     4    22    23   ar
     5    21    20   ar
     6    25    23    1
     7    23    24   ar
     8    20    24   ar
     9    20    15    1
    10    15    16   ar
    11    15    14   ar
    12    11     7    1
    13    16    17    1
    14    16    12   ar
    15    19    14    1
    16    14    13   ar
    17     7     6   ar
    18     7     4   ar
    19    12    13   ar
    20    12     4    1
    21    13    18    1
    22     8     6    1
    23     6     3   ar
    24     4     2   ar
    25     3     9    1
    26     3     1   ar
    27     2     1   ar
    28     2     5    1
    29     1    10    1
