@<TRIPOS>MOLECULE
mol_data/opt/b3lyp/geoms/mol2/413-12-.out
 27 29 0 0 0
SMALL
GASTEIGER

@<TRIPOS>ATOM
      1 C          -0.1088    0.1138    0.0010 C.ar    1  LIG1       -0.0611
      2 C           1.2830    0.0533    0.0006 C.ar    1  LIG1       -0.0526
      3 C          -0.7630    1.3458    0.0005 C.ar    1  LIG1       -0.0617
      4 C           2.0636    1.2251   -0.0003 C.ar    1  LIG1       -0.0017
      5 H           1.7565   -0.9245    0.0011 H       1  LIG1        0.0624
      6 C          -0.0034    2.5184   -0.0004 C.ar    1  LIG1       -0.0611
      7 C           1.3860    2.4605   -0.0008 C.ar    1  LIG1       -0.0526
      8 H          -0.4970    3.4862   -0.0008 H       1  LIG1        0.0618
      9 H          -1.8476    1.3926    0.0008 H       1  LIG1        0.0618
     10 H          -0.6828   -0.8083    0.0017 H       1  LIG1        0.0618
     11 H           1.9564    3.3834   -0.0015 H       1  LIG1        0.0624
     12 C           3.5239    1.1864   -0.0007 C.ar    1  LIG1        0.0470
     13 C           4.4623    2.2178   -0.0006 C.ar    1  LIG1       -0.0357
     14 C           5.7519    1.6465   -0.0012 C.ar    1  LIG1       -0.0328
     15 C           5.5949    0.2640   -0.0015 C.ar    1  LIG1        0.0825
     16 N           4.2433    0.0095   -0.0013 N.ar    1  LIG1       -0.3518
     17 H           3.8610   -0.9221   -0.0015 H       1  LIG1        0.1660
     18 H           4.2372    3.2743   -0.0001 H       1  LIG1        0.0639
     19 H           6.6951    2.1735   -0.0013 H       1  LIG1        0.0640
     20 C           6.5566   -0.8073   -0.0022 C.ar    1  LIG1        0.1509
     21 C           7.9268   -0.8642   -0.0024 C.ar    1  LIG1       -0.0144
     22 C           8.2769   -2.2513   -0.0030 C.ar    1  LIG1       -0.0233
     23 C           7.1074   -2.9460   -0.0032 C.ar    1  LIG1        0.0926
     24 O           6.0450   -2.0833   -0.0026 O.2     1  LIG1       -0.4615
     25 H           6.8603   -3.9955   -0.0037 H       1  LIG1        0.1029
     26 H           8.6001   -0.0199   -0.0021 H       1  LIG1        0.0656
     27 H           9.2720   -2.6723   -0.0033 H       1  LIG1        0.0649
@<TRIPOS>BOND
     1    25    23    1
     2    27    22    1
     3    23    22   ar
     4    23    24   ar
     5    22    21   ar
     6    24    20   ar
     7    21    20   ar
     8    21    26    1
     9    20    15    1
    10    15    16   ar
    11    15    14   ar
    12    11     7    1
    13    17    16    1
    14    19    14    1
    15    16    12   ar
    16    14    13   ar
    17     8     6    1
    18     7     6   ar
    19     7     4   ar
    20    12    13   ar
    21    12     4    1
    22    13    18    1
    23     6     3   ar
    24     4     2   ar
    25     3     9    1
    26     3     1   ar
    27     2     1   ar
    28     2     5    1
    29     1    10    1
