@<TRIPOS>MOLECULE
mol_data/opt/b3lyp/geoms/mol2/413-13-8.out
 34 37 0 0 0
SMALL
GASTEIGER

@<TRIPOS>ATOM
      1 C          -0.2053    0.2462    0.0011 C.ar    1  LIG1       -0.0611
      2 C           1.1841    0.1474    0.0005 C.ar    1  LIG1       -0.0526
      3 C          -0.8243    1.4962    0.0010 C.ar    1  LIG1       -0.0617
      4 C           1.9964    1.2973   -0.0002 C.ar    1  LIG1       -0.0017
      5 H           1.6266   -0.8452    0.0007 H       1  LIG1        0.0624
      6 C          -0.0330    2.6476    0.0003 C.ar    1  LIG1       -0.0611
      7 C           1.3542    2.5513   -0.0003 C.ar    1  LIG1       -0.0526
      8 H          -0.4997    3.6284    0.0002 H       1  LIG1        0.0618
      9 H          -1.9070    1.5730    0.0015 H       1  LIG1        0.0618
     10 H          -0.8048   -0.6594    0.0017 H       1  LIG1        0.0618
     11 H           1.9500    3.4580   -0.0010 H       1  LIG1        0.0624
     12 C           3.4554    1.2206   -0.0009 C.ar    1  LIG1        0.0469
     13 C           4.4211    2.2257   -0.0010 C.ar    1  LIG1       -0.0358
     14 C           5.6916    1.6190   -0.0016 C.ar    1  LIG1       -0.0344
     15 C           5.5065    0.2383   -0.0019 C.ar    1  LIG1        0.0633
     16 N           4.1425    0.0233   -0.0015 N.ar    1  LIG1       -0.3530
     17 H           3.6966   -0.8785   -0.0012 H       1  LIG1        0.1659
     18 H           4.2252    3.2877   -0.0006 H       1  LIG1        0.0639
     19 H           6.6480    2.1212   -0.0020 H       1  LIG1        0.0639
     20 C           6.4855   -0.8179   -0.0025 C.ar    1  LIG1        0.0634
     21 C           7.8867   -0.7269   -0.0021 C.ar    1  LIG1       -0.0343
     22 C           8.4086   -2.0285   -0.0030 C.ar    1  LIG1       -0.0326
     23 C           7.3296   -2.9119   -0.0039 C.ar    1  LIG1        0.0880
     24 N           6.1750   -2.1524   -0.0037 N.ar    1  LIG1       -0.3505
     25 H           5.2655   -2.5891   -0.0044 H       1  LIG1        0.1660
     26 H           8.4485    0.1955   -0.0012 H       1  LIG1        0.0639
     27 H           9.4475   -2.3223   -0.0030 H       1  LIG1        0.0640
     28 C           7.2548   -4.3427   -0.0050 C.ar    1  LIG1        0.2193
     29 N           6.0119   -4.8933   -0.0058 N.ar    1  LIG1       -0.1243
     30 C           7.0736   -6.8952   -0.0069 C.ar    1  LIG1        0.1605
     31 N           8.4127   -5.0565   -0.0052 N.ar    1  LIG1       -0.1243
     32 N           5.9252   -6.2077   -0.0068 N.ar    1  LIG1       -0.1338
     33 N           8.3096   -6.3657   -0.0062 N.ar    1  LIG1       -0.1338
     34 H           7.0023   -7.9773   -0.0079 H       1  LIG1        0.1085
@<TRIPOS>BOND
     1    34    30    1
     2    30    32   ar
     3    30    33   ar
     4    32    29   ar
     5    33    31   ar
     6    29    28   ar
     7    31    28   ar
     8    28    23    1
     9    25    24    1
    10    23    24   ar
    11    23    22   ar
    12    24    20   ar
    13    22    27    1
    14    22    21   ar
    15    20    21   ar
    16    20    15    1
    17    21    26    1
    18    19    14    1
    19    15    14   ar
    20    15    16   ar
    21    14    13   ar
    22    16    17    1
    23    16    12   ar
    24    13    12   ar
    25    13    18    1
    26    11     7    1
    27    12     4    1
    28     7     4   ar
    29     7     6   ar
    30     4     2   ar
    31     8     6    1
    32     6     3   ar
    33     2     5    1
    34     2     1   ar
    35     3     1   ar
    36     3     9    1
    37     1    10    1
