@<TRIPOS>MOLECULE
mol_data/opt/b3lyp/geoms/mol2/413-.out
 20 21 0 0 0
SMALL
GASTEIGER

@<TRIPOS>ATOM
      1 C          -0.0411    0.0644    0.0008 C.ar    1  LIG1       -0.0611
      2 C           1.3514    0.0168    0.0005 C.ar    1  LIG1       -0.0526
      3 C          -0.7067    1.2900    0.0004 C.ar    1  LIG1       -0.0617
      4 C           2.1226    1.1945   -0.0003 C.ar    1  LIG1       -0.0017
      5 H           1.8316   -0.9581    0.0009 H       1  LIG1        0.0624
      6 C           0.0428    2.4688   -0.0003 C.ar    1  LIG1       -0.0611
      7 C           1.4329    2.4229   -0.0007 C.ar    1  LIG1       -0.0526
      8 H          -0.4590    3.4323   -0.0006 H       1  LIG1        0.0618
      9 H          -1.7917    1.3270    0.0008 H       1  LIG1        0.0618
     10 H          -0.6065   -0.8632    0.0014 H       1  LIG1        0.0618
     11 H           1.9953    3.3509   -0.0014 H       1  LIG1        0.0624
     12 C           3.5854    1.1706   -0.0007 C.ar    1  LIG1        0.0465
     13 C           4.5135    2.2060   -0.0006 C.ar    1  LIG1       -0.0364
     14 C           5.8129    1.6391   -0.0010 C.ar    1  LIG1       -0.0438
     15 C           5.6606    0.2680   -0.0017 C.ar    1  LIG1        0.0022
     16 N           4.3168   -0.0033   -0.0014 N.ar    1  LIG1       -0.3607
     17 H           3.9223   -0.9288   -0.0015 H       1  LIG1        0.1653
     18 H           6.3907   -0.5275   -0.0023 H       1  LIG1        0.0807
     19 H           4.2802    3.2608   -0.0001 H       1  LIG1        0.0639
     20 H           6.7524    2.1731   -0.0010 H       1  LIG1        0.0633
@<TRIPOS>BOND
     1    18    15    1
     2    15    16   ar
     3    15    14   ar
     4    17    16    1
     5    11     7    1
     6    16    12   ar
     7    14    20    1
     8    14    13   ar
     9    12    13   ar
    10    12     4    1
    11     7     4   ar
    12     7     6   ar
    13     8     6    1
    14    13    19    1
    15     4     2   ar
    16     6     3   ar
    17     3     9    1
    18     3     1   ar
    19     2     1   ar
    20     2     5    1
    21     1    10    1
