@<TRIPOS>MOLECULE
mol_data/opt/b3lyp/geoms/mol2/413-55.out
 34 37 0 0 0
SMALL
GASTEIGER

@<TRIPOS>ATOM
      1 C          -0.2447    0.2102    0.0014 C.ar    1  LIG1       -0.0611
      2 C           1.1455    0.1210    0.0008 C.ar    1  LIG1       -0.0526
      3 C          -0.8731    1.4555    0.0011 C.ar    1  LIG1       -0.0617
      4 C           1.9502    1.2765   -0.0001 C.ar    1  LIG1       -0.0017
      5 H           1.5967   -0.8675    0.0012 H       1  LIG1        0.0624
      6 C          -0.0896    2.6124    0.0002 C.ar    1  LIG1       -0.0611
      7 C           1.2981    2.5258   -0.0004 C.ar    1  LIG1       -0.0526
      8 H          -0.5632    3.5900   -0.0000 H       1  LIG1        0.0618
      9 H          -1.9565    1.5245    0.0016 H       1  LIG1        0.0618
     10 H          -0.8381   -0.6996    0.0022 H       1  LIG1        0.0618
     11 H           1.8875    3.4366   -0.0012 H       1  LIG1        0.0624
     12 C           3.4094    1.2106   -0.0008 C.ar    1  LIG1        0.0469
     13 C           4.3657    2.2250   -0.0007 C.ar    1  LIG1       -0.0358
     14 C           5.6418    1.6287   -0.0015 C.ar    1  LIG1       -0.0353
     15 C           5.4682    0.2460   -0.0020 C.ar    1  LIG1        0.0536
     16 N           4.1071    0.0205   -0.0016 N.ar    1  LIG1       -0.3537
     17 H           3.6849   -0.8926   -0.0015 H       1  LIG1        0.1659
     18 H           4.1602    3.2854   -0.0002 H       1  LIG1        0.0639
     19 H           6.5934    2.1410   -0.0018 H       1  LIG1        0.0639
     20 C           6.4246   -0.8329   -0.0029 C.ar    1  LIG1        0.0361
     21 C           6.2093   -2.1977   -0.0043 C.ar    1  LIG1       -0.0449
     22 C           7.3989   -2.9649   -0.0049 C.ar    1  LIG1       -0.0458
     23 C           8.5527   -2.2078   -0.0039 C.ar    1  LIG1        0.0265
     24 S           8.1458   -0.4983   -0.0021 S.2     1  LIG1       -0.0863
     25 H           5.2229   -2.6489   -0.0052 H       1  LIG1        0.0630
     26 H           7.4067   -4.0485   -0.0061 H       1  LIG1        0.0629
     27 C           9.9240   -2.6761   -0.0041 C.ar    1  LIG1        0.0259
     28 C          10.3721   -3.9826   -0.0044 C.ar    1  LIG1       -0.0464
     29 C          11.7891   -4.0988   -0.0046 C.ar    1  LIG1       -0.0541
     30 C          12.4257   -2.8880   -0.0044 C.ar    1  LIG1       -0.0237
     31 S          11.2917   -1.5749   -0.0040 S.2     1  LIG1       -0.0961
     32 H          13.4864   -2.6818   -0.0044 H       1  LIG1        0.0693
     33 H           9.7023   -4.8344   -0.0045 H       1  LIG1        0.0629
     34 H          12.3144   -5.0470   -0.0049 H       1  LIG1        0.0623
@<TRIPOS>BOND
     1    26    22    1
     2    25    21    1
     3    34    29    1
     4    22    21   ar
     5    22    23   ar
     6    29    28   ar
     7    29    30   ar
     8    33    28    1
     9    28    27   ar
    10    32    30    1
    11    30    31   ar
    12    21    20   ar
    13    27    31   ar
    14    27    23    1
    15    23    24   ar
    16    20    24   ar
    17    20    15    1
    18    15    16   ar
    19    15    14   ar
    20    19    14    1
    21    16    17    1
    22    16    12   ar
    23    14    13   ar
    24    11     7    1
    25    12    13   ar
    26    12     4    1
    27    13    18    1
    28     7     4   ar
    29     7     6   ar
    30     4     2   ar
    31     8     6    1
    32     6     3   ar
    33     2     5    1
    34     2     1   ar
    35     3     1   ar
    36     3     9    1
    37     1    10    1
