@<TRIPOS>MOLECULE
mol_data/opt/b3lyp/geoms/mol2/413-4-.out
 30 32 0 0 0
SMALL
GASTEIGER

@<TRIPOS>ATOM
      1 C          -0.1722    0.1706    0.0014 C.ar    1  LIG1       -0.0611
      2 C           1.2187    0.0921    0.0007 C.ar    1  LIG1       -0.0526
      3 C          -0.8103    1.4109    0.0012 C.ar    1  LIG1       -0.0617
      4 C           2.0151    1.2533   -0.0003 C.ar    1  LIG1       -0.0017
      5 H           1.6774   -0.8930    0.0011 H       1  LIG1        0.0624
      6 C          -0.0354    2.5734    0.0002 C.ar    1  LIG1       -0.0611
      7 C           1.3531    2.4972   -0.0005 C.ar    1  LIG1       -0.0526
      8 H          -0.5162    3.5476    0.0000 H       1  LIG1        0.0618
      9 H          -1.8941    1.4719    0.0017 H       1  LIG1        0.0618
     10 H          -0.7580   -0.7440    0.0022 H       1  LIG1        0.0618
     11 H           1.9355    3.4125   -0.0013 H       1  LIG1        0.0624
     12 C           3.4753    1.1984   -0.0010 C.ar    1  LIG1        0.0469
     13 C           4.4240    2.2182   -0.0011 C.ar    1  LIG1       -0.0358
     14 C           5.7037    1.6273   -0.0017 C.ar    1  LIG1       -0.0358
     15 C           5.5428    0.2438   -0.0023 C.ar    1  LIG1        0.0469
     16 N           4.1829    0.0148   -0.0018 N.ar    1  LIG1       -0.3542
     17 H           3.7613   -0.8980   -0.0017 H       1  LIG1        0.1659
     18 H           4.2127    3.2776   -0.0006 H       1  LIG1        0.0639
     19 H           6.6472    2.1535   -0.0019 H       1  LIG1        0.0639
     20 C           7.9078   -0.5291   -0.0032 C.ar    1  LIG1       -0.0526
     21 C           8.8665   -1.5366   -0.0041 C.ar    1  LIG1       -0.0611
     22 C           6.5317   -0.8320   -0.0032 C.ar    1  LIG1       -0.0017
     23 C           8.4843   -2.8802   -0.0050 C.ar    1  LIG1       -0.0617
     24 H           9.9197   -1.2705   -0.0041 H       1  LIG1        0.0618
     25 C           6.1645   -2.1915   -0.0041 C.ar    1  LIG1       -0.0526
     26 C           7.1263   -3.1991   -0.0050 C.ar    1  LIG1       -0.0611
     27 H           5.1172   -2.4812   -0.0043 H       1  LIG1        0.0624
     28 H           9.2336   -3.6657   -0.0057 H       1  LIG1        0.0618
     29 H           8.2268    0.5078   -0.0024 H       1  LIG1        0.0624
     30 H           6.8104   -4.2383   -0.0057 H       1  LIG1        0.0618
@<TRIPOS>BOND
     1    30    26    1
     2    28    23    1
     3    26    23   ar
     4    26    25   ar
     5    23    21   ar
     6    27    25    1
     7    25    22   ar
     8    21    24    1
     9    21    20   ar
    10    22    20   ar
    11    22    15    1
    12    20    29    1
    13    15    16   ar
    14    15    14   ar
    15    19    14    1
    16    16    17    1
    17    16    12   ar
    18    14    13   ar
    19    11     7    1
    20    13    12   ar
    21    13    18    1
    22    12     4    1
    23     7     4   ar
    24     7     6   ar
    25     4     2   ar
    26     8     6    1
    27     6     3   ar
    28     2     5    1
    29     2     1   ar
    30     3     1   ar
    31     3     9    1
    32     1    10    1
