@<TRIPOS>MOLECULE
mol_data/opt/b3lyp/geoms/mol2/413-13.out
 28 30 0 0 0
SMALL
GASTEIGER

@<TRIPOS>ATOM
      1 C          -0.1295    0.1230    0.0012 C.ar    1  LIG1       -0.0611
      2 C           1.2622    0.0614    0.0008 C.ar    1  LIG1       -0.0526
      3 C          -0.7836    1.3549    0.0006 C.ar    1  LIG1       -0.0617
      4 C           2.0447    1.2325   -0.0003 C.ar    1  LIG1       -0.0017
      5 H           1.7335   -0.9176    0.0014 H       1  LIG1        0.0624
      6 C          -0.0228    2.5269   -0.0005 C.ar    1  LIG1       -0.0611
      7 C           1.3664    2.4681   -0.0010 C.ar    1  LIG1       -0.0526
      8 H          -0.5155    3.4951   -0.0010 H       1  LIG1        0.0618
      9 H          -1.8681    1.4024    0.0010 H       1  LIG1        0.0618
     10 H          -0.7038   -0.7992    0.0021 H       1  LIG1        0.0618
     11 H           1.9373    3.3909   -0.0019 H       1  LIG1        0.0624
     12 C           3.5043    1.1950   -0.0008 C.ar    1  LIG1        0.0469
     13 C           4.4415    2.2233   -0.0010 C.ar    1  LIG1       -0.0358
     14 C           5.7313    1.6479   -0.0014 C.ar    1  LIG1       -0.0344
     15 C           5.5801    0.2639   -0.0015 C.ar    1  LIG1        0.0633
     16 N           4.2269    0.0158   -0.0012 N.ar    1  LIG1       -0.3530
     17 H           3.8267   -0.9072   -0.0008 H       1  LIG1        0.1659
     18 H           4.2183    3.2801   -0.0008 H       1  LIG1        0.0639
     19 H           6.6688    2.1870   -0.0016 H       1  LIG1        0.0639
     20 C           6.5518   -0.8058   -0.0020 C.ar    1  LIG1        0.0629
     21 C           6.4044   -2.1883   -0.0029 C.ar    1  LIG1       -0.0350
     22 C           7.7014   -2.7664   -0.0031 C.ar    1  LIG1       -0.0438
     23 C           8.6132   -1.7326   -0.0019 C.ar    1  LIG1        0.0022
     24 N           7.9089   -0.5533   -0.0014 N.ar    1  LIG1       -0.3595
     25 H           8.3174    0.3668   -0.0009 H       1  LIG1        0.1654
     26 H           9.6926   -1.7379   -0.0016 H       1  LIG1        0.0807
     27 H           5.4670   -2.7278   -0.0035 H       1  LIG1        0.0639
     28 H           7.9385   -3.8207   -0.0039 H       1  LIG1        0.0633
@<TRIPOS>BOND
     1    28    22    1
     2    27    21    1
     3    22    21   ar
     4    22    23   ar
     5    21    20   ar
     6    20    15    1
     7    20    24   ar
     8    23    26    1
     9    23    24   ar
    10    11     7    1
    11    19    14    1
    12    15    14   ar
    13    15    16   ar
    14    24    25    1
    15    14    13   ar
    16    16    17    1
    17    16    12   ar
    18    13    18    1
    19    13    12   ar
    20     8     6    1
    21     7     6   ar
    22     7     4   ar
    23    12     4    1
    24     6     3   ar
    25     4     2   ar
    26     3     9    1
    27     3     1   ar
    28     2     1   ar
    29     2     5    1
    30     1    10    1
