@<TRIPOS>MOLECULE
mol_data/opt/b3lyp/geoms/mol2/413.out
 20 21 0 0 0
SMALL
GASTEIGER

@<TRIPOS>ATOM
      1 C          -0.0141    0.0533    0.0006 C.ar    1  LIG1       -0.0611
      2 C           1.3767    0.0332    0.0005 C.ar    1  LIG1       -0.0526
      3 C          -0.7069    1.2663    0.0001 C.ar    1  LIG1       -0.0617
      4 C           2.1238    1.2274   -0.0001 C.ar    1  LIG1       -0.0017
      5 H           1.8944   -0.9203    0.0010 H       1  LIG1        0.0624
      6 C           0.0161    2.4590   -0.0006 C.ar    1  LIG1       -0.0611
      7 C           1.4093    2.4405   -0.0007 C.ar    1  LIG1       -0.0526
      8 H          -0.5048    3.4123   -0.0010 H       1  LIG1        0.0618
      9 H          -1.7923    1.2811    0.0001 H       1  LIG1        0.0618
     10 H          -0.5608   -0.8854    0.0011 H       1  LIG1        0.0618
     11 H           1.9351    3.3916   -0.0012 H       1  LIG1        0.0624
     12 C           3.5860    1.1812   -0.0002 C.ar    1  LIG1        0.0465
     13 C           4.4633    0.1023   -0.0004 C.ar    1  LIG1       -0.0364
     14 C           5.7884    0.6060   -0.0005 C.ar    1  LIG1       -0.0438
     15 C           5.7024    1.9828   -0.0000 C.ar    1  LIG1        0.0022
     16 N           4.3732    2.3184    0.0001 N.ar    1  LIG1       -0.3607
     17 H           4.0236    3.2618    0.0002 H       1  LIG1        0.1653
     18 H           6.4700    2.7423    0.0002 H       1  LIG1        0.0807
     19 H           4.1796   -0.9400   -0.0006 H       1  LIG1        0.0639
     20 H           6.7012    0.0273   -0.0008 H       1  LIG1        0.0633
@<TRIPOS>BOND
     1    11     7    1
     2     8     6    1
     3    20    14    1
     4     7     6   ar
     5     7     4   ar
     6    19    13    1
     7     6     3   ar
     8    14    13   ar
     9    14    15   ar
    10    13    12   ar
    11    12     4    1
    12    12    16   ar
    13     4     2   ar
    14    15    16   ar
    15    15    18    1
    16     3     9    1
    17     3     1   ar
    18    16    17    1
    19     2     1   ar
    20     2     5    1
    21     1    10    1
