@<TRIPOS>MOLECULE
mol_data/opt/b3lyp/geoms/mol2/41312-5-.out
 34 37 0 0 0
SMALL
GASTEIGER

@<TRIPOS>ATOM
      1 C          -0.1514    0.0304    0.0001 C.ar    1  LIG1       -0.0611
      2 C           1.2389    0.0046    0.0004 C.ar    1  LIG1       -0.0526
      3 C          -0.8391    1.2466   -0.0008 C.ar    1  LIG1       -0.0617
      4 C           1.9897    1.1971   -0.0002 C.ar    1  LIG1       -0.0017
      5 H           1.7529   -0.9509    0.0012 H       1  LIG1        0.0624
      6 C          -0.1123    2.4371   -0.0013 C.ar    1  LIG1       -0.0611
      7 C           1.2805    2.4137   -0.0011 C.ar    1  LIG1       -0.0526
      8 H          -0.6300    3.3920   -0.0020 H       1  LIG1        0.0618
      9 H          -1.9245    1.2649   -0.0010 H       1  LIG1        0.0618
     10 H          -0.7026   -0.9056    0.0006 H       1  LIG1        0.0618
     11 H           1.8099    3.3626   -0.0016 H       1  LIG1        0.0624
     12 C           3.4496    1.1474    0.0001 C.ar    1  LIG1        0.0470
     13 C           4.3244    0.0622    0.0002 C.ar    1  LIG1       -0.0357
     14 C           5.6452    0.5545    0.0006 C.ar    1  LIG1       -0.0328
     15 C           5.5742    1.9445    0.0006 C.ar    1  LIG1        0.0825
     16 N           4.2377    2.2810    0.0004 N.ar    1  LIG1       -0.3518
     17 H           3.8898    3.2251    0.0003 H       1  LIG1        0.1660
     18 H           4.0363   -0.9789    0.0000 H       1  LIG1        0.0639
     19 H           6.5589   -0.0205    0.0007 H       1  LIG1        0.0640
     20 C           6.6142    2.9339    0.0010 C.ar    1  LIG1        0.1518
     21 C           6.6267    4.3103    0.0014 C.ar    1  LIG1       -0.0138
     22 C           7.9914    4.7093    0.0016 C.ar    1  LIG1       -0.0147
     23 C           8.7422    3.5582    0.0013 C.ar    1  LIG1        0.1423
     24 O           7.9033    2.4716    0.0009 O.2     1  LIG1       -0.4528
     25 H           5.7662    4.9644    0.0017 H       1  LIG1        0.0656
     26 H           8.3736    5.7195    0.0019 H       1  LIG1        0.0656
     27 C          10.1580    3.2986    0.0012 C.ar    1  LIG1        0.0544
     28 C          11.1943    4.2101    0.0014 C.ar    1  LIG1       -0.0440
     29 C          12.4782    3.5988    0.0013 C.ar    1  LIG1       -0.0540
     30 C          12.4181    2.2316    0.0011 C.ar    1  LIG1       -0.0236
     31 S          10.7795    1.6598    0.0010 S.2     1  LIG1       -0.0936
     32 H          13.2337    1.5225    0.0010 H       1  LIG1        0.0693
     33 H          11.0365    5.2823    0.0016 H       1  LIG1        0.0630
     34 H          13.4088    4.1545    0.0014 H       1  LIG1        0.0623
@<TRIPOS>BOND
     1     8     6    1
     2    11     7    1
     3     6     7   ar
     4     6     3   ar
     5     7     4   ar
     6     9     3    1
     7     3     1   ar
     8     4    12    1
     9     4     2   ar
    10    18    13    1
    11     1     2   ar
    12     1    10    1
    13    12    13   ar
    14    12    16   ar
    15    13    14   ar
    16    17    16    1
    17     2     5    1
    18    16    15   ar
    19    14    15   ar
    20    14    19    1
    21    15    20    1
    22    24    20   ar
    23    24    23   ar
    24    31    30   ar
    25    31    27   ar
    26    20    21   ar
    27    32    30    1
    28    30    29   ar
    29    27    23    1
    30    27    28   ar
    31    23    22   ar
    32    29    28   ar
    33    29    34    1
    34    28    33    1
    35    21    22   ar
    36    21    25    1
    37    22    26    1
