@<TRIPOS>MOLECULE
mol_data/opt/b3lyp/geoms/mol2/41313.out
 28 30 0 0 0
SMALL
GASTEIGER

@<TRIPOS>ATOM
      1 C          -0.0820   -0.0264    0.0003 C.ar    1  LIG1       -0.0611
      2 C           1.3082   -0.0210    0.0006 C.ar    1  LIG1       -0.0526
      3 C          -0.7983    1.1735   -0.0006 C.ar    1  LIG1       -0.0617
      4 C           2.0341    1.1878   -0.0001 C.ar    1  LIG1       -0.0017
      5 H           1.8435   -0.9647    0.0013 H       1  LIG1        0.0624
      6 C          -0.0977    2.3795   -0.0012 C.ar    1  LIG1       -0.0611
      7 C           1.2955    2.3874   -0.0010 C.ar    1  LIG1       -0.0526
      8 H          -0.6364    3.3229   -0.0020 H       1  LIG1        0.0618
      9 H          -1.8838    1.1673   -0.0007 H       1  LIG1        0.0618
     10 H          -0.6111   -0.9752    0.0009 H       1  LIG1        0.0618
     11 H           1.8021    3.3491   -0.0017 H       1  LIG1        0.0624
     12 C           3.4932    1.1681    0.0001 C.ar    1  LIG1        0.0469
     13 C           4.3922    0.1065    0.0002 C.ar    1  LIG1       -0.0358
     14 C           5.7015    0.6314    0.0004 C.ar    1  LIG1       -0.0344
     15 C           5.6075    2.0200    0.0005 C.ar    1  LIG1        0.0633
     16 N           4.2610    2.3213    0.0003 N.ar    1  LIG1       -0.3530
     17 H           3.8721    3.2484   -0.0002 H       1  LIG1        0.1659
     18 H           4.1291   -0.9413    0.0002 H       1  LIG1        0.0639
     19 H           6.6235    0.0687    0.0006 H       1  LIG1        0.0639
     20 C           6.6580    3.0143    0.0006 C.ar    1  LIG1        0.0629
     21 C           8.0374    2.8456   -0.0004 C.ar    1  LIG1       -0.0350
     22 C           8.6387    4.1304    0.0002 C.ar    1  LIG1       -0.0438
     23 C           7.6242    5.0628    0.0021 C.ar    1  LIG1        0.0022
     24 N           6.4292    4.3798    0.0021 N.ar    1  LIG1       -0.3595
     25 H           5.5286    4.8280    0.0033 H       1  LIG1        0.1654
     26 H           7.6480    6.1419    0.0033 H       1  LIG1        0.0807
     27 H           8.5474    1.8932   -0.0017 H       1  LIG1        0.0639
     28 H           9.6972    4.3480   -0.0005 H       1  LIG1        0.0633
@<TRIPOS>BOND
     1     8     6    1
     2    27    21    1
     3    11     7    1
     4     6     7   ar
     5     6     3   ar
     6     7     4   ar
     7     9     3    1
     8     3     1   ar
     9    28    22    1
    10    21    22   ar
    11    21    20   ar
    12    17    16    1
    13     4    12    1
    14     4     2   ar
    15    12    13   ar
    16    12    16   ar
    17    22    23   ar
    18    18    13    1
    19    13    14   ar
    20    16    15   ar
    21     1     2   ar
    22     1    10    1
    23    14    15   ar
    24    14    19    1
    25    15    20    1
    26     2     5    1
    27    20    24   ar
    28    23    24   ar
    29    23    26    1
    30    24    25    1
