@<TRIPOS>MOLECULE
mol_data/opt/b3lyp/geoms/mol2/41312.out
 27 29 0 0 0
SMALL
GASTEIGER

@<TRIPOS>ATOM
      1 C          -0.0635    0.0132    0.0005 C.ar    1  LIG1       -0.0611
      2 C           1.3270   -0.0006    0.0005 C.ar    1  LIG1       -0.0526
      3 C          -0.7616    1.2234   -0.0001 C.ar    1  LIG1       -0.0617
      4 C           2.0675    1.1982   -0.0001 C.ar    1  LIG1       -0.0017
      5 H           1.8491   -0.9517    0.0010 H       1  LIG1        0.0624
      6 C          -0.0446    2.4200   -0.0007 C.ar    1  LIG1       -0.0611
      7 C           1.3484    2.4088   -0.0007 C.ar    1  LIG1       -0.0526
      8 H          -0.5703    3.3706   -0.0012 H       1  LIG1        0.0618
      9 H          -1.8472    1.2326   -0.0001 H       1  LIG1        0.0618
     10 H          -0.6064   -0.9277    0.0009 H       1  LIG1        0.0618
     11 H           1.8718    3.3607   -0.0012 H       1  LIG1        0.0624
     12 C           3.5279    1.1617   -0.0001 C.ar    1  LIG1        0.0470
     13 C           4.4120    0.0835   -0.0003 C.ar    1  LIG1       -0.0357
     14 C           5.7292    0.5877   -0.0001 C.ar    1  LIG1       -0.0328
     15 C           5.6436    1.9765    0.0001 C.ar    1  LIG1        0.0825
     16 N           4.3068    2.3001    0.0002 N.ar    1  LIG1       -0.3518
     17 H           3.9728    3.2501    0.0004 H       1  LIG1        0.1660
     18 H           4.1329   -0.9600   -0.0006 H       1  LIG1        0.0639
     19 H           6.6441    0.0129   -0.0002 H       1  LIG1        0.0640
     20 C           6.6590    2.9968    0.0004 C.ar    1  LIG1        0.1509
     21 C           8.0303    2.9834    0.0002 C.ar    1  LIG1       -0.0144
     22 C           8.4512    4.3507    0.0006 C.ar    1  LIG1       -0.0233
     23 C           7.3189    5.1045    0.0010 C.ar    1  LIG1        0.0926
     24 O           6.2136    4.2975    0.0008 O.2     1  LIG1       -0.4615
     25 H           7.1260    6.1652    0.0014 H       1  LIG1        0.1029
     26 H           8.6594    2.1056   -0.0001 H       1  LIG1        0.0656
     27 H           9.4666    4.7198    0.0005 H       1  LIG1        0.0649
@<TRIPOS>BOND
     1    11     7    1
     2     8     6    1
     3     6     7   ar
     4     6     3   ar
     5     7     4   ar
     6    18    13    1
     7    13    14   ar
     8    13    12   ar
     9    19    14    1
    10    26    21    1
    11    14    15   ar
    12     9     3    1
    13     3     1   ar
    14     4    12    1
    15     4     2   ar
    16    12    16   ar
    17    15    16   ar
    18    15    20    1
    19    16    17    1
    20    21    20   ar
    21    21    22   ar
    22    20    24   ar
    23     1     2   ar
    24     1    10    1
    25     2     5    1
    26    27    22    1
    27    22    23   ar
    28    24    23   ar
    29    23    25    1
