@<TRIPOS>MOLECULE
mol_data/opt/b3lyp/geoms/mol2/41313-.out
 28 30 0 0 0
SMALL
GASTEIGER

@<TRIPOS>ATOM
      1 C          -0.0832    0.0060    0.0006 C.ar    1  LIG1       -0.0611
      2 C           1.3071   -0.0068    0.0007 C.ar    1  LIG1       -0.0526
      3 C          -0.7827    1.2156   -0.0002 C.ar    1  LIG1       -0.0617
      4 C           2.0481    1.1922   -0.0001 C.ar    1  LIG1       -0.0017
      5 H           1.8298   -0.9576    0.0014 H       1  LIG1        0.0624
      6 C          -0.0661    2.4123   -0.0009 C.ar    1  LIG1       -0.0611
      7 C           1.3270    2.4020   -0.0009 C.ar    1  LIG1       -0.0526
      8 H          -0.5923    3.3627   -0.0016 H       1  LIG1        0.0618
      9 H          -1.8683    1.2242   -0.0003 H       1  LIG1        0.0618
     10 H          -0.6251   -0.9356    0.0012 H       1  LIG1        0.0618
     11 H           1.8481    3.3555   -0.0015 H       1  LIG1        0.0624
     12 C           3.5078    1.1544    0.0000 C.ar    1  LIG1        0.0469
     13 C           4.3905    0.0789   -0.0000 C.ar    1  LIG1       -0.0358
     14 C           5.7083    0.5869    0.0001 C.ar    1  LIG1       -0.0344
     15 C           5.6287    1.9769    0.0001 C.ar    1  LIG1        0.0633
     16 N           4.2902    2.2946    0.0001 N.ar    1  LIG1       -0.3530
     17 H           3.9382    3.2372   -0.0001 H       1  LIG1        0.1659
     18 H           4.1130   -0.9651   -0.0001 H       1  LIG1        0.0639
     19 H           6.6166   -0.0000    0.0002 H       1  LIG1        0.0639
     20 C           6.6545    2.9950    0.0002 C.ar    1  LIG1        0.0629
     21 C           6.5785    4.3833    0.0012 C.ar    1  LIG1       -0.0350
     22 C           7.9036    4.8936    0.0005 C.ar    1  LIG1       -0.0438
     23 C           8.7610    3.8142   -0.0003 C.ar    1  LIG1        0.0022
     24 N           7.9967    2.6728   -0.0008 N.ar    1  LIG1       -0.3595
     25 H           8.3572    1.7329   -0.0016 H       1  LIG1        0.1654
     26 H           9.8392    3.7637   -0.0009 H       1  LIG1        0.0807
     27 H           5.6702    4.9705    0.0022 H       1  LIG1        0.0639
     28 H           8.1949    5.9342    0.0009 H       1  LIG1        0.0633
@<TRIPOS>BOND
     1     8     6    1
     2    25    24    1
     3    11     7    1
     4     6     7   ar
     5     6     3   ar
     6    26    23    1
     7     7     4   ar
     8    24    23   ar
     9    24    20   ar
    10    23    22   ar
    11     9     3    1
    12     3     1   ar
    13    17    16    1
    14    18    13    1
    15     4    12    1
    16     4     2   ar
    17    13    12   ar
    18    13    14   ar
    19    12    16   ar
    20    14    15   ar
    21    14    19    1
    22    15    16   ar
    23    15    20    1
    24    20    21   ar
    25    22    28    1
    26    22    21   ar
    27     1     2   ar
    28     1    10    1
    29     2     5    1
    30    21    27    1
