@<TRIPOS>MOLECULE
mol_data/opt/b3lyp/geoms/mol2/41313-5-.out
 35 38 0 0 0
SMALL
GASTEIGER

@<TRIPOS>ATOM
      1 C          -0.1499   -0.0188    0.0003 C.ar    1  LIG1       -0.0611
      2 C           1.2404   -0.0270    0.0006 C.ar    1  LIG1       -0.0526
      3 C          -0.8529    1.1888   -0.0007 C.ar    1  LIG1       -0.0617
      4 C           1.9770    1.1746   -0.0002 C.ar    1  LIG1       -0.0017
      5 H           1.7662   -0.9761    0.0015 H       1  LIG1        0.0624
      6 C          -0.1406    2.3880   -0.0014 C.ar    1  LIG1       -0.0611
      7 C           1.2525    2.3823   -0.0012 C.ar    1  LIG1       -0.0526
      8 H          -0.6701    3.3365   -0.0023 H       1  LIG1        0.0618
      9 H          -1.9385    1.1938   -0.0009 H       1  LIG1        0.0618
     10 H          -0.6893   -0.9617    0.0010 H       1  LIG1        0.0618
     11 H           1.7700    3.3377   -0.0019 H       1  LIG1        0.0624
     12 C           3.4370    1.1428    0.0002 C.ar    1  LIG1        0.0469
     13 C           4.3241    0.0698    0.0005 C.ar    1  LIG1       -0.0358
     14 C           5.6391    0.5816    0.0007 C.ar    1  LIG1       -0.0344
     15 C           5.5547    1.9722    0.0005 C.ar    1  LIG1        0.0633
     16 N           4.2139    2.2856    0.0002 N.ar    1  LIG1       -0.3530
     17 H           3.8572    3.2263   -0.0002 H       1  LIG1        0.1659
     18 H           4.0509   -0.9752    0.0005 H       1  LIG1        0.0639
     19 H           6.5494   -0.0020    0.0011 H       1  LIG1        0.0639
     20 C           6.5753    2.9906    0.0006 C.ar    1  LIG1        0.0633
     21 C           6.4925    4.3818    0.0013 C.ar    1  LIG1       -0.0344
     22 C           7.8064    4.8964    0.0011 C.ar    1  LIG1       -0.0353
     23 C           8.6901    3.8203    0.0003 C.ar    1  LIG1        0.0536
     24 N           7.9168    2.6756   -0.0000 N.ar    1  LIG1       -0.3526
     25 H           8.2772    1.7346   -0.0004 H       1  LIG1        0.1660
     26 H           5.5822    4.9653    0.0020 H       1  LIG1        0.0639
     27 H           8.0894    5.9390    0.0014 H       1  LIG1        0.0639
     28 C          10.1349    3.7989   -0.0002 C.ar    1  LIG1        0.0355
     29 C          11.0052    4.8692    0.0004 C.ar    1  LIG1       -0.0455
     30 C          12.3764    4.4883   -0.0003 C.ar    1  LIG1       -0.0541
     31 C          12.5614    3.1342   -0.0014 C.ar    1  LIG1       -0.0237
     32 S          11.0401    2.2922   -0.0016 S.2     1  LIG1       -0.0952
     33 H          13.4850    2.5739   -0.0021 H       1  LIG1        0.0693
     34 H          10.6676    5.8989    0.0013 H       1  LIG1        0.0629
     35 H          13.1962    5.1976   -0.0001 H       1  LIG1        0.0623
@<TRIPOS>BOND
     1     8     6    1
     2    33    31    1
     3    11     7    1
     4    32    31   ar
     5    32    28   ar
     6     6     7   ar
     7     6     3   ar
     8    31    30   ar
     9     7     4   ar
    10     9     3    1
    11     3     1   ar
    12    25    24    1
    13    30    35    1
    14    30    29   ar
    15    17    16    1
    16    28    23    1
    17    28    29   ar
    18     4    12    1
    19     4     2   ar
    20    24    23   ar
    21    24    20   ar
    22    12    16   ar
    23    12    13   ar
    24    16    15   ar
    25    23    22   ar
    26     1     2   ar
    27     1    10    1
    28    29    34    1
    29    13    18    1
    30    13    14   ar
    31    15    20    1
    32    15    14   ar
    33    20    21   ar
    34     2     5    1
    35    14    19    1
    36    22    21   ar
    37    22    27    1
    38    21    26    1
