@<TRIPOS>MOLECULE
mol_data/opt/b3lyp/geoms/mol2/4135.out
 27 29 0 0 0
SMALL
GASTEIGER

@<TRIPOS>ATOM
      1 C          -0.0793    0.0104    0.0006 C.ar    1  LIG1       -0.0611
      2 C           1.3111   -0.0052    0.0006 C.ar    1  LIG1       -0.0526
      3 C          -0.7757    1.2216   -0.0002 C.ar    1  LIG1       -0.0617
      4 C           2.0534    1.1926   -0.0000 C.ar    1  LIG1       -0.0017
      5 H           1.8318   -0.9570    0.0013 H       1  LIG1        0.0624
      6 C          -0.0573    2.4172   -0.0008 C.ar    1  LIG1       -0.0611
      7 C           1.3358    2.4040   -0.0008 C.ar    1  LIG1       -0.0526
      8 H          -0.5816    3.3685   -0.0014 H       1  LIG1        0.0618
      9 H          -1.8613    1.2322   -0.0002 H       1  LIG1        0.0618
     10 H          -0.6236   -0.9298    0.0011 H       1  LIG1        0.0618
     11 H           1.8583    3.3566   -0.0014 H       1  LIG1        0.0624
     12 C           3.5137    1.1518    0.0000 C.ar    1  LIG1        0.0469
     13 C           4.3941    0.0717   -0.0002 C.ar    1  LIG1       -0.0358
     14 C           5.7108    0.5734   -0.0000 C.ar    1  LIG1       -0.0353
     15 C           5.6371    1.9647    0.0001 C.ar    1  LIG1        0.0536
     16 N           4.2971    2.2882    0.0002 N.ar    1  LIG1       -0.3537
     17 H           3.9403    3.2299    0.0000 H       1  LIG1        0.1659
     18 H           4.1126   -0.9711   -0.0004 H       1  LIG1        0.0639
     19 H           6.6226   -0.0062    0.0001 H       1  LIG1        0.0639
     20 C           6.6910    2.9547    0.0002 C.ar    1  LIG1        0.0355
     21 C           8.0544    2.7480   -0.0009 C.ar    1  LIG1       -0.0455
     22 C           8.8133    3.9522   -0.0003 C.ar    1  LIG1       -0.0541
     23 C           8.0390    5.0783    0.0012 C.ar    1  LIG1       -0.0237
     24 S           6.3472    4.6784    0.0020 S.2     1  LIG1       -0.0952
     25 H           8.3458    6.1142    0.0019 H       1  LIG1        0.0693
     26 H           8.4966    1.7588   -0.0021 H       1  LIG1        0.0629
     27 H           9.8971    3.9789   -0.0011 H       1  LIG1        0.0623
@<TRIPOS>BOND
     1    26    21    1
     2     8     6    1
     3    11     7    1
     4    27    22    1
     5    21    22   ar
     6    21    20   ar
     7     6     7   ar
     8     6     3   ar
     9     7     4   ar
    10    18    13    1
    11    22    23   ar
    12     9     3    1
    13    13    14   ar
    14    13    12   ar
    15     3     1   ar
    16     4    12    1
    17     4     2   ar
    18    14    19    1
    19    14    15   ar
    20    12    16   ar
    21    17    16    1
    22    15    16   ar
    23    15    20    1
    24    20    24   ar
    25     1     2   ar
    26     1    10    1
    27     2     5    1
    28    23    25    1
    29    23    24   ar
