@<TRIPOS>MOLECULE
mol_data/opt/b3lyp/geoms/mol2/413512-.out
 34 37 0 0 0
SMALL
GASTEIGER

@<TRIPOS>ATOM
      1 C          -0.1252   -0.0644    0.0008 C.ar    1  LIG1       -0.0611
      2 C           1.2652   -0.0714    0.0009 C.ar    1  LIG1       -0.0526
      3 C          -0.8289    1.1426   -0.0002 C.ar    1  LIG1       -0.0617
      4 C           1.9997    1.1313   -0.0001 C.ar    1  LIG1       -0.0017
      5 H           1.7923   -1.0196    0.0018 H       1  LIG1        0.0624
      6 C          -0.1182    2.3429   -0.0012 C.ar    1  LIG1       -0.0611
      7 C           1.2747    2.3386   -0.0012 C.ar    1  LIG1       -0.0526
      8 H          -0.6488    3.2907   -0.0021 H       1  LIG1        0.0618
      9 H          -1.9144    1.1464   -0.0003 H       1  LIG1        0.0618
     10 H          -0.6640   -1.0076    0.0016 H       1  LIG1        0.0618
     11 H           1.7915    3.2945   -0.0021 H       1  LIG1        0.0624
     12 C           3.4598    1.0996   -0.0001 C.ar    1  LIG1        0.0469
     13 C           4.3473    0.0243   -0.0000 C.ar    1  LIG1       -0.0358
     14 C           5.6601    0.5331    0.0001 C.ar    1  LIG1       -0.0353
     15 C           5.5788    1.9256    0.0000 C.ar    1  LIG1        0.0536
     16 N           4.2360    2.2407   -0.0000 N.ar    1  LIG1       -0.3537
     17 H           3.8726    3.1798   -0.0003 H       1  LIG1        0.1659
     18 H           4.0719   -1.0202   -0.0000 H       1  LIG1        0.0639
     19 H           6.5751   -0.0411    0.0002 H       1  LIG1        0.0639
     20 C           6.6253    2.9177    0.0001 C.ar    1  LIG1        0.0362
     21 C           7.9918    2.7205   -0.0009 C.ar    1  LIG1       -0.0448
     22 C           8.7446    3.9196   -0.0004 C.ar    1  LIG1       -0.0433
     23 C           7.9710    5.0601    0.0009 C.ar    1  LIG1        0.0550
     24 S           6.2671    4.6408    0.0018 S.2     1  LIG1       -0.0837
     25 H           8.4396    1.7338   -0.0021 H       1  LIG1        0.0630
     26 H           9.8269    3.9581   -0.0011 H       1  LIG1        0.0630
     27 C           8.3992    6.4346    0.0017 C.ar    1  LIG1        0.1413
     28 C           7.7427    7.6412    0.0028 C.ar    1  LIG1       -0.0154
     29 C           8.7505    8.6542    0.0031 C.ar    1  LIG1       -0.0233
     30 C           9.9461    8.0032    0.0022 C.ar    1  LIG1        0.0926
     31 O           9.7539    6.6523    0.0014 O.2     1  LIG1       -0.4624
     32 H          10.9735    8.3305    0.0021 H       1  LIG1        0.1029
     33 H           6.6720    7.7857    0.0033 H       1  LIG1        0.0655
     34 H           8.6020    9.7241    0.0039 H       1  LIG1        0.0649
@<TRIPOS>BOND
     1    11     7    1
     2     8     6    1
     3    25    21    1
     4     6     7   ar
     5     6     3   ar
     6     7     4   ar
     7    26    22    1
     8    21    22   ar
     9    21    20   ar
    10    22    23   ar
    11    17    16    1
    12     9     3    1
    13     3     1   ar
    14     4    12    1
    15     4     2   ar
    16    12    16   ar
    17    12    13   ar
    18    18    13    1
    19    16    15   ar
    20    13    14   ar
    21    15    14   ar
    22    15    20    1
    23    14    19    1
    24    20    24   ar
    25     1     2   ar
    26     1    10    1
    27     2     5    1
    28    23    27    1
    29    23    24   ar
    30    31    27   ar
    31    31    30   ar
    32    27    28   ar
    33    32    30    1
    34    30    29   ar
    35    28    29   ar
    36    28    33    1
    37    29    34    1
