@<TRIPOS>MOLECULE
mol_data/opt/b3lyp/geoms/mol2/4135-.out
 27 29 0 0 0
SMALL
GASTEIGER

@<TRIPOS>ATOM
      1 C          -0.0793   -0.0185    0.0003 C.ar    1  LIG1       -0.0611
      2 C           1.3112   -0.0155    0.0004 C.ar    1  LIG1       -0.0526
      3 C          -0.7918    1.1833   -0.0003 C.ar    1  LIG1       -0.0617
      4 C           2.0374    1.1921   -0.0001 C.ar    1  LIG1       -0.0017
      5 H           1.8448   -0.9600    0.0009 H       1  LIG1        0.0624
      6 C          -0.0894    2.3885   -0.0008 C.ar    1  LIG1       -0.0611
      7 C           1.3036    2.3939   -0.0007 C.ar    1  LIG1       -0.0526
      8 H          -0.6267    3.3325   -0.0013 H       1  LIG1        0.0618
      9 H          -1.8774    1.1796   -0.0004 H       1  LIG1        0.0618
     10 H          -0.6111   -0.9658    0.0007 H       1  LIG1        0.0618
     11 H           1.8136    3.3533   -0.0012 H       1  LIG1        0.0624
     12 C           3.4982    1.1701   -0.0000 C.ar    1  LIG1        0.0469
     13 C           4.3920    0.1012   -0.0003 C.ar    1  LIG1       -0.0358
     14 C           5.7021    0.6214    0.0000 C.ar    1  LIG1       -0.0353
     15 C           5.6105    2.0106    0.0003 C.ar    1  LIG1        0.0536
     16 N           4.2662    2.3168    0.0003 N.ar    1  LIG1       -0.3537
     17 H           3.9000    3.2537    0.0003 H       1  LIG1        0.1659
     18 H           4.1239   -0.9450   -0.0006 H       1  LIG1        0.0639
     19 H           6.6218    0.0536    0.0000 H       1  LIG1        0.0639
     20 C           6.6315    3.0342    0.0006 C.ar    1  LIG1        0.0355
     21 C           6.4945    4.4073    0.0016 C.ar    1  LIG1       -0.0455
     22 C           7.7367    5.1045    0.0016 C.ar    1  LIG1       -0.0541
     23 C           8.8172    4.2680    0.0005 C.ar    1  LIG1       -0.0237
     24 S           8.3311    2.6002   -0.0003 S.2     1  LIG1       -0.0952
     25 H           9.8676    4.5218    0.0003 H       1  LIG1        0.0693
     26 H           5.5354    4.9143    0.0025 H       1  LIG1        0.0629
     27 H           7.8190    6.1854    0.0023 H       1  LIG1        0.0623
@<TRIPOS>BOND
     1     8     6    1
     2    11     7    1
     3     6     7   ar
     4     6     3   ar
     5     7     4   ar
     6    18    13    1
     7     9     3    1
     8    24    23   ar
     9    24    20   ar
    10    13    12   ar
    11    13    14   ar
    12     3     1   ar
    13     4    12    1
    14     4     2   ar
    15    12    16   ar
    16    14    19    1
    17    14    15   ar
    18    25    23    1
    19    15    16   ar
    20    15    20    1
    21    16    17    1
    22     1     2   ar
    23     1    10    1
    24     2     5    1
    25    23    22   ar
    26    20    21   ar
    27    22    21   ar
    28    22    27    1
    29    21    26    1
