@<TRIPOS>MOLECULE
mol_data/opt/b3lyp/geoms/mol2/4138-.out
 26 28 0 0 0
SMALL
GASTEIGER

@<TRIPOS>ATOM
      1 C          -0.0500    0.0326    0.0005 C.ar    1  LIG1       -0.0611
      2 C           1.3409    0.0131    0.0005 C.ar    1  LIG1       -0.0526
      3 C          -0.7403    1.2466   -0.0000 C.ar    1  LIG1       -0.0617
      4 C           2.0819    1.2099   -0.0001 C.ar    1  LIG1       -0.0017
      5 H           1.8594   -0.9397    0.0010 H       1  LIG1        0.0624
      6 C          -0.0203    2.4419   -0.0006 C.ar    1  LIG1       -0.0611
      7 C           1.3722    2.4250   -0.0007 C.ar    1  LIG1       -0.0526
      8 H          -0.5430    3.3937   -0.0011 H       1  LIG1        0.0618
      9 H          -1.8258    1.2606   -0.0000 H       1  LIG1        0.0618
     10 H          -0.5978   -0.9052    0.0010 H       1  LIG1        0.0618
     11 H           1.9010    3.3736   -0.0012 H       1  LIG1        0.0624
     12 C           3.5443    1.1680   -0.0001 C.ar    1  LIG1        0.0470
     13 C           4.4210    0.0733   -0.0004 C.ar    1  LIG1       -0.0357
     14 C           5.7367    0.5625   -0.0003 C.ar    1  LIG1       -0.0326
     15 C           5.6583    1.9542    0.0000 C.ar    1  LIG1        0.0879
     16 N           4.3236    2.2933    0.0002 N.ar    1  LIG1       -0.3516
     17 H           4.0162    3.2543    0.0005 H       1  LIG1        0.1660
     18 H           4.1291   -0.9663   -0.0008 H       1  LIG1        0.0639
     19 H           6.6539   -0.0068   -0.0005 H       1  LIG1        0.0640
     20 C           6.6741    2.9703    0.0003 C.ar    1  LIG1        0.2193
     21 N           6.2552    4.2613    0.0008 N.ar    1  LIG1       -0.1243
     22 C           8.4548    4.8060    0.0009 C.ar    1  LIG1        0.1605
     23 N           7.9761    2.5833    0.0001 N.ar    1  LIG1       -0.1243
     24 N           7.1764    5.2034    0.0011 N.ar    1  LIG1       -0.1338
     25 N           8.8848    3.5332    0.0005 N.ar    1  LIG1       -0.1338
     26 H           9.2131    5.5813    0.0013 H       1  LIG1        0.1085
@<TRIPOS>BOND
     1    11     7    1
     2     8     6    1
     3    18    13    1
     4     7     6   ar
     5     7     4   ar
     6     6     3   ar
     7    19    14    1
     8    13    14   ar
     9    13    12   ar
    10    14    15   ar
    11    12     4    1
    12    12    16   ar
    13     4     2   ar
    14     3     9    1
    15     3     1   ar
    16    15    16   ar
    17    15    20    1
    18    23    20   ar
    19    23    25   ar
    20    16    17    1
    21    20    21   ar
    22    25    22   ar
    23     2     1   ar
    24     2     5    1
    25     1    10    1
    26    21    24   ar
    27    22    24   ar
    28    22    26    1
