@<TRIPOS>MOLECULE
mol_data/opt/b3lyp/geoms/mol2/4138-8-.out
 32 35 0 0 0
SMALL
GASTEIGER

@<TRIPOS>ATOM
      1 C          -0.0798    0.0209    0.0004 C.ar    1  LIG1       -0.0611
      2 C           1.3110   -0.0022    0.0004 C.ar    1  LIG1       -0.0526
      3 C          -0.7661    1.2372   -0.0001 C.ar    1  LIG1       -0.0617
      4 C           2.0536    1.1935   -0.0001 C.ar    1  LIG1       -0.0017
      5 H           1.8270   -0.9562    0.0008 H       1  LIG1        0.0624
      6 C          -0.0439    2.4313   -0.0006 C.ar    1  LIG1       -0.0611
      7 C           1.3483    2.4111   -0.0006 C.ar    1  LIG1       -0.0526
      8 H          -0.5647    3.3840   -0.0010 H       1  LIG1        0.0618
      9 H          -1.8517    1.2538   -0.0002 H       1  LIG1        0.0618
     10 H          -0.6308   -0.9150    0.0007 H       1  LIG1        0.0618
     11 H           1.8796    3.3584   -0.0011 H       1  LIG1        0.0624
     12 C           3.5158    1.1484   -0.0001 C.ar    1  LIG1        0.0470
     13 C           4.3893    0.0473   -0.0005 C.ar    1  LIG1       -0.0357
     14 C           5.7042    0.5293   -0.0002 C.ar    1  LIG1       -0.0326
     15 C           5.6323    1.9245    0.0001 C.ar    1  LIG1        0.0879
     16 N           4.2976    2.2691    0.0003 N.ar    1  LIG1       -0.3516
     17 H           3.9942    3.2317    0.0007 H       1  LIG1        0.1660
     18 H           4.0915   -0.9905   -0.0009 H       1  LIG1        0.0639
     19 H           6.6195   -0.0429   -0.0004 H       1  LIG1        0.0640
     20 C           6.6493    2.9294    0.0005 C.ar    1  LIG1        0.2194
     21 N           6.2411    4.2265    0.0009 N.ar    1  LIG1       -0.1236
     22 C           8.4483    4.7638    0.0012 C.ar    1  LIG1        0.2435
     23 N           7.9524    2.5388    0.0004 N.ar    1  LIG1       -0.1236
     24 N           7.1615    5.1590    0.0012 N.ar    1  LIG1       -0.1218
     25 N           8.8625    3.4779    0.0007 N.ar    1  LIG1       -0.1218
     26 C           9.4920    5.8204    0.0016 C.ar    1  LIG1        0.2434
     27 N           9.0751    7.1020    0.0021 N.ar    1  LIG1       -0.1224
     28 C          11.2810    7.6339    0.0022 C.ar    1  LIG1        0.1605
     29 N          10.7789    5.4208    0.0014 N.ar    1  LIG1       -0.1224
     30 N          10.0047    8.0398    0.0025 N.ar    1  LIG1       -0.1338
     31 N          11.7039    6.3633    0.0018 N.ar    1  LIG1       -0.1338
     32 H          12.0433    8.4065    0.0028 H       1  LIG1        0.1085
@<TRIPOS>BOND
     1    11     7    1
     2     8     6    1
     3    18    13    1
     4     6     7   ar
     5     6     3   ar
     6     7     4   ar
     7    13    14   ar
     8    13    12   ar
     9    19    14    1
    10    14    15   ar
    11     9     3    1
    12     3     1   ar
    13     4    12    1
    14     4     2   ar
    15    12    16   ar
    16    15    16   ar
    17    15    20    1
    18    16    17    1
    19     1     2   ar
    20     1    10    1
    21    23    20   ar
    22    23    25   ar
    23     2     5    1
    24    20    21   ar
    25    25    22   ar
    26    21    24   ar
    27    22    24   ar
    28    22    26    1
    29    29    26   ar
    30    29    31   ar
    31    26    27   ar
    32    31    28   ar
    33    27    30   ar
    34    28    30   ar
    35    28    32    1
