@<TRIPOS>MOLECULE
mol_data/opt/b3lyp/geoms/mol2/44-.out
 22 23 0 0 0
SMALL
GASTEIGER

@<TRIPOS>ATOM
      1 C          -0.0778    0.0723    0.0010 C.ar    1  LIG1       -0.0612
      2 C           1.3145    0.0308    0.0003 C.ar    1  LIG1       -0.0540
      3 C          -0.7494    1.2943    0.0007 C.ar    1  LIG1       -0.0617
      4 C           2.0896    1.2063   -0.0006 C.ar    1  LIG1       -0.0179
      5 H           1.7939   -0.9409    0.0006 H       1  LIG1        0.0624
      6 C          -0.0034    2.4724   -0.0002 C.ar    1  LIG1       -0.0612
      7 C           1.3889    2.4274   -0.0009 C.ar    1  LIG1       -0.0540
      8 H          -0.5050    3.4359   -0.0005 H       1  LIG1        0.0618
      9 H          -1.8346    1.3281    0.0013 H       1  LIG1        0.0618
     10 H          -0.6380   -0.8583    0.0017 H       1  LIG1        0.0618
     11 H           1.9281    3.3680   -0.0017 H       1  LIG1        0.0624
     12 C           4.3576    2.3353   -0.0018 C.ar    1  LIG1       -0.0540
     13 C           5.7502    2.2940   -0.0025 C.ar    1  LIG1       -0.0612
     14 C           3.5827    1.1602   -0.0013 C.ar    1  LIG1       -0.0179
     15 C           6.4217    1.0720   -0.0028 C.ar    1  LIG1       -0.0617
     16 H           6.3104    3.2246   -0.0028 H       1  LIG1        0.0618
     17 C           4.2835   -0.0613   -0.0016 C.ar    1  LIG1       -0.0540
     18 C           5.6755   -0.1061   -0.0023 C.ar    1  LIG1       -0.0612
     19 H           3.7446   -1.0012   -0.0014 H       1  LIG1        0.0624
     20 H           7.5069    1.0383   -0.0033 H       1  LIG1        0.0618
     21 H           3.8781    3.3077   -0.0015 H       1  LIG1        0.0624
     22 H           6.1772   -1.0695   -0.0025 H       1  LIG1        0.0618
@<TRIPOS>BOND
     1    20    15    1
     2    16    13    1
     3    15    13   ar
     4    15    18   ar
     5    22    18    1
     6    13    12   ar
     7    18    17   ar
     8    12    21    1
     9    12    14   ar
    10    11     7    1
    11    17    19    1
    12    17    14   ar
    13    14     4    1
    14     7     4   ar
    15     7     6   ar
    16     4     2   ar
    17     8     6    1
    18     6     3   ar
    19     2     5    1
    20     2     1   ar
    21     3     1   ar
    22     3     9    1
    23     1    10    1
