@<TRIPOS>MOLECULE
mol_data/opt/b3lyp/geoms/mol2/44-13.out
 30 32 0 0 0
SMALL
GASTEIGER

@<TRIPOS>ATOM
      1 C          -0.1777    0.0693    0.0016 C.ar    1  LIG1       -0.0612
      2 C           1.2146    0.0306    0.0007 C.ar    1  LIG1       -0.0540
      3 C          -0.8523    1.2900    0.0012 C.ar    1  LIG1       -0.0617
      4 C           1.9870    1.2084   -0.0006 C.ar    1  LIG1       -0.0179
      5 H           1.6973   -0.9396    0.0011 H       1  LIG1        0.0624
      6 C          -0.1087    2.4700   -0.0001 C.ar    1  LIG1       -0.0612
      7 C           1.2833    2.4286   -0.0010 C.ar    1  LIG1       -0.0540
      8 H          -0.6129    3.4323   -0.0004 H       1  LIG1        0.0618
      9 H          -1.9377    1.3212    0.0019 H       1  LIG1        0.0618
     10 H          -0.7362   -0.8625    0.0026 H       1  LIG1        0.0618
     11 H           1.8206    3.3694   -0.0020 H       1  LIG1        0.0624
     12 C           4.2565    2.3356   -0.0023 C.ar    1  LIG1       -0.0534
     13 C           5.6454    2.2969   -0.0032 C.ar    1  LIG1       -0.0521
     14 C           3.4762    1.1652   -0.0016 C.ar    1  LIG1       -0.0178
     15 C           6.3508    1.0801   -0.0035 C.ar    1  LIG1       -0.0017
     16 H           6.1769    3.2449   -0.0038 H       1  LIG1        0.0624
     17 C           4.1888   -0.0504   -0.0019 C.ar    1  LIG1       -0.0534
     18 C           5.5750   -0.0942   -0.0028 C.ar    1  LIG1       -0.0521
     19 H           3.6579   -0.9953   -0.0015 H       1  LIG1        0.0624
     20 H           3.7825    3.3099   -0.0021 H       1  LIG1        0.0624
     21 H           6.0676   -1.0611   -0.0029 H       1  LIG1        0.0624
     22 C           7.8084    1.0119   -0.0045 C.ar    1  LIG1        0.0465
     23 C           8.6697   -0.0810   -0.0056 C.ar    1  LIG1       -0.0364
     24 C          10.0014    0.4031   -0.0060 C.ar    1  LIG1       -0.0438
     25 C           9.9360    1.7817   -0.0056 C.ar    1  LIG1        0.0022
     26 N           8.6126    2.1375   -0.0044 N.ar    1  LIG1       -0.3607
     27 H           8.2768    3.0860   -0.0039 H       1  LIG1        0.1653
     28 H          10.7153    2.5292   -0.0059 H       1  LIG1        0.0807
     29 H           8.3694   -1.1189   -0.0059 H       1  LIG1        0.0639
     30 H          10.9058   -0.1886   -0.0066 H       1  LIG1        0.0633
@<TRIPOS>BOND
     1    30    24    1
     2    24    25   ar
     3    24    23   ar
     4    28    25    1
     5    29    23    1
     6    25    26   ar
     7    23    22   ar
     8    22    26   ar
     9    22    15    1
    10    26    27    1
    11    16    13    1
    12    15    13   ar
    13    15    18   ar
    14    13    12   ar
    15    21    18    1
    16    18    17   ar
    17    12    20    1
    18    12    14   ar
    19    11     7    1
    20    17    14   ar
    21    17    19    1
    22    14     4    1
    23     7     4   ar
    24     7     6   ar
    25     4     2   ar
    26     8     6    1
    27     6     3   ar
    28     2     5    1
    29     2     1   ar
    30     3     1   ar
    31     3     9    1
    32     1    10    1
