@<TRIPOS>MOLECULE
mol_data/opt/b3lyp/geoms/mol2/44-124.out
 39 42 0 0 0
SMALL
GASTEIGER

@<TRIPOS>ATOM
      1 C          -0.2588   -0.0654    0.0016 C.ar    1  LIG1       -0.0612
      2 C           1.1339   -0.0710    0.0006 C.ar    1  LIG1       -0.0540
      3 C          -0.9616    1.1393    0.0015 C.ar    1  LIG1       -0.0617
      4 C           1.8778    1.1250   -0.0006 C.ar    1  LIG1       -0.0179
      5 H           1.6390   -1.0298    0.0008 H       1  LIG1        0.0624
      6 C          -0.2465    2.3367    0.0003 C.ar    1  LIG1       -0.0612
      7 C           1.1461    2.3285   -0.0007 C.ar    1  LIG1       -0.0540
      8 H          -0.7735    3.2866    0.0002 H       1  LIG1        0.0618
      9 H          -2.0473    1.1449    0.0023 H       1  LIG1        0.0618
     10 H          -0.7953   -1.0100    0.0025 H       1  LIG1        0.0618
     11 H           1.6611    3.2817   -0.0016 H       1  LIG1        0.0624
     12 C           4.1191    2.3092   -0.0023 C.ar    1  LIG1       -0.0534
     13 C           5.5078    2.3078   -0.0032 C.ar    1  LIG1       -0.0505
     14 C           3.3686    1.1179   -0.0017 C.ar    1  LIG1       -0.0178
     15 C           6.2301    1.1025   -0.0037 C.ar    1  LIG1        0.0173
     16 H           6.0442    3.2500   -0.0037 H       1  LIG1        0.0625
     17 C           4.1060   -0.0833   -0.0021 C.ar    1  LIG1       -0.0534
     18 C           5.4930   -0.0951   -0.0031 C.ar    1  LIG1       -0.0505
     19 H           3.5956   -1.0390   -0.0017 H       1  LIG1        0.0624
     20 H           3.6192    3.2704   -0.0019 H       1  LIG1        0.0624
     21 H           6.0114   -1.0490   -0.0034 H       1  LIG1        0.0625
     22 C           7.6822    1.0854   -0.0047 C.ar    1  LIG1        0.1357
     23 C           8.6186    0.0788   -0.0055 C.ar    1  LIG1       -0.0153
     24 C           9.8955    0.7013   -0.0063 C.ar    1  LIG1       -0.0153
     25 C           9.6799    2.0587   -0.0059 C.ar    1  LIG1        0.1357
     26 O           8.3297    2.2939   -0.0050 O.2     1  LIG1       -0.4548
     27 H           8.4185   -0.9827   -0.0055 H       1  LIG1        0.0656
     28 H          10.8547    0.2046   -0.0071 H       1  LIG1        0.0656
     29 C          11.9606    3.0452   -0.0064 C.ar    1  LIG1       -0.0511
     30 C          12.8093    4.1473   -0.0069 C.ar    1  LIG1       -0.0611
     31 C          10.5634    3.2157   -0.0065 C.ar    1  LIG1        0.0173
     32 C          12.2854    5.4426   -0.0075 C.ar    1  LIG1       -0.0617
     33 H          13.8847    3.9950   -0.0069 H       1  LIG1        0.0618
     34 C          10.0458    4.5236   -0.0070 C.ar    1  LIG1       -0.0511
     35 C          10.9011    5.6225   -0.0076 C.ar    1  LIG1       -0.0611
     36 H           8.9715    4.6691   -0.0071 H       1  LIG1        0.0625
     37 H          12.9496    6.3014   -0.0079 H       1  LIG1        0.0618
     38 H          12.3816    2.0444   -0.0058 H       1  LIG1        0.0625
     39 H          10.4832    6.6251   -0.0080 H       1  LIG1        0.0618
@<TRIPOS>BOND
     1    39    35    1
     2    37    32    1
     3    35    32   ar
     4    35    34   ar
     5    32    30   ar
     6    36    34    1
     7    28    24    1
     8    34    31   ar
     9    30    33    1
    10    30    29   ar
    11    31    29   ar
    12    31    25    1
    13    29    38    1
    14    24    25   ar
    15    24    23   ar
    16    25    26   ar
    17    27    23    1
    18    23    22   ar
    19    26    22   ar
    20    22    15    1
    21    15    13   ar
    22    15    18   ar
    23    16    13    1
    24    21    18    1
    25    13    12   ar
    26    18    17   ar
    27    12    20    1
    28    12    14   ar
    29    17    19    1
    30    17    14   ar
    31    14     4    1
    32    11     7    1
    33     7     4   ar
    34     7     6   ar
    35     4     2   ar
    36     8     6    1
    37     6     3   ar
    38     2     5    1
    39     2     1   ar
    40     3     1   ar
    41     3     9    1
    42     1    10    1
