@<TRIPOS>MOLECULE
mol_data/opt/b3lyp/geoms/mol2/44-12.out
 29 31 0 0 0
SMALL
GASTEIGER

@<TRIPOS>ATOM
      1 C          -0.1530    0.0654    0.0016 C.ar    1  LIG1       -0.0612
      2 C           1.2393    0.0285    0.0006 C.ar    1  LIG1       -0.0540
      3 C          -0.8287    1.2855    0.0014 C.ar    1  LIG1       -0.0617
      4 C           2.0099    1.2073   -0.0006 C.ar    1  LIG1       -0.0179
      5 H           1.7228   -0.9414    0.0009 H       1  LIG1        0.0624
      6 C          -0.0868    2.4665    0.0001 C.ar    1  LIG1       -0.0612
      7 C           1.3053    2.4268   -0.0009 C.ar    1  LIG1       -0.0540
      8 H          -0.5921    3.4281   -0.0001 H       1  LIG1        0.0618
      9 H          -1.9141    1.3154    0.0021 H       1  LIG1        0.0618
     10 H          -0.7106   -0.8669    0.0026 H       1  LIG1        0.0618
     11 H           1.8416    3.3679   -0.0019 H       1  LIG1        0.0624
     12 C           4.2774    2.3403   -0.0023 C.ar    1  LIG1       -0.0534
     13 C           5.6660    2.3072   -0.0033 C.ar    1  LIG1       -0.0505
     14 C           3.5001    1.1665   -0.0017 C.ar    1  LIG1       -0.0178
     15 C           6.3598    1.0860   -0.0037 C.ar    1  LIG1        0.0173
     16 H           6.2249    3.2363   -0.0037 H       1  LIG1        0.0625
     17 C           4.2099   -0.0509   -0.0021 C.ar    1  LIG1       -0.0534
     18 C           5.5967   -0.0940   -0.0031 C.ar    1  LIG1       -0.0505
     19 H           3.6779   -0.9948   -0.0017 H       1  LIG1        0.0624
     20 H           3.7995    3.3125   -0.0019 H       1  LIG1        0.0624
     21 H           6.0938   -1.0593   -0.0034 H       1  LIG1        0.0625
     22 C           7.8138    1.0380   -0.0047 C.ar    1  LIG1        0.1348
     23 C           8.7299    0.0156   -0.0056 C.ar    1  LIG1       -0.0159
     24 C          10.0251    0.6186   -0.0064 C.ar    1  LIG1       -0.0233
     25 C           9.8158    1.9641   -0.0059 C.ar    1  LIG1        0.0926
     26 O           8.4819    2.2377   -0.0050 O.2     1  LIG1       -0.4629
     27 H          10.4721    2.8203   -0.0062 H       1  LIG1        0.1029
     28 H           8.5096   -1.0419   -0.0057 H       1  LIG1        0.0655
     29 H          10.9816    0.1159   -0.0072 H       1  LIG1        0.0649
@<TRIPOS>BOND
     1    29    24    1
     2    24    25   ar
     3    24    23   ar
     4    27    25    1
     5    25    26   ar
     6    28    23    1
     7    23    22   ar
     8    26    22   ar
     9    22    15    1
    10    15    13   ar
    11    15    18   ar
    12    16    13    1
    13    21    18    1
    14    13    12   ar
    15    18    17   ar
    16    12    20    1
    17    12    14   ar
    18    17    19    1
    19    17    14   ar
    20    11     7    1
    21    14     4    1
    22     7     4   ar
    23     7     6   ar
    24     4     2   ar
    25     8     6    1
    26     6     3   ar
    27     2     5    1
    28     2     1   ar
    29     3     1   ar
    30     3     9    1
    31     1    10    1
