@<TRIPOS>MOLECULE
mol_data/opt/b3lyp/geoms/mol2/44-4-12-.out
 39 42 0 0 0
SMALL
GASTEIGER

@<TRIPOS>ATOM
      1 C          -0.3181    0.1256    0.0037 C.ar    1  LIG1       -0.0612
      2 C           1.0732    0.0623    0.0020 C.ar    1  LIG1       -0.0540
      3 C          -0.9704    1.3584    0.0034 C.ar    1  LIG1       -0.0617
      4 C           1.8654    1.2266   -0.0000 C.ar    1  LIG1       -0.0179
      5 H           1.5392   -0.9161    0.0024 H       1  LIG1        0.0624
      6 C          -0.2066    2.5254    0.0014 C.ar    1  LIG1       -0.0612
      7 C           1.1845    2.4593   -0.0003 C.ar    1  LIG1       -0.0540
      8 H          -0.6940    3.4962    0.0011 H       1  LIG1        0.0618
      9 H          -2.0552    1.4088    0.0047 H       1  LIG1        0.0618
     10 H          -0.8935   -0.7960    0.0053 H       1  LIG1        0.0618
     11 H           1.7394    3.3904   -0.0019 H       1  LIG1        0.0624
     12 C           4.1558    2.3133   -0.0032 C.ar    1  LIG1       -0.0535
     13 C           5.5433    2.2497   -0.0049 C.ar    1  LIG1       -0.0535
     14 C           3.3541    1.1575   -0.0018 C.ar    1  LIG1       -0.0178
     15 C           6.2354    1.0246   -0.0053 C.ar    1  LIG1       -0.0178
     16 H           6.0878    3.1868   -0.0059 H       1  LIG1        0.0624
     17 C           4.0461   -0.0672   -0.0023 C.ar    1  LIG1       -0.0535
     18 C           5.4334   -0.1316   -0.0040 C.ar    1  LIG1       -0.0535
     19 H           3.5017   -1.0044   -0.0014 H       1  LIG1        0.0624
     20 H           3.7000    3.2967   -0.0029 H       1  LIG1        0.0624
     21 H           5.8897   -1.1147   -0.0042 H       1  LIG1        0.0624
     22 C           8.5176    2.1187   -0.0079 C.ar    1  LIG1       -0.0534
     23 C           9.9035    2.0596   -0.0096 C.ar    1  LIG1       -0.0505
     24 C           7.7206    0.9561   -0.0071 C.ar    1  LIG1       -0.0178
     25 C          10.5777    0.8263   -0.0106 C.ar    1  LIG1        0.0173
     26 H          10.4704    2.9855   -0.0101 H       1  LIG1        0.0625
     27 C           8.4091   -0.2725   -0.0082 C.ar    1  LIG1       -0.0534
     28 C           9.7960   -0.3411   -0.0099 C.ar    1  LIG1       -0.0505
     29 H           7.8596   -1.2066   -0.0078 H       1  LIG1        0.0624
     30 H           8.0552    3.0986   -0.0071 H       1  LIG1        0.0624
     31 H          10.2857   -1.3085   -0.0106 H       1  LIG1        0.0625
     32 C          12.0312    0.7672   -0.0124 C.ar    1  LIG1        0.1348
     33 C          13.0199    1.7197   -0.0131 C.ar    1  LIG1       -0.0159
     34 C          14.2673    1.0234   -0.0149 C.ar    1  LIG1       -0.0233
     35 C          13.9599   -0.3031   -0.0150 C.ar    1  LIG1        0.0926
     36 O          12.6095   -0.4782   -0.0135 O.2     1  LIG1       -0.4629
     37 H          14.5513   -1.2051   -0.0161 H       1  LIG1        0.1029
     38 H          12.8780    2.7902   -0.0125 H       1  LIG1        0.0655
     39 H          15.2578    1.4543   -0.0159 H       1  LIG1        0.0649
@<TRIPOS>BOND
     1    37    35    1
     2    39    34    1
     3    35    34   ar
     4    35    36   ar
     5    34    33   ar
     6    36    32   ar
     7    33    38    1
     8    33    32   ar
     9    32    25    1
    10    31    28    1
    11    25    28   ar
    12    25    23   ar
    13    26    23    1
    14    28    27   ar
    15    23    22   ar
    16    27    29    1
    17    27    24   ar
    18    22    24   ar
    19    22    30    1
    20    24    15    1
    21    16    13    1
    22    15    13   ar
    23    15    18   ar
    24    13    12   ar
    25    21    18    1
    26    18    17   ar
    27    12    20    1
    28    12    14   ar
    29    17    14   ar
    30    17    19    1
    31    11     7    1
    32    14     4    1
    33     7     4   ar
    34     7     6   ar
    35     4     2   ar
    36     8     6    1
    37     6     3   ar
    38     2     5    1
    39     2     1   ar
    40     3     1   ar
    41     3     9    1
    42     1    10    1
