@<TRIPOS>MOLECULE
mol_data/opt/b3lyp/geoms/mol2/44-4.out
 32 34 0 0 0
SMALL
GASTEIGER

@<TRIPOS>ATOM
      1 C          -0.2184    0.0747    0.0015 C.ar    1  LIG1       -0.0612
      2 C           1.1737    0.0315    0.0007 C.ar    1  LIG1       -0.0540
      3 C          -0.8884    1.2979    0.0010 C.ar    1  LIG1       -0.0617
      4 C           1.9489    1.2071   -0.0006 C.ar    1  LIG1       -0.0179
      5 H           1.6538   -0.9400    0.0012 H       1  LIG1        0.0624
      6 C          -0.1415    2.4758   -0.0004 C.ar    1  LIG1       -0.0612
      7 C           1.2504    2.4298   -0.0011 C.ar    1  LIG1       -0.0540
      8 H          -0.6428    3.4396   -0.0008 H       1  LIG1        0.0618
      9 H          -1.9737    1.3327    0.0015 H       1  LIG1        0.0618
     10 H          -0.7803   -0.8550    0.0025 H       1  LIG1        0.0618
     11 H           1.7918    3.3686   -0.0022 H       1  LIG1        0.0624
     12 C           4.2236    2.3263   -0.0022 C.ar    1  LIG1       -0.0535
     13 C           5.6121    2.2821   -0.0029 C.ar    1  LIG1       -0.0535
     14 C           3.4384    1.1596   -0.0014 C.ar    1  LIG1       -0.0178
     15 C           6.3214    1.0676   -0.0030 C.ar    1  LIG1       -0.0178
     16 H           6.1428    3.2271   -0.0035 H       1  LIG1        0.0624
     17 C           4.1477   -0.0550   -0.0015 C.ar    1  LIG1       -0.0535
     18 C           5.5361   -0.0993   -0.0023 C.ar    1  LIG1       -0.0535
     19 H           3.6169   -0.9999   -0.0010 H       1  LIG1        0.0624
     20 H           3.7542    3.3031   -0.0021 H       1  LIG1        0.0624
     21 H           6.0057   -1.0760   -0.0022 H       1  LIG1        0.0624
     22 C           8.5093   -0.2027   -0.0045 C.ar    1  LIG1       -0.0540
     23 C           9.9013   -0.2488   -0.0053 C.ar    1  LIG1       -0.0612
     24 C           7.8108    1.0199   -0.0039 C.ar    1  LIG1       -0.0179
     25 C          10.6482    0.9291   -0.0054 C.ar    1  LIG1       -0.0617
     26 H          10.4025   -1.2125   -0.0058 H       1  LIG1        0.0618
     27 C           8.5862    2.1955   -0.0040 C.ar    1  LIG1       -0.0540
     28 C           9.9781    2.1524   -0.0048 C.ar    1  LIG1       -0.0612
     29 H           8.1059    3.1670   -0.0035 H       1  LIG1        0.0624
     30 H          11.7335    0.8944   -0.0060 H       1  LIG1        0.0618
     31 H           7.9681   -1.1416   -0.0045 H       1  LIG1        0.0624
     32 H          10.5401    3.0820   -0.0049 H       1  LIG1        0.0618
@<TRIPOS>BOND
     1    30    25    1
     2    26    23    1
     3    25    23   ar
     4    25    28   ar
     5    23    22   ar
     6    32    28    1
     7    28    27   ar
     8    22    31    1
     9    22    24   ar
    10    27    24   ar
    11    27    29    1
    12    24    15    1
    13    16    13    1
    14    15    13   ar
    15    15    18   ar
    16    13    12   ar
    17    18    21    1
    18    18    17   ar
    19    11     7    1
    20    12    20    1
    21    12    14   ar
    22    17    14   ar
    23    17    19    1
    24    14     4    1
    25     7     4   ar
    26     7     6   ar
    27     8     6    1
    28     4     2   ar
    29     6     3   ar
    30     2     5    1
    31     2     1   ar
    32     3     1   ar
    33     3     9    1
    34     1    10    1
