@<TRIPOS>MOLECULE
mol_data/opt/b3lyp/geoms/mol2/44-5-12-.out
 36 39 0 0 0
SMALL
GASTEIGER

@<TRIPOS>ATOM
      1 C          -0.2679    0.1166    0.0020 C.ar    1  LIG1       -0.0612
      2 C           1.1239    0.0681    0.0010 C.ar    1  LIG1       -0.0540
      3 C          -0.9333    1.3424    0.0015 C.ar    1  LIG1       -0.0617
      4 C           1.9041    1.2407   -0.0005 C.ar    1  LIG1       -0.0179
      5 H           1.5999   -0.9055    0.0015 H       1  LIG1        0.0624
      6 C          -0.1818    2.5174    0.0001 C.ar    1  LIG1       -0.0612
      7 C           1.2099    2.4662   -0.0010 C.ar    1  LIG1       -0.0540
      8 H          -0.6793    3.4831   -0.0003 H       1  LIG1        0.0618
      9 H          -2.0184    1.3814    0.0023 H       1  LIG1        0.0618
     10 H          -0.8333   -0.8109    0.0032 H       1  LIG1        0.0618
     11 H           1.7543    3.4034   -0.0022 H       1  LIG1        0.0624
     12 C           4.1820    2.3543   -0.0021 C.ar    1  LIG1       -0.0534
     13 C           5.5686    2.3081   -0.0031 C.ar    1  LIG1       -0.0530
     14 C           3.3931    1.1871   -0.0016 C.ar    1  LIG1       -0.0178
     15 C           6.2640    1.0838   -0.0037 C.ar    1  LIG1       -0.0113
     16 H           6.1185    3.2434   -0.0035 H       1  LIG1        0.0624
     17 C           4.0948   -0.0329   -0.0022 C.ar    1  LIG1       -0.0534
     18 C           5.4820   -0.0852   -0.0032 C.ar    1  LIG1       -0.0530
     19 H           3.5580   -0.9741   -0.0020 H       1  LIG1        0.0624
     20 H           3.7133    3.3316   -0.0016 H       1  LIG1        0.0624
     21 H           5.9635   -1.0588   -0.0035 H       1  LIG1        0.0624
     22 C           7.7261    1.0428   -0.0047 C.ar    1  LIG1        0.0200
     23 C           8.6220    2.0935   -0.0046 C.ar    1  LIG1       -0.0462
     24 C           9.9798    1.6963   -0.0058 C.ar    1  LIG1       -0.0434
     25 C          10.1487    0.3270   -0.0069 C.ar    1  LIG1        0.0550
     26 S           8.5986   -0.4833   -0.0064 S.2     1  LIG1       -0.0852
     27 H           8.3165    3.1328   -0.0036 H       1  LIG1        0.0629
     28 H          10.8094    2.3938   -0.0059 H       1  LIG1        0.0630
     29 C          11.3800   -0.4206   -0.0082 C.ar    1  LIG1        0.1413
     30 C          12.7056   -0.0584   -0.0089 C.ar    1  LIG1       -0.0154
     31 C          13.4594   -1.2716   -0.0102 C.ar    1  LIG1       -0.0233
     32 C          12.5515   -2.2870   -0.0103 C.ar    1  LIG1        0.0926
     33 O          11.2825   -1.7881   -0.0091 O.2     1  LIG1       -0.4624
     34 H          12.6337   -3.3622   -0.0111 H       1  LIG1        0.1029
     35 H          13.0916    0.9501   -0.0084 H       1  LIG1        0.0655
     36 H          14.5349   -1.3724   -0.0111 H       1  LIG1        0.0649
@<TRIPOS>BOND
     1    34    32    1
     2    36    31    1
     3    32    31   ar
     4    32    33   ar
     5    31    30   ar
     6    33    29   ar
     7    30    35    1
     8    30    29   ar
     9    29    25    1
    10    25    26   ar
    11    25    24   ar
    12    26    22   ar
    13    28    24    1
    14    24    23   ar
    15    22    23   ar
    16    22    15    1
    17    23    27    1
    18    15    18   ar
    19    15    13   ar
    20    21    18    1
    21    16    13    1
    22    18    17   ar
    23    13    12   ar
    24    11     7    1
    25    17    19    1
    26    17    14   ar
    27    12    20    1
    28    12    14   ar
    29    14     4    1
    30     7     4   ar
    31     7     6   ar
    32     4     2   ar
    33     8     6    1
    34     6     3   ar
    35     2     5    1
    36     2     1   ar
    37     3     1   ar
    38     3     9    1
    39     1    10    1
