@<TRIPOS>MOLECULE
mol_data/opt/b3lyp/geoms/mol2/44-8-.out
 28 30 0 0 0
SMALL
GASTEIGER

@<TRIPOS>ATOM
      1 C          -0.1480    0.0793    0.0017 C.ar    1  LIG1       -0.0612
      2 C           1.2437    0.0326    0.0007 C.ar    1  LIG1       -0.0540
      3 C          -0.8139    1.3049    0.0013 C.ar    1  LIG1       -0.0617
      4 C           2.0207    1.2070   -0.0006 C.ar    1  LIG1       -0.0179
      5 H           1.7202   -0.9404    0.0011 H       1  LIG1        0.0624
      6 C          -0.0651    2.4816    0.0000 C.ar    1  LIG1       -0.0612
      7 C           1.3265    2.4323   -0.0009 C.ar    1  LIG1       -0.0540
      8 H          -0.5643    3.4461   -0.0003 H       1  LIG1        0.0618
      9 H          -1.8989    1.3423    0.0021 H       1  LIG1        0.0618
     10 H          -0.7127   -0.8484    0.0027 H       1  LIG1        0.0618
     11 H           1.8691    3.3702   -0.0021 H       1  LIG1        0.0624
     12 C           4.2921    2.3288   -0.0021 C.ar    1  LIG1       -0.0534
     13 C           5.6792    2.2870   -0.0031 C.ar    1  LIG1       -0.0504
     14 C           3.5107    1.1556   -0.0017 C.ar    1  LIG1       -0.0178
     15 C           6.3561    1.0576   -0.0037 C.ar    1  LIG1        0.0227
     16 H           6.2523    3.2069   -0.0034 H       1  LIG1        0.0625
     17 C           4.2095   -0.0685   -0.0023 C.ar    1  LIG1       -0.0534
     18 C           5.5962   -0.1223   -0.0032 C.ar    1  LIG1       -0.0504
     19 H           3.6696   -1.0075   -0.0020 H       1  LIG1        0.0624
     20 H           3.8180    3.3028   -0.0017 H       1  LIG1        0.0624
     21 H           6.1047   -1.0793   -0.0037 H       1  LIG1        0.0625
     22 C           7.8265    1.0069   -0.0047 C.ar    1  LIG1        0.2033
     23 N           8.5030    2.1784   -0.0048 N.ar    1  LIG1       -0.1258
     24 C          10.3882    0.9185   -0.0064 C.ar    1  LIG1        0.1605
     25 N           8.4206   -0.2084   -0.0054 N.ar    1  LIG1       -0.1258
     26 N           9.8205    2.1313   -0.0058 N.ar    1  LIG1       -0.1339
     27 N           9.7383   -0.2522   -0.0063 N.ar    1  LIG1       -0.1339
     28 H          11.4723    0.8811   -0.0074 H       1  LIG1        0.1085
@<TRIPOS>BOND
     1    28    24    1
     2    24    27   ar
     3    24    26   ar
     4    27    25   ar
     5    26    23   ar
     6    25    22   ar
     7    23    22   ar
     8    22    15    1
     9    15    18   ar
    10    15    13   ar
    11    21    18    1
    12    16    13    1
    13    18    17   ar
    14    13    12   ar
    15    17    19    1
    16    17    14   ar
    17    12    14   ar
    18    12    20    1
    19    11     7    1
    20    14     4    1
    21     7     4   ar
    22     7     6   ar
    23     4     2   ar
    24     8     6    1
    25     6     3   ar
    26     2     5    1
    27     2     1   ar
    28     3     1   ar
    29     3     9    1
    30     1    10    1
