@<TRIPOS>MOLECULE
mol_data/opt/b3lyp/geoms/mol2/44-84.out
 38 41 0 0 0
SMALL
GASTEIGER

@<TRIPOS>ATOM
      1 C          -0.2426    0.0797    0.0020 C.ar    1  LIG1       -0.0612
      2 C           1.1492    0.0333    0.0009 C.ar    1  LIG1       -0.0540
      3 C          -0.9089    1.3050    0.0016 C.ar    1  LIG1       -0.0617
      4 C           1.9263    1.2077   -0.0006 C.ar    1  LIG1       -0.0179
      5 H           1.6261   -0.9396    0.0014 H       1  LIG1        0.0624
      6 C          -0.1602    2.4817    0.0001 C.ar    1  LIG1       -0.0612
      7 C           1.2315    2.4326   -0.0009 C.ar    1  LIG1       -0.0540
      8 H          -0.6596    3.4462   -0.0003 H       1  LIG1        0.0618
      9 H          -1.9941    1.3422    0.0024 H       1  LIG1        0.0618
     10 H          -0.8069   -0.8483    0.0031 H       1  LIG1        0.0618
     11 H           1.7740    3.3706   -0.0022 H       1  LIG1        0.0624
     12 C           4.1980    2.3296   -0.0023 C.ar    1  LIG1       -0.0534
     13 C           5.5853    2.2879   -0.0033 C.ar    1  LIG1       -0.0504
     14 C           3.4166    1.1566   -0.0017 C.ar    1  LIG1       -0.0178
     15 C           6.2631    1.0589   -0.0038 C.ar    1  LIG1        0.0227
     16 H           6.1583    3.2078   -0.0038 H       1  LIG1        0.0625
     17 C           4.1158   -0.0672   -0.0021 C.ar    1  LIG1       -0.0534
     18 C           5.5027   -0.1208   -0.0032 C.ar    1  LIG1       -0.0504
     19 H           3.5761   -1.0064   -0.0018 H       1  LIG1        0.0624
     20 H           3.7239    3.3036   -0.0019 H       1  LIG1        0.0624
     21 H           6.0113   -1.0776   -0.0035 H       1  LIG1        0.0625
     22 C           7.7329    1.0085   -0.0049 C.ar    1  LIG1        0.2034
     23 N           8.3322   -0.2029   -0.0055 N.ar    1  LIG1       -0.1252
     24 C          10.3241    0.9194   -0.0068 C.ar    1  LIG1        0.2034
     25 N           8.4140    2.1758   -0.0053 N.ar    1  LIG1       -0.1252
     26 N           9.6435   -0.2473   -0.0064 N.ar    1  LIG1       -0.1252
     27 N           9.7252    2.1302   -0.0062 N.ar    1  LIG1       -0.1252
     28 C          12.4642   -0.3681   -0.0083 C.ar    1  LIG1       -0.0509
     29 C          13.8556   -0.4117   -0.0093 C.ar    1  LIG1       -0.0611
     30 C          11.7978    0.8687   -0.0079 C.ar    1  LIG1        0.0226
     31 C          14.5967    0.7723   -0.0099 C.ar    1  LIG1       -0.0617
     32 H          14.3632   -1.3716   -0.0097 H       1  LIG1        0.0618
     33 C          12.5477    2.0568   -0.0084 C.ar    1  LIG1       -0.0509
     34 C          13.9388    2.0045   -0.0094 C.ar    1  LIG1       -0.0611
     35 H          12.0286    3.0080   -0.0081 H       1  LIG1        0.0625
     36 H          15.6821    0.7349   -0.0107 H       1  LIG1        0.0618
     37 H          11.8810   -1.2812   -0.0079 H       1  LIG1        0.0625
     38 H          14.5113    2.9272   -0.0099 H       1  LIG1        0.0618
@<TRIPOS>BOND
     1    36    31    1
     2    38    34    1
     3    31    34   ar
     4    31    29   ar
     5    32    29    1
     6    34    33   ar
     7    29    28   ar
     8    33    35    1
     9    33    30   ar
    10    28    37    1
    11    28    30   ar
    12    30    24    1
    13    24    26   ar
    14    24    27   ar
    15    26    23   ar
    16    27    25   ar
    17    23    22   ar
    18    25    22   ar
    19    22    15    1
    20    16    13    1
    21    15    13   ar
    22    15    18   ar
    23    21    18    1
    24    13    12   ar
    25    18    17   ar
    26    12    20    1
    27    12    14   ar
    28    11     7    1
    29    17    19    1
    30    17    14   ar
    31    14     4    1
    32     7     4   ar
    33     7     6   ar
    34     4     2   ar
    35     8     6    1
    36     6     3   ar
    37     2     5    1
    38     2     1   ar
    39     3     1   ar
    40     3     9    1
    41     1    10    1
