@<TRIPOS>MOLECULE
mol_data/opt/b3lyp/geoms/mol2/44-813.out
 36 39 0 0 0
SMALL
GASTEIGER

@<TRIPOS>ATOM
      1 C          -0.2212    0.0995    0.0020 C.ar    1  LIG1       -0.0612
      2 C           1.1703    0.0455    0.0009 C.ar    1  LIG1       -0.0540
      3 C          -0.8811    1.3282    0.0018 C.ar    1  LIG1       -0.0617
      4 C           1.9541    1.2155   -0.0005 C.ar    1  LIG1       -0.0179
      5 H           1.6421   -0.9299    0.0011 H       1  LIG1        0.0624
      6 C          -0.1258    2.5007    0.0004 C.ar    1  LIG1       -0.0612
      7 C           1.2656    2.4440   -0.0007 C.ar    1  LIG1       -0.0540
      8 H          -0.6198    3.4680    0.0002 H       1  LIG1        0.0618
      9 H          -1.9659    1.3713    0.0026 H       1  LIG1        0.0618
     10 H          -0.7904   -0.8254    0.0030 H       1  LIG1        0.0618
     11 H           1.8132    3.3785   -0.0018 H       1  LIG1        0.0624
     12 C           4.2328    2.3240   -0.0025 C.ar    1  LIG1       -0.0534
     13 C           5.6200    2.2741   -0.0036 C.ar    1  LIG1       -0.0504
     14 C           3.4441    1.1561   -0.0017 C.ar    1  LIG1       -0.0178
     15 C           6.2916    1.0417   -0.0040 C.ar    1  LIG1        0.0227
     16 H           6.1976    3.1912   -0.0041 H       1  LIG1        0.0625
     17 C           4.1366   -0.0712   -0.0022 C.ar    1  LIG1       -0.0534
     18 C           5.5233   -0.1329   -0.0033 C.ar    1  LIG1       -0.0504
     19 H           3.5918   -1.0074   -0.0017 H       1  LIG1        0.0624
     20 H           3.7649    3.3007   -0.0021 H       1  LIG1        0.0624
     21 H           6.0261   -1.0931   -0.0036 H       1  LIG1        0.0625
     22 C           7.7610    0.9819   -0.0052 C.ar    1  LIG1        0.2034
     23 N           8.3510   -0.2379   -0.0058 N.ar    1  LIG1       -0.1252
     24 C          10.3450    0.8646   -0.0073 C.ar    1  LIG1        0.2194
     25 N           8.4502    2.1435   -0.0056 N.ar    1  LIG1       -0.1252
     26 N           9.6584   -0.3046   -0.0068 N.ar    1  LIG1       -0.1237
     27 N           9.7609    2.0868   -0.0067 N.ar    1  LIG1       -0.1237
     28 C          11.7838    0.8206   -0.0084 C.ar    1  LIG1        0.0875
     29 C          12.6796   -0.2450   -0.0094 C.ar    1  LIG1       -0.0333
     30 C          13.9814    0.3017   -0.0102 C.ar    1  LIG1       -0.0437
     31 C          13.8521    1.6837   -0.0101 C.ar    1  LIG1        0.0023
     32 N          12.5238    1.9849   -0.0088 N.ar    1  LIG1       -0.3582
     33 H          12.0993    2.9005   -0.0084 H       1  LIG1        0.1654
     34 H          14.6030    2.4602   -0.0106 H       1  LIG1        0.0807
     35 H          12.3998   -1.2880   -0.0094 H       1  LIG1        0.0640
     36 H          14.9139   -0.2443   -0.0109 H       1  LIG1        0.0633
@<TRIPOS>BOND
     1    36    30    1
     2    34    31    1
     3    30    31   ar
     4    30    29   ar
     5    31    32   ar
     6    29    35    1
     7    29    28   ar
     8    32    33    1
     9    32    28   ar
    10    28    24    1
    11    24    26   ar
    12    24    27   ar
    13    26    23   ar
    14    27    25   ar
    15    23    22   ar
    16    25    22   ar
    17    22    15    1
    18    16    13    1
    19    15    13   ar
    20    15    18   ar
    21    21    18    1
    22    13    12   ar
    23    18    17   ar
    24    12    20    1
    25    12    14   ar
    26    17    14   ar
    27    17    19    1
    28    11     7    1
    29    14     4    1
    30     7     4   ar
    31     7     6   ar
    32     4     2   ar
    33     8     6    1
    34     6     3   ar
    35     2     5    1
    36     2     1   ar
    37     3     1   ar
    38     3     9    1
    39     1    10    1
