@<TRIPOS>MOLECULE
mol_data/opt/b3lyp/geoms/mol2/44.out
 22 23 0 0 0
SMALL
GASTEIGER

@<TRIPOS>ATOM
      1 C          -0.0622    0.0540    0.0006 C.ar    1  LIG1       -0.0612
      2 C           1.3305    0.0308    0.0008 C.ar    1  LIG1       -0.0540
      3 C          -0.7496    1.2673   -0.0003 C.ar    1  LIG1       -0.0617
      4 C           2.0898    1.2164    0.0002 C.ar    1  LIG1       -0.0179
      5 H           1.8229   -0.9344    0.0015 H       1  LIG1        0.0624
      6 C          -0.0191    2.4551   -0.0008 C.ar    1  LIG1       -0.0612
      7 C           1.3736    2.4284   -0.0006 C.ar    1  LIG1       -0.0540
      8 H          -0.5335    3.4120   -0.0015 H       1  LIG1        0.0618
      9 H          -1.8353    1.2869   -0.0005 H       1  LIG1        0.0618
     10 H          -0.6106   -0.8837    0.0010 H       1  LIG1        0.0618
     11 H           1.8999    3.3751   -0.0011 H       1  LIG1        0.0624
     12 C           4.2998   -0.0226    0.0007 C.ar    1  LIG1       -0.0540
     13 C           5.6925   -0.0493    0.0009 C.ar    1  LIG1       -0.0612
     14 C           3.5836    1.1894    0.0005 C.ar    1  LIG1       -0.0179
     15 C           6.4230    1.1384    0.0010 C.ar    1  LIG1       -0.0617
     16 H           6.2068   -1.0062    0.0010 H       1  LIG1        0.0618
     17 C           4.3430    2.3750    0.0006 C.ar    1  LIG1       -0.0540
     18 C           5.7356    2.3518    0.0009 C.ar    1  LIG1       -0.0612
     19 H           3.8506    3.3403    0.0006 H       1  LIG1        0.0624
     20 H           7.5087    1.1189    0.0012 H       1  LIG1        0.0618
     21 H           3.7731   -0.9697    0.0005 H       1  LIG1        0.0624
     22 H           6.2841    3.2895    0.0010 H       1  LIG1        0.0618
@<TRIPOS>BOND
     1     8     6    1
     2    11     7    1
     3     6     7   ar
     4     6     3   ar
     5     7     4   ar
     6     9     3    1
     7     3     1   ar
     8     4    14    1
     9     4     2   ar
    10    21    12    1
    11    14    17   ar
    12    14    12   ar
    13     1     2   ar
    14     1    10    1
    15    19    17    1
    16    17    18   ar
    17    12    13   ar
    18     2     5    1
    19    18    22    1
    20    18    15   ar
    21    13    16    1
    22    13    15   ar
    23    15    20    1
