@<TRIPOS>MOLECULE
mol_data/opt/b3lyp/geoms/mol2/4412-.out
 29 31 0 0 0
SMALL
GASTEIGER

@<TRIPOS>ATOM
      1 C          -0.1487    0.0697    0.0000 C.ar    1  LIG1       -0.0612
      2 C           1.2436    0.0374    0.0007 C.ar    1  LIG1       -0.0540
      3 C          -0.8285    1.2875   -0.0010 C.ar    1  LIG1       -0.0617
      4 C           2.0104    1.2188    0.0003 C.ar    1  LIG1       -0.0179
      5 H           1.7307   -0.9306    0.0016 H       1  LIG1        0.0624
      6 C          -0.0906    2.4710   -0.0015 C.ar    1  LIG1       -0.0612
      7 C           1.3017    2.4359   -0.0008 C.ar    1  LIG1       -0.0540
      8 H          -0.5993    3.4309   -0.0023 H       1  LIG1        0.0618
      9 H          -1.9139    1.3137   -0.0016 H       1  LIG1        0.0618
     10 H          -0.7031   -0.8644    0.0004 H       1  LIG1        0.0618
     11 H           1.8344    3.3792   -0.0012 H       1  LIG1        0.0624
     12 C           4.2156   -0.0306    0.0014 C.ar    1  LIG1       -0.0534
     13 C           5.6041   -0.0699    0.0020 C.ar    1  LIG1       -0.0505
     14 C           3.5006    1.1821    0.0010 C.ar    1  LIG1       -0.0178
     15 C           6.3606    1.1134    0.0023 C.ar    1  LIG1        0.0173
     16 H           6.1139   -1.0269    0.0024 H       1  LIG1        0.0625
     17 C           4.2729    2.3609    0.0012 C.ar    1  LIG1       -0.0534
     18 C           5.6601    2.3317    0.0018 C.ar    1  LIG1       -0.0505
     19 H           3.7909    3.3313    0.0009 H       1  LIG1        0.0624
     20 H           3.6874   -0.9772    0.0012 H       1  LIG1        0.0624
     21 H           6.2067    3.2696    0.0020 H       1  LIG1        0.0625
     22 C           7.8151    1.0855    0.0030 C.ar    1  LIG1        0.1348
     23 C           8.7832    2.0588    0.0036 C.ar    1  LIG1       -0.0159
     24 C          10.0453    1.3892    0.0041 C.ar    1  LIG1       -0.0233
     25 C           9.7661    0.0564    0.0037 C.ar    1  LIG1        0.0926
     26 O           8.4199   -0.1473    0.0031 O.2     1  LIG1       -0.4629
     27 H          10.3768   -0.8327    0.0038 H       1  LIG1        0.1029
     28 H           8.6184    3.1263    0.0038 H       1  LIG1        0.0655
     29 H          11.0266    1.8412    0.0047 H       1  LIG1        0.0649
@<TRIPOS>BOND
     1     8     6    1
     2     9     3    1
     3     6     3   ar
     4     6     7   ar
     5    11     7    1
     6     3     1   ar
     7     7     4   ar
     8     1    10    1
     9     1     2   ar
    10     4     2   ar
    11     4    14    1
    12     2     5    1
    13    19    17    1
    14    14    17   ar
    15    14    12   ar
    16    20    12    1
    17    17    18   ar
    18    12    13   ar
    19    18    21    1
    20    18    15   ar
    21    13    15   ar
    22    13    16    1
    23    15    22    1
    24    22    26   ar
    25    22    23   ar
    26    26    25   ar
    27    23    28    1
    28    23    24   ar
    29    25    27    1
    30    25    24   ar
    31    24    29    1
