@<TRIPOS>MOLECULE
mol_data/opt/b3lyp/geoms/mol2/441212-.out
 36 39 0 0 0
SMALL
GASTEIGER

@<TRIPOS>ATOM
      1 C          -0.1969   -0.0369   -0.0001 C.ar    1  LIG1       -0.0612
      2 C           1.1958   -0.0300    0.0006 C.ar    1  LIG1       -0.0540
      3 C          -0.9107    1.1614   -0.0012 C.ar    1  LIG1       -0.0617
      4 C           1.9291    1.1726    0.0002 C.ar    1  LIG1       -0.0179
      5 H           1.7093   -0.9844    0.0015 H       1  LIG1        0.0624
      6 C          -0.2063    2.3652   -0.0016 C.ar    1  LIG1       -0.0612
      7 C           1.1863    2.3693   -0.0009 C.ar    1  LIG1       -0.0540
      8 H          -0.7417    3.3104   -0.0025 H       1  LIG1        0.0618
      9 H          -1.9965    1.1571   -0.0018 H       1  LIG1        0.0618
     10 H          -0.7249   -0.9863    0.0002 H       1  LIG1        0.0618
     11 H           1.6928    3.3274   -0.0014 H       1  LIG1        0.0624
     12 C           4.1686   -0.0143    0.0013 C.ar    1  LIG1       -0.0534
     13 C           5.5556   -0.0131    0.0020 C.ar    1  LIG1       -0.0505
     14 C           3.4195    1.1796    0.0009 C.ar    1  LIG1       -0.0178
     15 C           6.2810    1.1916    0.0024 C.ar    1  LIG1        0.0173
     16 H           6.0832   -0.9620    0.0022 H       1  LIG1        0.0625
     17 C           4.1586    2.3781    0.0014 C.ar    1  LIG1       -0.0534
     18 C           5.5471    2.3902    0.0021 C.ar    1  LIG1       -0.0505
     19 H           3.6494    3.3347    0.0013 H       1  LIG1        0.0624
     20 H           3.6674   -0.9748    0.0009 H       1  LIG1        0.0624
     21 H           6.0751    3.3371    0.0024 H       1  LIG1        0.0625
     22 C           7.7327    1.1906    0.0031 C.ar    1  LIG1        0.1358
     23 C           8.6829    0.1965    0.0033 C.ar    1  LIG1       -0.0151
     24 C           9.9548    0.8310    0.0041 C.ar    1  LIG1       -0.0122
     25 C           9.7116    2.1822    0.0043 C.ar    1  LIG1        0.1705
     26 O           8.3642    2.4115    0.0037 O.2     1  LIG1       -0.4517
     27 H           8.4940   -0.8668    0.0029 H       1  LIG1        0.0656
     28 H          10.9273    0.3628    0.0044 H       1  LIG1        0.0657
     29 C          10.5665    3.3352    0.0051 C.ar    1  LIG1        0.1697
     30 C          10.3275    4.6859    0.0057 C.ar    1  LIG1       -0.0128
     31 C          11.6090    5.3189    0.0064 C.ar    1  LIG1       -0.0232
     32 C          12.5318    4.3175    0.0061 C.ar    1  LIG1        0.0927
     33 O          11.9157    3.0995    0.0053 O.2     1  LIG1       -0.4598
     34 H          13.6099    4.2965    0.0064 H       1  LIG1        0.1029
     35 H           9.3570    5.1581    0.0057 H       1  LIG1        0.0656
     36 H          11.8134    6.3796    0.0069 H       1  LIG1        0.0649
@<TRIPOS>BOND
     1     8     6    1
     2     9     3    1
     3     6     3   ar
     4     6     7   ar
     5    11     7    1
     6     3     1   ar
     7     7     4   ar
     8     1    10    1
     9     1     2   ar
    10     4     2   ar
    11     4    14    1
    12     2     5    1
    13    20    12    1
    14    14    12   ar
    15    14    17   ar
    16    12    13   ar
    17    19    17    1
    18    17    18   ar
    19    13    16    1
    20    13    15   ar
    21    18    15   ar
    22    18    21    1
    23    15    22    1
    24    27    23    1
    25    22    23   ar
    26    22    26   ar
    27    23    24   ar
    28    26    25   ar
    29    24    25   ar
    30    24    28    1
    31    25    29    1
    32    29    33   ar
    33    29    30   ar
    34    33    32   ar
    35    30    35    1
    36    30    31   ar
    37    32    31   ar
    38    32    34    1
    39    31    36    1
