@<TRIPOS>MOLECULE
mol_data/opt/b3lyp/geoms/mol2/4413-.out
 30 32 0 0 0
SMALL
GASTEIGER

@<TRIPOS>ATOM
      1 C          -0.1712    0.0680    0.0002 C.ar    1  LIG1       -0.0612
      2 C           1.2211    0.0371    0.0008 C.ar    1  LIG1       -0.0540
      3 C          -0.8524    1.2851   -0.0009 C.ar    1  LIG1       -0.0617
      4 C           1.9873    1.2190    0.0003 C.ar    1  LIG1       -0.0179
      5 H           1.7090   -0.9307    0.0017 H       1  LIG1        0.0624
      6 C          -0.1153    2.4691   -0.0014 C.ar    1  LIG1       -0.0612
      7 C           1.2771    2.4354   -0.0009 C.ar    1  LIG1       -0.0540
      8 H          -0.6246    3.4286   -0.0023 H       1  LIG1        0.0618
      9 H          -1.9379    1.3104   -0.0014 H       1  LIG1        0.0618
     10 H          -0.7247   -0.8667    0.0006 H       1  LIG1        0.0618
     11 H           1.8094    3.3790   -0.0014 H       1  LIG1        0.0624
     12 C           4.1948   -0.0250    0.0015 C.ar    1  LIG1       -0.0534
     13 C           5.5838   -0.0589    0.0021 C.ar    1  LIG1       -0.0521
     14 C           3.4767    1.1845    0.0009 C.ar    1  LIG1       -0.0178
     15 C           6.3518    1.1193    0.0021 C.ar    1  LIG1       -0.0017
     16 H           6.0650   -1.0334    0.0026 H       1  LIG1        0.0624
     17 C           4.2518    2.3613    0.0010 C.ar    1  LIG1       -0.0534
     18 C           5.6385    2.3326    0.0016 C.ar    1  LIG1       -0.0521
     19 H           3.7710    3.3326    0.0006 H       1  LIG1        0.0624
     20 H           3.6702   -0.9738    0.0014 H       1  LIG1        0.0624
     21 H           6.1808    3.2724    0.0015 H       1  LIG1        0.0624
     22 C           7.8110    1.1113    0.0027 C.ar    1  LIG1        0.0465
     23 C           8.7282    2.1577    0.0038 C.ar    1  LIG1       -0.0364
     24 C          10.0328    1.6047    0.0038 C.ar    1  LIG1       -0.0438
     25 C           9.8955    0.2314    0.0033 C.ar    1  LIG1        0.0022
     26 N           8.5553   -0.0548    0.0023 N.ar    1  LIG1       -0.3607
     27 H           8.1705   -0.9845    0.0017 H       1  LIG1        0.1653
     28 H          10.6346   -0.5557    0.0032 H       1  LIG1        0.0807
     29 H           8.4825    3.2097    0.0044 H       1  LIG1        0.0639
     30 H          10.9668    2.1483    0.0043 H       1  LIG1        0.0633
@<TRIPOS>BOND
     1     8     6    1
     2     6     3   ar
     3     6     7   ar
     4     9     3    1
     5    11     7    1
     6     3     1   ar
     7     7     4   ar
     8     1    10    1
     9     1     2   ar
    10     4     2   ar
    11     4    14    1
    12    19    17    1
    13     2     5    1
    14    14    17   ar
    15    14    12   ar
    16    17    18   ar
    17    20    12    1
    18    12    13   ar
    19    21    18    1
    20    18    15   ar
    21    27    26    1
    22    13    15   ar
    23    13    16    1
    24    15    22    1
    25    26    22   ar
    26    26    25   ar
    27    22    23   ar
    28    28    25    1
    29    25    24   ar
    30    24    23   ar
    31    24    30    1
    32    23    29    1
