@<TRIPOS>MOLECULE
mol_data/opt/b3lyp/geoms/mol2/4413-13.out
 38 41 0 0 0
SMALL
GASTEIGER

@<TRIPOS>ATOM
      1 C          -0.2645    0.1204    0.0003 C.ar    1  LIG1       -0.0612
      2 C           1.1275    0.0823    0.0010 C.ar    1  LIG1       -0.0540
      3 C          -0.9395    1.3411   -0.0013 C.ar    1  LIG1       -0.0617
      4 C           1.8999    1.2603    0.0002 C.ar    1  LIG1       -0.0179
      5 H           1.6106   -0.8880    0.0024 H       1  LIG1        0.0624
      6 C          -0.1962    2.5212   -0.0022 C.ar    1  LIG1       -0.0612
      7 C           1.1960    2.4803   -0.0015 C.ar    1  LIG1       -0.0540
      8 H          -0.7005    3.4834   -0.0035 H       1  LIG1        0.0618
      9 H          -2.0247    1.3722   -0.0019 H       1  LIG1        0.0618
     10 H          -0.8228   -0.8114    0.0011 H       1  LIG1        0.0618
     11 H           1.7333    3.4213   -0.0022 H       1  LIG1        0.0624
     12 C           4.1005    0.0038    0.0020 C.ar    1  LIG1       -0.0534
     13 C           5.4889   -0.0384    0.0027 C.ar    1  LIG1       -0.0521
     14 C           3.3891    1.2175    0.0009 C.ar    1  LIG1       -0.0178
     15 C           6.2638    1.1361    0.0024 C.ar    1  LIG1       -0.0017
     16 H           5.9651   -1.0152    0.0036 H       1  LIG1        0.0624
     17 C           4.1709    2.3903    0.0007 C.ar    1  LIG1       -0.0534
     18 C           5.5570    2.3542    0.0014 C.ar    1  LIG1       -0.0521
     19 H           3.6951    3.3641   -0.0001 H       1  LIG1        0.0624
     20 H           3.5706   -0.9420    0.0022 H       1  LIG1        0.0624
     21 H           6.1045    3.2911    0.0011 H       1  LIG1        0.0624
     22 C           7.7200    1.1178    0.0031 C.ar    1  LIG1        0.0469
     23 C           8.6450    2.1584    0.0038 C.ar    1  LIG1       -0.0358
     24 C           9.9410    1.5991    0.0044 C.ar    1  LIG1       -0.0344
     25 C           9.8068    0.2126    0.0040 C.ar    1  LIG1        0.0633
     26 N           8.4573   -0.0525    0.0032 N.ar    1  LIG1       -0.3530
     27 H           8.0684   -0.9805    0.0029 H       1  LIG1        0.1659
     28 H           8.4082    3.2123    0.0040 H       1  LIG1        0.0639
     29 H          10.8720    2.1495    0.0050 H       1  LIG1        0.0639
     30 C          10.7915   -0.8450    0.0043 C.ar    1  LIG1        0.0629
     31 C          10.6601   -2.2293    0.0041 C.ar    1  LIG1       -0.0350
     32 C          11.9636   -2.7919    0.0047 C.ar    1  LIG1       -0.0438
     33 C          12.8634   -1.7474    0.0048 C.ar    1  LIG1        0.0022
     34 N          12.1456   -0.5765    0.0049 N.ar    1  LIG1       -0.3595
     35 H          12.5436    0.3482    0.0048 H       1  LIG1        0.1654
     36 H          13.9428   -1.7402    0.0051 H       1  LIG1        0.0807
     37 H           9.7290   -2.7797    0.0037 H       1  LIG1        0.0639
     38 H          12.2132   -3.8433    0.0049 H       1  LIG1        0.0633
@<TRIPOS>BOND
     1     8     6    1
     2    11     7    1
     3     6     7   ar
     4     6     3   ar
     5     9     3    1
     6     7     4   ar
     7     3     1   ar
     8    19    17    1
     9     4    14    1
    10     4     2   ar
    11     1     2   ar
    12     1    10    1
    13    17    14   ar
    14    17    18   ar
    15    14    12   ar
    16     2     5    1
    17    21    18    1
    18    18    15   ar
    19    12    20    1
    20    12    13   ar
    21    15    13   ar
    22    15    22    1
    23    13    16    1
    24    27    26    1
    25    22    26   ar
    26    22    23   ar
    27    26    25   ar
    28    37    31    1
    29    23    28    1
    30    23    24   ar
    31    25    30    1
    32    25    24   ar
    33    31    30   ar
    34    31    32   ar
    35    30    34   ar
    36    24    29    1
    37    32    33   ar
    38    32    38    1
    39    33    34   ar
    40    33    36    1
    41    35    34    1
