@<TRIPOS>MOLECULE
mol_data/opt/b3lyp/geoms/mol2/444-.out
 32 34 0 0 0
SMALL
GASTEIGER

@<TRIPOS>ATOM
      1 C          -0.2050    0.0655    0.0005 C.ar    1  LIG1       -0.0612
      2 C           1.1875    0.0380    0.0009 C.ar    1  LIG1       -0.0540
      3 C          -0.8887    1.2811   -0.0007 C.ar    1  LIG1       -0.0617
      4 C           1.9495    1.2223    0.0003 C.ar    1  LIG1       -0.0179
      5 H           1.6786   -0.9280    0.0019 H       1  LIG1        0.0624
      6 C          -0.1551    2.4673   -0.0014 C.ar    1  LIG1       -0.0612
      7 C           1.2373    2.4370   -0.0009 C.ar    1  LIG1       -0.0540
      8 H          -0.6672    3.4254   -0.0023 H       1  LIG1        0.0618
      9 H          -1.9742    1.3038   -0.0010 H       1  LIG1        0.0618
     10 H          -0.7564   -0.8704    0.0011 H       1  LIG1        0.0618
     11 H           1.7680    3.3820   -0.0015 H       1  LIG1        0.0624
     12 C           4.1622   -0.0151    0.0013 C.ar    1  LIG1       -0.0535
     13 C           5.5511   -0.0438    0.0018 C.ar    1  LIG1       -0.0535
     14 C           3.4394    1.1913    0.0007 C.ar    1  LIG1       -0.0178
     15 C           6.3231    1.1318    0.0017 C.ar    1  LIG1       -0.0178
     16 H           6.0316   -1.0152    0.0023 H       1  LIG1        0.0624
     17 C           4.2114    2.3670    0.0006 C.ar    1  LIG1       -0.0535
     18 C           5.6002    2.3383    0.0011 C.ar    1  LIG1       -0.0535
     19 H           3.7308    3.3384    0.0002 H       1  LIG1        0.0624
     20 H           3.6420   -0.9663    0.0014 H       1  LIG1        0.0624
     21 H           6.1203    3.2890    0.0009 H       1  LIG1        0.0624
     22 C           8.5748    2.2854    0.0027 C.ar    1  LIG1       -0.0540
     23 C           9.9674    2.2582    0.0031 C.ar    1  LIG1       -0.0612
     24 C           7.8131    1.1012    0.0022 C.ar    1  LIG1       -0.0179
     25 C          10.6513    1.0428    0.0031 C.ar    1  LIG1       -0.0617
     26 H          10.5185    3.1943    0.0035 H       1  LIG1        0.0618
     27 C           8.5255   -0.1136    0.0021 C.ar    1  LIG1       -0.0540
     28 C           9.9178   -0.1436    0.0026 C.ar    1  LIG1       -0.0612
     29 H           7.9949   -1.0585    0.0017 H       1  LIG1        0.0624
     30 H          11.7368    1.0204    0.0034 H       1  LIG1        0.0618
     31 H           8.0837    3.2513    0.0028 H       1  LIG1        0.0624
     32 H          10.4301   -1.1014    0.0026 H       1  LIG1        0.0618
@<TRIPOS>BOND
     1     8     6    1
     2    11     7    1
     3     6     7   ar
     4     6     3   ar
     5     9     3    1
     6     7     4   ar
     7     3     1   ar
     8    19    17    1
     9     4    14    1
    10     4     2   ar
    11     1     2   ar
    12     1    10    1
    13    17    14   ar
    14    17    18   ar
    15    14    12   ar
    16    21    18    1
    17     2     5    1
    18    18    15   ar
    19    12    20    1
    20    12    13   ar
    21    15    13   ar
    22    15    24    1
    23    29    27    1
    24    13    16    1
    25    27    24   ar
    26    27    28   ar
    27    24    22   ar
    28    32    28    1
    29    28    25   ar
    30    22    31    1
    31    22    23   ar
    32    25    23   ar
    33    25    30    1
    34    23    26    1
