@<TRIPOS>MOLECULE
mol_data/opt/b3lyp/geoms/mol2/4445-.out
 39 42 0 0 0
SMALL
GASTEIGER

@<TRIPOS>ATOM
      1 C          -0.2892    0.0242   -0.0011 C.ar    1  LIG1       -0.0612
      2 C           1.1034    0.0145    0.0003 C.ar    1  LIG1       -0.0540
      3 C          -0.9884    1.2310   -0.0033 C.ar    1  LIG1       -0.0617
      4 C           1.8502    1.2084   -0.0004 C.ar    1  LIG1       -0.0179
      5 H           1.6067   -0.9452    0.0021 H       1  LIG1        0.0624
      6 C          -0.2701    2.4266   -0.0041 C.ar    1  LIG1       -0.0612
      7 C           1.1225    2.4141   -0.0026 C.ar    1  LIG1       -0.0540
      8 H          -0.7945    3.3779   -0.0058 H       1  LIG1        0.0618
      9 H          -2.0741    1.2396   -0.0044 H       1  LIG1        0.0618
     10 H          -0.8287   -0.9186   -0.0005 H       1  LIG1        0.0618
     11 H           1.6410    3.3657   -0.0034 H       1  LIG1        0.0624
     12 C           4.0784   -0.0013    0.0024 C.ar    1  LIG1       -0.0535
     13 C           5.4672   -0.0127    0.0038 C.ar    1  LIG1       -0.0535
     14 C           3.3404    1.1964    0.0011 C.ar    1  LIG1       -0.0178
     15 C           6.2242    1.1733    0.0040 C.ar    1  LIG1       -0.0178
     16 H           5.9606   -0.9777    0.0048 H       1  LIG1        0.0624
     17 C           4.0975    2.3820    0.0013 C.ar    1  LIG1       -0.0535
     18 C           5.4863    2.3713    0.0027 C.ar    1  LIG1       -0.0535
     19 H           3.6045    3.3471    0.0005 H       1  LIG1        0.0624
     20 H           3.5700   -0.9584    0.0022 H       1  LIG1        0.0624
     21 H           5.9950    3.3283    0.0028 H       1  LIG1        0.0624
     22 C           8.4460   -0.0388    0.0061 C.ar    1  LIG1       -0.0534
     23 C           9.8343   -0.0507    0.0075 C.ar    1  LIG1       -0.0530
     24 C           7.7103    1.1614    0.0056 C.ar    1  LIG1       -0.0178
     25 C          10.5817    1.1401    0.0086 C.ar    1  LIG1       -0.0113
     26 H          10.3440   -1.0098    0.0079 H       1  LIG1        0.0624
     27 C           8.4650    2.3510    0.0066 C.ar    1  LIG1       -0.0534
     28 C           9.8524    2.3437    0.0081 C.ar    1  LIG1       -0.0530
     29 H           7.9679    3.3140    0.0064 H       1  LIG1        0.0624
     30 H           7.9349   -0.9945    0.0052 H       1  LIG1        0.0624
     31 H          10.3762    3.2937    0.0087 H       1  LIG1        0.0624
     32 C          12.0472    1.1427    0.0101 C.ar    1  LIG1        0.0193
     33 C          12.9106    2.2176    0.0121 C.ar    1  LIG1       -0.0469
     34 C          14.2865    1.8541    0.0132 C.ar    1  LIG1       -0.0541
     35 C          14.4773    0.5003    0.0121 C.ar    1  LIG1       -0.0237
     36 S          12.9696   -0.3537    0.0096 S.2     1  LIG1       -0.0967
     37 H          15.4079   -0.0495    0.0126 H       1  LIG1        0.0693
     38 H          12.5743    3.2474    0.0128 H       1  LIG1        0.0629
     39 H          15.0987    2.5719    0.0148 H       1  LIG1        0.0623
@<TRIPOS>BOND
     1     8     6    1
     2     9     3    1
     3     6     3   ar
     4     6     7   ar
     5    11     7    1
     6     3     1   ar
     7     7     4   ar
     8     1    10    1
     9     1     2   ar
    10     4     2   ar
    11     4    14    1
    12     2     5    1
    13    19    17    1
    14    14    17   ar
    15    14    12   ar
    16    17    18   ar
    17    20    12    1
    18    12    13   ar
    19    18    21    1
    20    18    15   ar
    21    13    15   ar
    22    13    16    1
    23    15    24    1
    24    30    22    1
    25    24    22   ar
    26    24    27   ar
    27    22    23   ar
    28    29    27    1
    29    27    28   ar
    30    23    26    1
    31    23    25   ar
    32    28    25   ar
    33    28    31    1
    34    25    32    1
    35    36    32   ar
    36    36    35   ar
    37    32    33   ar
    38    35    37    1
    39    35    34   ar
    40    33    38    1
    41    33    34   ar
    42    34    39    1
