@<TRIPOS>MOLECULE
mol_data/opt/b3lyp/geoms/mol2/445-4-.out
 39 42 0 0 0
SMALL
GASTEIGER

@<TRIPOS>ATOM
      1 C          -0.2926    0.0954   -0.0004 C.ar    1  LIG1       -0.0612
      2 C           1.0999    0.0744    0.0005 C.ar    1  LIG1       -0.0540
      3 C          -0.9820    1.3079   -0.0016 C.ar    1  LIG1       -0.0617
      4 C           1.8566    1.2623    0.0001 C.ar    1  LIG1       -0.0179
      5 H           1.5950   -0.8895    0.0015 H       1  LIG1        0.0624
      6 C          -0.2539    2.4974   -0.0020 C.ar    1  LIG1       -0.0612
      7 C           1.1386    2.4738   -0.0012 C.ar    1  LIG1       -0.0540
      8 H          -0.7705    3.4530   -0.0030 H       1  LIG1        0.0618
      9 H          -2.0676    1.3255   -0.0023 H       1  LIG1        0.0618
     10 H          -0.8395   -0.8431   -0.0000 H       1  LIG1        0.0618
     11 H           1.6643    3.4213   -0.0016 H       1  LIG1        0.0624
     12 C           4.0719    0.0319    0.0016 C.ar    1  LIG1       -0.0534
     13 C           5.4600    0.0070    0.0024 C.ar    1  LIG1       -0.0530
     14 C           3.3467    1.2380    0.0010 C.ar    1  LIG1       -0.0178
     15 C           6.2182    1.1911    0.0027 C.ar    1  LIG1       -0.0113
     16 H           5.9613   -0.9565    0.0029 H       1  LIG1        0.0624
     17 C           4.1122    2.4205    0.0013 C.ar    1  LIG1       -0.0534
     18 C           5.4996    2.4016    0.0021 C.ar    1  LIG1       -0.0530
     19 H           3.6244    3.3882    0.0009 H       1  LIG1        0.0624
     20 H           3.5534   -0.9197    0.0013 H       1  LIG1        0.0624
     21 H           6.0314    3.3473    0.0022 H       1  LIG1        0.0624
     22 C           7.6814    1.1796    0.0036 C.ar    1  LIG1        0.0199
     23 C           8.5568    2.2455    0.0047 C.ar    1  LIG1       -0.0463
     24 C           9.9222    1.8708    0.0054 C.ar    1  LIG1       -0.0463
     25 C          10.1321    0.5079    0.0048 C.ar    1  LIG1        0.0199
     26 S           8.5874   -0.3227    0.0034 S.2     1  LIG1       -0.0883
     27 H           8.2330    3.2794    0.0051 H       1  LIG1        0.0629
     28 H          10.7276    2.5954    0.0064 H       1  LIG1        0.0629
     29 C          12.6295    0.4591    0.0047 C.ar    1  LIG1       -0.0535
     30 C          13.8378   -0.2309    0.0052 C.ar    1  LIG1       -0.0612
     31 C          11.4004   -0.2294    0.0053 C.ar    1  LIG1       -0.0113
     32 C          13.8568   -1.6272    0.0062 C.ar    1  LIG1       -0.0617
     33 H          14.7702    0.3264    0.0047 H       1  LIG1        0.0618
     34 C          11.4378   -1.6365    0.0064 C.ar    1  LIG1       -0.0535
     35 C          12.6482   -2.3246    0.0068 C.ar    1  LIG1       -0.0612
     36 H          10.5103   -2.2015    0.0070 H       1  LIG1        0.0624
     37 H          14.8007   -2.1636    0.0066 H       1  LIG1        0.0618
     38 H          12.6416    1.5438    0.0037 H       1  LIG1        0.0624
     39 H          12.6452   -3.4106    0.0076 H       1  LIG1        0.0618
@<TRIPOS>BOND
     1     8     6    1
     2     9     3    1
     3     6     3   ar
     4     6     7   ar
     5     3     1   ar
     6    11     7    1
     7     7     4   ar
     8     1    10    1
     9     1     2   ar
    10     4     2   ar
    11     4    14    1
    12     2     5    1
    13    19    17    1
    14    14    17   ar
    15    14    12   ar
    16    17    18   ar
    17    20    12    1
    18    12    13   ar
    19    18    21    1
    20    18    15   ar
    21    13    15   ar
    22    13    16    1
    23    15    22    1
    24    26    22   ar
    25    26    25   ar
    26    22    23   ar
    27    38    29    1
    28    29    30   ar
    29    29    31   ar
    30    33    30    1
    31    23    27    1
    32    23    24   ar
    33    25    31    1
    34    25    24   ar
    35    30    32   ar
    36    31    34   ar
    37    24    28    1
    38    32    37    1
    39    32    35   ar
    40    34    35   ar
    41    34    36    1
    42    35    39    1
