@<TRIPOS>MOLECULE
mol_data/opt/b3lyp/geoms/mol2/445-8-.out
 35 38 0 0 0
SMALL
GASTEIGER

@<TRIPOS>ATOM
      1 C          -0.2251    0.0734   -0.0001 C.ar    1  LIG1       -0.0612
      2 C           1.1672    0.0522    0.0008 C.ar    1  LIG1       -0.0540
      3 C          -0.9137    1.2864   -0.0018 C.ar    1  LIG1       -0.0617
      4 C           1.9231    1.2404    0.0001 C.ar    1  LIG1       -0.0179
      5 H           1.6618   -0.9120    0.0022 H       1  LIG1        0.0624
      6 C          -0.1861    2.4763   -0.0025 C.ar    1  LIG1       -0.0612
      7 C           1.2062    2.4525   -0.0016 C.ar    1  LIG1       -0.0540
      8 H          -0.7029    3.4316   -0.0038 H       1  LIG1        0.0618
      9 H          -1.9993    1.3042   -0.0025 H       1  LIG1        0.0618
     10 H          -0.7725   -0.8646    0.0005 H       1  LIG1        0.0618
     11 H           1.7318    3.4000   -0.0023 H       1  LIG1        0.0624
     12 C           4.1374    0.0089    0.0020 C.ar    1  LIG1       -0.0534
     13 C           5.5248   -0.0161    0.0029 C.ar    1  LIG1       -0.0530
     14 C           3.4128    1.2162    0.0011 C.ar    1  LIG1       -0.0178
     15 C           6.2815    1.1691    0.0029 C.ar    1  LIG1       -0.0113
     16 H           6.0255   -0.9798    0.0037 H       1  LIG1        0.0624
     17 C           4.1775    2.3993    0.0010 C.ar    1  LIG1       -0.0534
     18 C           5.5647    2.3803    0.0020 C.ar    1  LIG1       -0.0530
     19 H           3.6895    3.3666    0.0004 H       1  LIG1        0.0624
     20 H           3.6185   -0.9421    0.0020 H       1  LIG1        0.0624
     21 H           6.0959    3.3260    0.0018 H       1  LIG1        0.0624
     22 C           7.7451    1.1566    0.0039 C.ar    1  LIG1        0.0200
     23 C           8.6125    2.2379    0.0047 C.ar    1  LIG1       -0.0462
     24 C           9.9746    1.8733    0.0055 C.ar    1  LIG1       -0.0432
     25 C          10.1664    0.5064    0.0053 C.ar    1  LIG1        0.0604
     26 S           8.6432   -0.3466    0.0041 S.2     1  LIG1       -0.0850
     27 H           8.2788    3.2679    0.0048 H       1  LIG1        0.0629
     28 H          10.8025    2.5713    0.0062 H       1  LIG1        0.0630
     29 C          11.4226   -0.2088    0.0060 C.ar    1  LIG1        0.2098
     30 N          12.5651    0.5222    0.0066 N.ar    1  LIG1       -0.1253
     31 C          13.6433   -1.4767    0.0071 C.ar    1  LIG1        0.1605
     32 N          11.3780   -1.5625    0.0059 N.ar    1  LIG1       -0.1253
     33 N          13.7047   -0.1367    0.0073 N.ar    1  LIG1       -0.1339
     34 N          12.5240   -2.2119    0.0065 N.ar    1  LIG1       -0.1339
     35 H          14.5861   -2.0128    0.0078 H       1  LIG1        0.1085
@<TRIPOS>BOND
     1     8     6    1
     2     6     3   ar
     3     6     7   ar
     4     9     3    1
     5    11     7    1
     6     3     1   ar
     7     7     4   ar
     8     1    10    1
     9     1     2   ar
    10     4     2   ar
    11     4    14    1
    12    19    17    1
    13     2     5    1
    14    17    14   ar
    15    17    18   ar
    16    14    12   ar
    17    21    18    1
    18    18    15   ar
    19    12    20    1
    20    12    13   ar
    21    15    13   ar
    22    15    22    1
    23    13    16    1
    24    22    26   ar
    25    22    23   ar
    26    26    25   ar
    27    23    27    1
    28    23    24   ar
    29    25    24   ar
    30    25    29    1
    31    24    28    1
    32    32    29   ar
    33    32    34   ar
    34    29    30   ar
    35    34    31   ar
    36    30    33   ar
    37    31    33   ar
    38    31    35    1
