@<TRIPOS>MOLECULE
mol_data/opt/b3lyp/geoms/mol2/445.out
 29 31 0 0 0
SMALL
GASTEIGER

@<TRIPOS>ATOM
      1 C          -0.1676    0.0679    0.0001 C.ar    1  LIG1       -0.0612
      2 C           1.2248    0.0367    0.0007 C.ar    1  LIG1       -0.0540
      3 C          -0.8480    1.2854   -0.0010 C.ar    1  LIG1       -0.0617
      4 C           1.9902    1.2188    0.0003 C.ar    1  LIG1       -0.0179
      5 H           1.7124   -0.9311    0.0017 H       1  LIG1        0.0624
      6 C          -0.1112    2.4696   -0.0015 C.ar    1  LIG1       -0.0612
      7 C           1.2811    2.4356   -0.0008 C.ar    1  LIG1       -0.0540
      8 H          -0.6207    3.4290   -0.0023 H       1  LIG1        0.0618
      9 H          -1.9334    1.3110   -0.0015 H       1  LIG1        0.0618
     10 H          -0.7216   -0.8663    0.0005 H       1  LIG1        0.0618
     11 H           1.8137    3.3789   -0.0013 H       1  LIG1        0.0624
     12 C           4.1971   -0.0279    0.0014 C.ar    1  LIG1       -0.0534
     13 C           5.5845   -0.0646    0.0021 C.ar    1  LIG1       -0.0530
     14 C           3.4801    1.1842    0.0010 C.ar    1  LIG1       -0.0178
     15 C           6.3511    1.1149    0.0022 C.ar    1  LIG1       -0.0113
     16 H           6.0778   -1.0308    0.0025 H       1  LIG1        0.0624
     17 C           4.2534    2.3599    0.0011 C.ar    1  LIG1       -0.0534
     18 C           5.6418    2.3283    0.0017 C.ar    1  LIG1       -0.0530
     19 H           3.7741    3.3318    0.0008 H       1  LIG1        0.0624
     20 H           3.6709   -0.9755    0.0013 H       1  LIG1        0.0624
     21 H           6.1813    3.2709    0.0017 H       1  LIG1        0.0624
     22 C           7.8160    1.0657    0.0028 C.ar    1  LIG1        0.0193
     23 C           8.6443   -0.0365    0.0023 C.ar    1  LIG1       -0.0469
     24 C          10.0312    0.2827    0.0032 C.ar    1  LIG1       -0.0541
     25 C          10.2650    1.6299    0.0043 C.ar    1  LIG1       -0.0237
     26 S           8.7856    2.5312    0.0044 S.2     1  LIG1       -0.0967
     27 H          11.2130    2.1493    0.0052 H       1  LIG1        0.0693
     28 H           8.2746   -1.0549    0.0012 H       1  LIG1        0.0629
     29 H          10.8204   -0.4604    0.0029 H       1  LIG1        0.0623
@<TRIPOS>BOND
     1     8     6    1
     2     9     3    1
     3     6     3   ar
     4     6     7   ar
     5    11     7    1
     6     3     1   ar
     7     7     4   ar
     8     1    10    1
     9     1     2   ar
    10     4     2   ar
    11     4    14    1
    12     2     5    1
    13    19    17    1
    14    14    17   ar
    15    14    12   ar
    16    17    18   ar
    17    28    23    1
    18    20    12    1
    19    12    13   ar
    20    18    21    1
    21    18    15   ar
    22    13    15   ar
    23    13    16    1
    24    15    22    1
    25    23    22   ar
    26    23    24   ar
    27    22    26   ar
    28    29    24    1
    29    24    25   ar
    30    25    26   ar
    31    25    27    1
