@<TRIPOS>MOLECULE
mol_data/opt/b3lyp/geoms/mol2/448-8-.out
 34 37 0 0 0
SMALL
GASTEIGER

@<TRIPOS>ATOM
      1 C          -0.1790    0.0543   -0.0003 C.ar    1  LIG1       -0.0612
      2 C           1.2131    0.0311    0.0006 C.ar    1  LIG1       -0.0540
      3 C          -0.8653    1.2686   -0.0017 C.ar    1  LIG1       -0.0617
      4 C           1.9699    1.2189    0.0001 C.ar    1  LIG1       -0.0179
      5 H           1.7059   -0.9338    0.0018 H       1  LIG1        0.0624
      6 C          -0.1370    2.4581   -0.0022 C.ar    1  LIG1       -0.0612
      7 C           1.2551    2.4325   -0.0013 C.ar    1  LIG1       -0.0540
      8 H          -0.6527    3.4138   -0.0033 H       1  LIG1        0.0618
      9 H          -1.9508    1.2875   -0.0023 H       1  LIG1        0.0618
     10 H          -0.7279   -0.8828    0.0002 H       1  LIG1        0.0618
     11 H           1.7814    3.3795   -0.0019 H       1  LIG1        0.0624
     12 C           4.1790   -0.0203    0.0014 C.ar    1  LIG1       -0.0534
     13 C           5.5656   -0.0512    0.0023 C.ar    1  LIG1       -0.0504
     14 C           3.4597    1.1928    0.0010 C.ar    1  LIG1       -0.0178
     15 C           6.3056    1.1429    0.0028 C.ar    1  LIG1        0.0227
     16 H           6.0902   -0.9994    0.0025 H       1  LIG1        0.0625
     17 C           4.2211    2.3799    0.0016 C.ar    1  LIG1       -0.0534
     18 C           5.6079    2.3621    0.0025 C.ar    1  LIG1       -0.0504
     19 H           3.7303    3.3453    0.0015 H       1  LIG1        0.0624
     20 H           3.6548   -0.9679    0.0009 H       1  LIG1        0.0624
     21 H           6.1655    3.2914    0.0029 H       1  LIG1        0.0625
     22 C           7.7711    1.1172    0.0037 C.ar    1  LIG1        0.2034
     23 N           8.4327    2.2991    0.0044 N.ar    1  LIG1       -0.1251
     24 C          10.3458    1.0720    0.0053 C.ar    1  LIG1        0.2435
     25 N           8.3908   -0.0872    0.0039 N.ar    1  LIG1       -0.1251
     26 N           9.7449    2.2755    0.0052 N.ar    1  LIG1       -0.1218
     27 N           9.7030   -0.1098    0.0047 N.ar    1  LIG1       -0.1218
     28 C          11.8347    1.0458    0.0063 C.ar    1  LIG1        0.2434
     29 N          12.4733    2.2310    0.0070 N.ar    1  LIG1       -0.1224
     30 C          14.3800    1.0011    0.0075 C.ar    1  LIG1        0.1605
     31 N          12.4312   -0.1612    0.0063 N.ar    1  LIG1       -0.1224
     32 N          13.7940    2.2052    0.0078 N.ar    1  LIG1       -0.1338
     33 N          13.7520   -0.1817    0.0071 N.ar    1  LIG1       -0.1338
     34 H          15.4650    0.9820    0.0090 H       1  LIG1        0.1085
@<TRIPOS>BOND
     1     8     6    1
     2     9     3    1
     3     6     3   ar
     4     6     7   ar
     5    11     7    1
     6     3     1   ar
     7     7     4   ar
     8     1    10    1
     9     1     2   ar
    10     4     2   ar
    11     4    14    1
    12     2     5    1
    13    20    12    1
    14    14    12   ar
    15    14    17   ar
    16    12    13   ar
    17    19    17    1
    18    17    18   ar
    19    13    16    1
    20    13    15   ar
    21    18    15   ar
    22    18    21    1
    23    15    22    1
    24    22    25   ar
    25    22    23   ar
    26    25    27   ar
    27    23    26   ar
    28    27    24   ar
    29    26    24   ar
    30    24    28    1
    31    28    31   ar
    32    28    29   ar
    33    31    33   ar
    34    29    32   ar
    35    33    30   ar
    36    30    32   ar
    37    30    34    1
