@<TRIPOS>MOLECULE
mol_data/opt/b3lyp/geoms/mol2/448.out
 28 30 0 0 0
SMALL
GASTEIGER

@<TRIPOS>ATOM
      1 C          -0.1277    0.0534    0.0000 C.ar    1  LIG1       -0.0612
      2 C           1.2646    0.0305    0.0007 C.ar    1  LIG1       -0.0540
      3 C          -0.8145    1.2673   -0.0011 C.ar    1  LIG1       -0.0617
      4 C           2.0214    1.2181    0.0003 C.ar    1  LIG1       -0.0179
      5 H           1.7577   -0.9342    0.0015 H       1  LIG1        0.0624
      6 C          -0.0860    2.4567   -0.0014 C.ar    1  LIG1       -0.0612
      7 C           1.3062    2.4313   -0.0008 C.ar    1  LIG1       -0.0540
      8 H          -0.6019    3.4124   -0.0023 H       1  LIG1        0.0618
      9 H          -1.9000    1.2861   -0.0016 H       1  LIG1        0.0618
     10 H          -0.6765   -0.8838    0.0003 H       1  LIG1        0.0618
     11 H           1.8325    3.3780   -0.0012 H       1  LIG1        0.0624
     12 C           4.2312   -0.0199    0.0014 C.ar    1  LIG1       -0.0534
     13 C           5.6187   -0.0503    0.0020 C.ar    1  LIG1       -0.0504
     14 C           3.5119    1.1923    0.0010 C.ar    1  LIG1       -0.0178
     15 C           6.3584    1.1422    0.0023 C.ar    1  LIG1        0.0227
     16 H           6.1433   -0.9986    0.0023 H       1  LIG1        0.0625
     17 C           4.2733    2.3785    0.0013 C.ar    1  LIG1       -0.0534
     18 C           5.6610    2.3602    0.0019 C.ar    1  LIG1       -0.0504
     19 H           3.7831    3.3443    0.0010 H       1  LIG1        0.0624
     20 H           3.7069   -0.9680    0.0011 H       1  LIG1        0.0624
     21 H           6.2186    3.2894    0.0021 H       1  LIG1        0.0625
     22 C           7.8290    1.1166    0.0029 C.ar    1  LIG1        0.2033
     23 N           8.4437   -0.0885    0.0030 N.ar    1  LIG1       -0.1258
     24 C          10.3918    1.0718    0.0042 C.ar    1  LIG1        0.1605
     25 N           8.4854    2.2994    0.0035 N.ar    1  LIG1       -0.1258
     26 N           9.7619   -0.1099    0.0036 N.ar    1  LIG1       -0.1339
     27 N           9.8036    2.2747    0.0040 N.ar    1  LIG1       -0.1339
     28 H          11.4767    1.0528    0.0045 H       1  LIG1        0.1085
@<TRIPOS>BOND
     1     8     6    1
     2     9     3    1
     3     6     3   ar
     4     6     7   ar
     5    11     7    1
     6     3     1   ar
     7     7     4   ar
     8     1    10    1
     9     1     2   ar
    10     4     2   ar
    11     4    14    1
    12     2     5    1
    13    14    17   ar
    14    14    12   ar
    15    19    17    1
    16    20    12    1
    17    17    18   ar
    18    12    13   ar
    19    18    21    1
    20    18    15   ar
    21    13    16    1
    22    13    15   ar
    23    15    22    1
    24    22    23   ar
    25    22    25   ar
    26    23    26   ar
    27    25    27   ar
    28    26    24   ar
    29    27    24   ar
    30    24    28    1
