@<TRIPOS>MOLECULE
mol_data/opt/b3lyp/geoms/mol2/4485.out
 35 38 0 0 0
SMALL
GASTEIGER

@<TRIPOS>ATOM
      1 C          -0.2013    0.0701   -0.0004 C.ar    1  LIG1       -0.0612
      2 C           1.1909    0.0405    0.0004 C.ar    1  LIG1       -0.0540
      3 C          -0.8824    1.2873   -0.0016 C.ar    1  LIG1       -0.0617
      4 C           1.9539    1.2242    0.0001 C.ar    1  LIG1       -0.0179
      5 H           1.6794   -0.9267    0.0015 H       1  LIG1        0.0624
      6 C          -0.1479    2.4729   -0.0020 C.ar    1  LIG1       -0.0612
      7 C           1.2442    2.4406   -0.0011 C.ar    1  LIG1       -0.0540
      8 H          -0.6588    3.4313   -0.0029 H       1  LIG1        0.0618
      9 H          -1.9681    1.3114   -0.0023 H       1  LIG1        0.0618
     10 H          -0.7545   -0.8647   -0.0001 H       1  LIG1        0.0618
     11 H           1.7756    3.3850   -0.0015 H       1  LIG1        0.0624
     12 C           4.1584   -0.0240    0.0014 C.ar    1  LIG1       -0.0534
     13 C           5.5457   -0.0612    0.0023 C.ar    1  LIG1       -0.0504
     14 C           3.4445    1.1912    0.0010 C.ar    1  LIG1       -0.0178
     15 C           6.2925    1.1273    0.0028 C.ar    1  LIG1        0.0227
     16 H           6.0653   -1.0123    0.0026 H       1  LIG1        0.0625
     17 C           4.2122    2.3734    0.0015 C.ar    1  LIG1       -0.0534
     18 C           5.5998    2.3483    0.0024 C.ar    1  LIG1       -0.0504
     19 H           3.7267    3.3418    0.0013 H       1  LIG1        0.0624
     20 H           3.6301   -0.9694    0.0010 H       1  LIG1        0.0624
     21 H           6.1616    3.2751    0.0027 H       1  LIG1        0.0625
     22 C           7.7623    1.0941    0.0036 C.ar    1  LIG1        0.2034
     23 N           8.3750   -0.1129    0.0038 N.ar    1  LIG1       -0.1252
     24 C          10.3476    1.0307    0.0052 C.ar    1  LIG1        0.2099
     25 N           8.4301    2.2693    0.0043 N.ar    1  LIG1       -0.1252
     26 N           9.6851   -0.1499    0.0046 N.ar    1  LIG1       -0.1247
     27 N           9.7409    2.2384    0.0050 N.ar    1  LIG1       -0.1247
     28 C          11.7964    0.9977    0.0060 C.ar    1  LIG1        0.0598
     29 C          12.6138   -0.1129    0.0062 C.ar    1  LIG1       -0.0438
     30 C          13.9935    0.2193    0.0071 C.ar    1  LIG1       -0.0540
     31 C          14.2074    1.5747    0.0076 C.ar    1  LIG1       -0.0236
     32 S          12.7311    2.4753    0.0070 S.2     1  LIG1       -0.0934
     33 H          15.1539    2.0977    0.0083 H       1  LIG1        0.0693
     34 H          12.2163   -1.1199    0.0058 H       1  LIG1        0.0630
     35 H          14.7925   -0.5126    0.0074 H       1  LIG1        0.0623
@<TRIPOS>BOND
     1     8     6    1
     2     9     3    1
     3     6     3   ar
     4     6     7   ar
     5     3     1   ar
     6    11     7    1
     7     7     4   ar
     8     1    10    1
     9     1     2   ar
    10     4     2   ar
    11     4    14    1
    12     2     5    1
    13    20    12    1
    14    14    12   ar
    15    14    17   ar
    16    19    17    1
    17    12    13   ar
    18    17    18   ar
    19    13    16    1
    20    13    15   ar
    21    18    21    1
    22    18    15   ar
    23    15    22    1
    24    22    23   ar
    25    22    25   ar
    26    23    26   ar
    27    25    27   ar
    28    26    24   ar
    29    27    24   ar
    30    24    28    1
    31    34    29    1
    32    28    29   ar
    33    28    32   ar
    34    29    30   ar
    35    32    31   ar
    36    30    35    1
    37    30    31   ar
    38    31    33    1
