@<TRIPOS>MOLECULE
mol_data/opt/b3lyp/geoms/mol2/45-.out
 19 20 0 0 0
SMALL
GASTEIGER

@<TRIPOS>ATOM
      1 C          -0.0188    0.0576    0.0005 C.ar    1  LIG1       -0.0612
      2 C           1.3736    0.0376    0.0004 C.ar    1  LIG1       -0.0535
      3 C          -0.7074    1.2710    0.0001 C.ar    1  LIG1       -0.0617
      4 C           2.1186    1.2310   -0.0001 C.ar    1  LIG1       -0.0113
      5 H           1.8865   -0.9197    0.0008 H       1  LIG1        0.0624
      6 C           0.0165    2.4650   -0.0004 C.ar    1  LIG1       -0.0612
      7 C           1.4080    2.4468   -0.0005 C.ar    1  LIG1       -0.0535
      8 H          -0.5047    3.4180   -0.0008 H       1  LIG1        0.0618
      9 H          -1.7931    1.2867    0.0002 H       1  LIG1        0.0618
     10 H          -0.5667   -0.8802    0.0009 H       1  LIG1        0.0618
     11 H           1.9478    3.3876   -0.0010 H       1  LIG1        0.0624
     12 C           3.5883    1.2244   -0.0002 C.ar    1  LIG1        0.0193
     13 C           4.4580    2.2931    0.0001 C.ar    1  LIG1       -0.0469
     14 C           5.8323    1.9213   -0.0001 C.ar    1  LIG1       -0.0541
     15 C           6.0145    0.5667   -0.0006 C.ar    1  LIG1       -0.0237
     16 S           4.5012   -0.2771   -0.0008 S.2     1  LIG1       -0.0967
     17 H           6.9415    0.0108   -0.0009 H       1  LIG1        0.0693
     18 H           4.1284    3.3252    0.0006 H       1  LIG1        0.0629
     19 H           6.6491    2.6340    0.0001 H       1  LIG1        0.0623
@<TRIPOS>BOND
     1    11     7    1
     2    17    15    1
     3    16    15   ar
     4    16    12   ar
     5     8     6    1
     6    15    14   ar
     7     7     6   ar
     8     7     4   ar
     9     6     3   ar
    10    12     4    1
    11    12    13   ar
    12     4     2   ar
    13    14    19    1
    14    14    13   ar
    15     3     9    1
    16     3     1   ar
    17    13    18    1
    18     2     1   ar
    19     2     5    1
    20     1    10    1
