@<TRIPOS>MOLECULE
mol_data/opt/b3lyp/geoms/mol2/45-12.out
 26 28 0 0 0
SMALL
GASTEIGER

@<TRIPOS>ATOM
      1 C          -0.1008    0.0860    0.0005 C.ar    1  LIG1       -0.0612
      2 C           1.2913    0.0616    0.0004 C.ar    1  LIG1       -0.0535
      3 C          -0.7856    1.3016    0.0001 C.ar    1  LIG1       -0.0617
      4 C           2.0409    1.2530   -0.0001 C.ar    1  LIG1       -0.0113
      5 H           1.8004   -0.8979    0.0008 H       1  LIG1        0.0624
      6 C          -0.0577    2.4935   -0.0004 C.ar    1  LIG1       -0.0612
      7 C           1.3334    2.4718   -0.0005 C.ar    1  LIG1       -0.0535
      8 H          -0.5761    3.4480   -0.0008 H       1  LIG1        0.0618
      9 H          -1.8711    1.3208    0.0001 H       1  LIG1        0.0618
     10 H          -0.6515   -0.8501    0.0009 H       1  LIG1        0.0618
     11 H           1.8754    3.4113   -0.0010 H       1  LIG1        0.0624
     12 C           3.5073    1.2411   -0.0001 C.ar    1  LIG1        0.0200
     13 C           4.3848    2.3047    0.0001 C.ar    1  LIG1       -0.0462
     14 C           5.7519    1.9330   -0.0001 C.ar    1  LIG1       -0.0434
     15 C           5.9447    0.5686   -0.0004 C.ar    1  LIG1        0.0550
     16 S           4.4096   -0.2694   -0.0006 S.2     1  LIG1       -0.0852
     17 H           4.0606    3.3383    0.0005 H       1  LIG1        0.0629
     18 H           6.5752    2.6364    0.0001 H       1  LIG1        0.0630
     19 C           7.1912   -0.1543   -0.0007 C.ar    1  LIG1        0.1413
     20 C           7.5238   -1.4865   -0.0007 C.ar    1  LIG1       -0.0154
     21 C           8.9511   -1.5514   -0.0010 C.ar    1  LIG1       -0.0233
     22 C           9.3909   -0.2628   -0.0010 C.ar    1  LIG1        0.0926
     23 O           8.3365    0.6018   -0.0009 O.2     1  LIG1       -0.4624
     24 H          10.3693    0.1909   -0.0012 H       1  LIG1        0.1029
     25 H           6.8326   -2.3169   -0.0006 H       1  LIG1        0.0655
     26 H           9.5652   -2.4402   -0.0010 H       1  LIG1        0.0649
@<TRIPOS>BOND
     1    24    22    1
     2    26    21    1
     3    22    21   ar
     4    22    23   ar
     5    11     7    1
     6    21    20   ar
     7    23    19   ar
     8     8     6    1
     9    20    19   ar
    10    20    25    1
    11    19    15    1
    12    16    15   ar
    13    16    12   ar
    14     7     6   ar
    15     7     4   ar
    16    15    14   ar
    17     6     3   ar
    18    12     4    1
    19    12    13   ar
    20    14    18    1
    21    14    13   ar
    22     4     2   ar
    23     3     9    1
    24     3     1   ar
    25    13    17    1
    26     2     1   ar
    27     2     5    1
    28     1    10    1
