@<TRIPOS>MOLECULE
mol_data/opt/b3lyp/geoms/mol2/45-13-.out
 27 29 0 0 0
SMALL
GASTEIGER

@<TRIPOS>ATOM
      1 C          -0.1376    0.1139    0.0006 C.ar    1  LIG1       -0.0612
      2 C           1.2544    0.0780    0.0005 C.ar    1  LIG1       -0.0535
      3 C          -0.8131    1.3347    0.0002 C.ar    1  LIG1       -0.0617
      4 C           2.0142    1.2631   -0.0000 C.ar    1  LIG1       -0.0113
      5 H           1.7560   -0.8855    0.0009 H       1  LIG1        0.0624
      6 C          -0.0751    2.5205   -0.0003 C.ar    1  LIG1       -0.0612
      7 C           1.3156    2.4875   -0.0005 C.ar    1  LIG1       -0.0535
      8 H          -0.5855    3.4794   -0.0007 H       1  LIG1        0.0618
      9 H          -1.8984    1.3627    0.0003 H       1  LIG1        0.0618
     10 H          -0.6957   -0.8179    0.0010 H       1  LIG1        0.0618
     11 H           1.8656    3.4227   -0.0010 H       1  LIG1        0.0624
     12 C           3.4789    1.2411   -0.0002 C.ar    1  LIG1        0.0200
     13 C           4.3685    2.2934    0.0001 C.ar    1  LIG1       -0.0463
     14 C           5.7326    1.9116   -0.0001 C.ar    1  LIG1       -0.0449
     15 C           5.9263    0.5463   -0.0006 C.ar    1  LIG1        0.0360
     16 S           4.3756   -0.2751   -0.0008 S.2     1  LIG1       -0.0868
     17 H           4.0536    3.3302    0.0006 H       1  LIG1        0.0629
     18 H           6.5520    2.6205    0.0000 H       1  LIG1        0.0630
     19 C           7.1750   -0.1812   -0.0009 C.ar    1  LIG1        0.0531
     20 C           8.4872    0.2839   -0.0011 C.ar    1  LIG1       -0.0359
     21 C           9.3488   -0.8404   -0.0010 C.ar    1  LIG1       -0.0438
     22 C           8.5552   -1.9700   -0.0019 C.ar    1  LIG1        0.0022
     23 N           7.2458   -1.5621   -0.0012 N.ar    1  LIG1       -0.3603
     24 H           6.4504   -2.1807   -0.0010 H       1  LIG1        0.1653
     25 H           8.8127   -3.0184   -0.0024 H       1  LIG1        0.0807
     26 H           8.7817    1.3234   -0.0011 H       1  LIG1        0.0639
     27 H          10.4293   -0.8265   -0.0008 H       1  LIG1        0.0633
@<TRIPOS>BOND
     1    25    22    1
     2    22    23   ar
     3    22    21   ar
     4    23    24    1
     5    23    19   ar
     6    20    26    1
     7    20    21   ar
     8    20    19   ar
     9    21    27    1
    10    11     7    1
    11    19    15    1
    12    16    15   ar
    13    16    12   ar
    14     8     6    1
    15    15    14   ar
    16     7     6   ar
    17     7     4   ar
    18     6     3   ar
    19    12     4    1
    20    12    13   ar
    21    14    18    1
    22    14    13   ar
    23     4     2   ar
    24    13    17    1
    25     3     9    1
    26     3     1   ar
    27     2     1   ar
    28     2     5    1
    29     1    10    1
