@<TRIPOS>MOLECULE
mol_data/opt/b3lyp/geoms/mol2/45-48-.out
 35 38 0 0 0
SMALL
GASTEIGER

@<TRIPOS>ATOM
      1 C          -0.2167    0.1350    0.0001 C.ar    1  LIG1       -0.0612
      2 C           1.1752    0.1061    0.0004 C.ar    1  LIG1       -0.0535
      3 C          -0.8967    1.3536   -0.0010 C.ar    1  LIG1       -0.0617
      4 C           1.9270    1.2957   -0.0003 C.ar    1  LIG1       -0.0113
      5 H           1.6822   -0.8544    0.0013 H       1  LIG1        0.0624
      6 C          -0.1658    2.5435   -0.0017 C.ar    1  LIG1       -0.0612
      7 C           1.2252    2.5172   -0.0014 C.ar    1  LIG1       -0.0535
      8 H          -0.6816    3.4993   -0.0026 H       1  LIG1        0.0618
      9 H          -1.9822    1.3762   -0.0013 H       1  LIG1        0.0618
     10 H          -0.7709   -0.7989    0.0006 H       1  LIG1        0.0618
     11 H           1.7704    3.4550   -0.0020 H       1  LIG1        0.0624
     12 C           3.3941    1.2801    0.0001 C.ar    1  LIG1        0.0199
     13 C           4.2710    2.3457    0.0003 C.ar    1  LIG1       -0.0463
     14 C           5.6345    1.9699    0.0007 C.ar    1  LIG1       -0.0463
     15 C           5.8418    0.6055    0.0008 C.ar    1  LIG1        0.0199
     16 S           4.2948   -0.2233    0.0004 S.2     1  LIG1       -0.0883
     17 H           3.9490    3.3798    0.0003 H       1  LIG1        0.0629
     18 H           6.4407    2.6933    0.0009 H       1  LIG1        0.0629
     19 C           7.1439   -1.5389    0.0021 C.ar    1  LIG1       -0.0529
     20 C           8.3467   -2.2290    0.0025 C.ar    1  LIG1       -0.0503
     21 C           7.1051   -0.1296    0.0012 C.ar    1  LIG1       -0.0113
     22 C           9.5674   -1.5341    0.0019 C.ar    1  LIG1        0.0227
     23 H           8.3552   -3.3126    0.0033 H       1  LIG1        0.0625
     24 C           8.3384    0.5565    0.0006 C.ar    1  LIG1       -0.0529
     25 C           9.5431   -0.1284    0.0009 C.ar    1  LIG1       -0.0503
     26 H           8.3546    1.6407   -0.0003 H       1  LIG1        0.0624
     27 H           6.2174   -2.1049    0.0027 H       1  LIG1        0.0624
     28 H          10.4806    0.4153    0.0005 H       1  LIG1        0.0625
     29 C          10.8447   -2.2615    0.0023 C.ar    1  LIG1        0.2033
     30 N          11.9884   -1.5383    0.0020 N.ar    1  LIG1       -0.1258
     31 C          13.0722   -3.5300    0.0029 C.ar    1  LIG1        0.1605
     32 N          10.8063   -3.6142    0.0030 N.ar    1  LIG1       -0.1258
     33 N          13.1329   -2.1923    0.0023 N.ar    1  LIG1       -0.1339
     34 N          11.9525   -4.2649    0.0033 N.ar    1  LIG1       -0.1339
     35 H          14.0149   -4.0668    0.0035 H       1  LIG1        0.1085
@<TRIPOS>BOND
     1     8     6    1
     2    11     7    1
     3     6     7   ar
     4     6     3   ar
     5     7     4   ar
     6     9     3    1
     7     3     1   ar
     8    26    24    1
     9     4    12    1
    10     4     2   ar
    11     1     2   ar
    12     1    10    1
    13    12    13   ar
    14    12    16   ar
    15    17    13    1
    16    13    14   ar
    17    16    15   ar
    18     2     5    1
    19    28    25    1
    20    24    25   ar
    21    24    21   ar
    22    14    15   ar
    23    14    18    1
    24    15    21    1
    25    25    22   ar
    26    21    19   ar
    27    22    29    1
    28    22    20   ar
    29    30    33   ar
    30    30    29   ar
    31    19    20   ar
    32    19    27    1
    33    33    31   ar
    34    29    32   ar
    35    20    23    1
    36    31    34   ar
    37    31    35    1
    38    32    34   ar
