@<TRIPOS>MOLECULE
mol_data/opt/b3lyp/geoms/mol2/45-413-.out
 37 40 0 0 0
SMALL
GASTEIGER

@<TRIPOS>ATOM
      1 C          -0.2535    0.1643    0.0002 C.ar    1  LIG1       -0.0612
      2 C           1.1384    0.1312    0.0005 C.ar    1  LIG1       -0.0535
      3 C          -0.9311    1.3840   -0.0009 C.ar    1  LIG1       -0.0617
      4 C           1.8951    1.3181   -0.0002 C.ar    1  LIG1       -0.0113
      5 H           1.6429   -0.8305    0.0014 H       1  LIG1        0.0624
      6 C          -0.1960    2.5714   -0.0016 C.ar    1  LIG1       -0.0612
      7 C           1.1949    2.5412   -0.0013 C.ar    1  LIG1       -0.0535
      8 H          -0.7086    3.5292   -0.0025 H       1  LIG1        0.0618
      9 H          -2.0165    1.4097   -0.0011 H       1  LIG1        0.0618
     10 H          -0.8102   -0.7683    0.0008 H       1  LIG1        0.0618
     11 H           1.7427    3.4774   -0.0020 H       1  LIG1        0.0624
     12 C           3.3616    1.2982    0.0001 C.ar    1  LIG1        0.0199
     13 C           4.2433    2.3579    0.0003 C.ar    1  LIG1       -0.0463
     14 C           5.6072    1.9772    0.0006 C.ar    1  LIG1       -0.0463
     15 C           5.8109    0.6129    0.0007 C.ar    1  LIG1        0.0199
     16 S           4.2600   -0.2102    0.0003 S.2     1  LIG1       -0.0883
     17 H           3.9259    3.3938    0.0002 H       1  LIG1        0.0629
     18 H           6.4160    2.6979    0.0009 H       1  LIG1        0.0629
     19 C           7.1130   -1.5351    0.0021 C.ar    1  LIG1       -0.0529
     20 C           8.3167   -2.2275    0.0025 C.ar    1  LIG1       -0.0520
     21 C           7.0717   -0.1292    0.0011 C.ar    1  LIG1       -0.0113
     22 C           9.5538   -1.5568    0.0018 C.ar    1  LIG1       -0.0017
     23 H           8.2756   -3.3133    0.0034 H       1  LIG1        0.0624
     24 C           8.3112    0.5438    0.0004 C.ar    1  LIG1       -0.0529
     25 C           9.5114   -0.1475    0.0007 C.ar    1  LIG1       -0.0520
     26 H           8.3371    1.6284   -0.0005 H       1  LIG1        0.0624
     27 H           6.1873   -2.1029    0.0028 H       1  LIG1        0.0624
     28 H          10.4394    0.4145    0.0001 H       1  LIG1        0.0624
     29 C          10.8317   -2.2605    0.0021 C.ar    1  LIG1        0.0465
     30 C          12.1369   -1.7766    0.0025 C.ar    1  LIG1       -0.0364
     31 C          13.0208   -2.8836    0.0027 C.ar    1  LIG1       -0.0438
     32 C          12.2465   -4.0261    0.0026 C.ar    1  LIG1        0.0022
     33 N          10.9314   -3.6402    0.0021 N.ar    1  LIG1       -0.3607
     34 H          10.1513   -4.2757    0.0019 H       1  LIG1        0.1653
     35 H          12.5217   -5.0700    0.0026 H       1  LIG1        0.0807
     36 H          12.4219   -0.7345    0.0027 H       1  LIG1        0.0639
     37 H          14.1007   -2.8502    0.0030 H       1  LIG1        0.0633
@<TRIPOS>BOND
     1     8     6    1
     2    11     7    1
     3     6     7   ar
     4     6     3   ar
     5     7     4   ar
     6     9     3    1
     7     3     1   ar
     8    26    24    1
     9     4    12    1
    10     4     2   ar
    11    28    25    1
    12    12    13   ar
    13    12    16   ar
    14     1     2   ar
    15     1    10    1
    16    17    13    1
    17    13    14   ar
    18    16    15   ar
    19    24    25   ar
    20    24    21   ar
    21     2     5    1
    22    14    15   ar
    23    14    18    1
    24    25    22   ar
    25    15    21    1
    26    21    19   ar
    27    22    29    1
    28    22    20   ar
    29    34    33    1
    30    33    29   ar
    31    33    32   ar
    32    29    30   ar
    33    19    20   ar
    34    19    27    1
    35    20    23    1
    36    30    31   ar
    37    30    36    1
    38    32    35    1
    39    32    31   ar
    40    31    37    1
