@<TRIPOS>MOLECULE
mol_data/opt/b3lyp/geoms/mol2/45-5.out
 26 28 0 0 0
SMALL
GASTEIGER

@<TRIPOS>ATOM
      1 C          -0.1404    0.1184    0.0004 C.ar    1  LIG1       -0.0612
      2 C           1.2514    0.0772    0.0003 C.ar    1  LIG1       -0.0535
      3 C          -0.8103    1.3422    0.0001 C.ar    1  LIG1       -0.0617
      4 C           2.0149    1.2595   -0.0001 C.ar    1  LIG1       -0.0113
      5 H           1.7490   -0.8882    0.0007 H       1  LIG1        0.0624
      6 C          -0.0684    2.5253   -0.0003 C.ar    1  LIG1       -0.0612
      7 C           1.3224    2.4868   -0.0004 C.ar    1  LIG1       -0.0535
      8 H          -0.5753    3.4860   -0.0006 H       1  LIG1        0.0618
      9 H          -1.8956    1.3744    0.0002 H       1  LIG1        0.0618
     10 H          -0.7027   -0.8109    0.0008 H       1  LIG1        0.0618
     11 H           1.8757    3.4200   -0.0008 H       1  LIG1        0.0624
     12 C           3.4811    1.2300   -0.0002 C.ar    1  LIG1        0.0199
     13 C           4.3698    2.2838    0.0002 C.ar    1  LIG1       -0.0463
     14 C           5.7316    1.8949   -0.0001 C.ar    1  LIG1       -0.0458
     15 C           5.9192    0.5290   -0.0006 C.ar    1  LIG1        0.0265
     16 S           4.3672   -0.2884   -0.0008 S.2     1  LIG1       -0.0877
     17 H           4.0588    3.3215    0.0007 H       1  LIG1        0.0629
     18 H           6.5532    2.6027    0.0001 H       1  LIG1        0.0629
     19 C           7.1559   -0.2237   -0.0010 C.ar    1  LIG1        0.0259
     20 C           7.3429   -1.5900   -0.0014 C.ar    1  LIG1       -0.0464
     21 C           8.7118   -1.9789   -0.0016 C.ar    1  LIG1       -0.0541
     22 C           9.5679   -0.9129   -0.0014 C.ar    1  LIG1       -0.0237
     23 S           8.7105    0.5963   -0.0009 S.2     1  LIG1       -0.0961
     24 H          10.6486   -0.9158   -0.0015 H       1  LIG1        0.0693
     25 H           6.5199   -2.2960   -0.0015 H       1  LIG1        0.0629
     26 H           9.0445   -3.0104   -0.0019 H       1  LIG1        0.0623
@<TRIPOS>BOND
     1    26    21    1
     2    21    22   ar
     3    21    20   ar
     4    25    20    1
     5    24    22    1
     6    22    23   ar
     7    20    19   ar
     8    19    23   ar
     9    19    15    1
    10    16    15   ar
    11    16    12   ar
    12    11     7    1
    13    15    14   ar
    14     8     6    1
    15     7     6   ar
    16     7     4   ar
    17     6     3   ar
    18    12     4    1
    19    12    13   ar
    20    14    18    1
    21    14    13   ar
    22     4     2   ar
    23     3     9    1
    24     3     1   ar
    25    13    17    1
    26     2     1   ar
    27     2     5    1
    28     1    10    1
