@<TRIPOS>MOLECULE
mol_data/opt/b3lyp/geoms/mol2/45-5-.out
 26 28 0 0 0
SMALL
GASTEIGER

@<TRIPOS>ATOM
      1 C          -0.1210    0.0986    0.0004 C.ar    1  LIG1       -0.0612
      2 C           1.2711    0.0711    0.0004 C.ar    1  LIG1       -0.0535
      3 C          -0.8032    1.3158   -0.0001 C.ar    1  LIG1       -0.0617
      4 C           2.0225    1.2613   -0.0001 C.ar    1  LIG1       -0.0113
      5 H           1.7787   -0.8890    0.0009 H       1  LIG1        0.0624
      6 C          -0.0732    2.5064   -0.0006 C.ar    1  LIG1       -0.0612
      7 C           1.3178    2.4816   -0.0006 C.ar    1  LIG1       -0.0535
      8 H          -0.5898    3.4619   -0.0010 H       1  LIG1        0.0618
      9 H          -1.8887    1.3369   -0.0002 H       1  LIG1        0.0618
     10 H          -0.6739   -0.8362    0.0007 H       1  LIG1        0.0618
     11 H           1.8621    3.4199   -0.0010 H       1  LIG1        0.0624
     12 C           3.4887    1.2474   -0.0000 C.ar    1  LIG1        0.0199
     13 C           4.3674    2.3103    0.0004 C.ar    1  LIG1       -0.0463
     14 C           5.7324    1.9362    0.0002 C.ar    1  LIG1       -0.0458
     15 C           5.9342    0.5708   -0.0001 C.ar    1  LIG1        0.0265
     16 S           4.3910   -0.2594   -0.0005 S.2     1  LIG1       -0.0877
     17 H           4.0451    3.3447    0.0007 H       1  LIG1        0.0629
     18 H           6.5458    2.6522    0.0005 H       1  LIG1        0.0629
     19 C           7.1971   -0.1418   -0.0003 C.ar    1  LIG1        0.0259
     20 C           8.4696    0.3941   -0.0006 C.ar    1  LIG1       -0.0464
     21 C           9.5002   -0.5855   -0.0007 C.ar    1  LIG1       -0.0541
     22 C           9.0196   -1.8662   -0.0005 C.ar    1  LIG1       -0.0237
     23 S           7.2857   -1.8950   -0.0001 S.2     1  LIG1       -0.0961
     24 H           9.5723   -2.7948   -0.0005 H       1  LIG1        0.0693
     25 H           8.6586    1.4611   -0.0007 H       1  LIG1        0.0629
     26 H          10.5574   -0.3462   -0.0009 H       1  LIG1        0.0623
@<TRIPOS>BOND
     1    11     7    1
     2     8     6    1
     3    26    21    1
     4    25    20    1
     5    21    20   ar
     6    21    22   ar
     7     6     7   ar
     8     6     3   ar
     9     7     4   ar
    10    20    19   ar
    11    24    22    1
    12    22    23   ar
    13    16    15   ar
    14    16    12   ar
    15    19    15    1
    16    19    23   ar
    17     9     3    1
    18     3     1   ar
    19    15    14   ar
    20     4    12    1
    21     4     2   ar
    22    12    13   ar
    23    14    13   ar
    24    14    18    1
    25    13    17    1
    26     1     2   ar
    27     1    10    1
    28     2     5    1
