@<TRIPOS>MOLECULE
mol_data/opt/b3lyp/geoms/mol2/45-8.out
 25 27 0 0 0
SMALL
GASTEIGER

@<TRIPOS>ATOM
      1 C          -0.0935    0.0913    0.0006 C.ar    1  LIG1       -0.0612
      2 C           1.2979    0.0562    0.0005 C.ar    1  LIG1       -0.0535
      3 C          -0.7676    1.3133    0.0000 C.ar    1  LIG1       -0.0617
      4 C           2.0538    1.2433   -0.0001 C.ar    1  LIG1       -0.0113
      5 H           1.8000   -0.9067    0.0010 H       1  LIG1        0.0624
      6 C          -0.0329    2.5006   -0.0005 C.ar    1  LIG1       -0.0612
      7 C           1.3581    2.4681   -0.0006 C.ar    1  LIG1       -0.0535
      8 H          -0.5449    3.4583   -0.0010 H       1  LIG1        0.0618
      9 H          -1.8529    1.3403    0.0001 H       1  LIG1        0.0618
     10 H          -0.6522   -0.8398    0.0010 H       1  LIG1        0.0618
     11 H           1.9072    3.4035   -0.0011 H       1  LIG1        0.0624
     12 C           3.5218    1.2196   -0.0001 C.ar    1  LIG1        0.0200
     13 C           4.3967    2.2933    0.0002 C.ar    1  LIG1       -0.0462
     14 C           5.7569    1.9187   -0.0000 C.ar    1  LIG1       -0.0432
     15 C           5.9379    0.5510   -0.0004 C.ar    1  LIG1        0.0604
     16 S           4.4080   -0.2903   -0.0006 S.2     1  LIG1       -0.0850
     17 H           4.0716    3.3262    0.0006 H       1  LIG1        0.0629
     18 H           6.5899    2.6102    0.0002 H       1  LIG1        0.0630
     19 C           7.1885   -0.1754   -0.0007 C.ar    1  LIG1        0.2098
     20 N           7.1315   -1.5282   -0.0009 N.ar    1  LIG1       -0.1253
     21 C           9.3975   -1.4632   -0.0010 C.ar    1  LIG1        0.1605
     22 N           8.3372    0.5453   -0.0006 N.ar    1  LIG1       -0.1253
     23 N           8.2716   -2.1883   -0.0011 N.ar    1  LIG1       -0.1339
     24 N           9.4711   -0.1238   -0.0008 N.ar    1  LIG1       -0.1339
     25 H          10.3355   -2.0078   -0.0014 H       1  LIG1        0.1085
@<TRIPOS>BOND
     1    25    21    1
     2    23    21   ar
     3    23    20   ar
     4    11     7    1
     5     8     6    1
     6    21    24   ar
     7    20    19   ar
     8    24    22   ar
     9    19    22   ar
    10    19    15    1
    11     7     6   ar
    12     7     4   ar
    13    16    15   ar
    14    16    12   ar
    15     6     3   ar
    16    15    14   ar
    17    12     4    1
    18    12    13   ar
    19     4     2   ar
    20    14    18    1
    21    14    13   ar
    22     3     9    1
    23     3     1   ar
    24    13    17    1
    25     2     1   ar
    26     2     5    1
    27     1    10    1
