@<TRIPOS>MOLECULE
mol_data/opt/b3lyp/geoms/mol2/45.out
 19 20 0 0 0
SMALL
GASTEIGER

@<TRIPOS>ATOM
      1 C          -0.0424    0.0580    0.0007 C.ar    1  LIG1       -0.0612
      2 C           1.3484    0.0096    0.0004 C.ar    1  LIG1       -0.0535
      3 C          -0.7084    1.2853    0.0004 C.ar    1  LIG1       -0.0617
      4 C           2.1164    1.1898   -0.0003 C.ar    1  LIG1       -0.0113
      5 H           1.8424   -0.9561    0.0008 H       1  LIG1        0.0624
      6 C           0.0375    2.4643   -0.0003 C.ar    1  LIG1       -0.0612
      7 C           1.4294    2.4175   -0.0006 C.ar    1  LIG1       -0.0535
      8 H          -0.4645    3.4274   -0.0005 H       1  LIG1        0.0618
      9 H          -1.7936    1.3214    0.0006 H       1  LIG1        0.0618
     10 H          -0.6089   -0.8689    0.0013 H       1  LIG1        0.0618
     11 H           1.9875    3.3493   -0.0012 H       1  LIG1        0.0624
     12 C           3.5848    1.1262   -0.0007 C.ar    1  LIG1        0.0193
     13 C           4.4023    0.0171   -0.0016 C.ar    1  LIG1       -0.0469
     14 C           5.7929    0.3228   -0.0017 C.ar    1  LIG1       -0.0541
     15 C           6.0397    1.6673   -0.0008 C.ar    1  LIG1       -0.0237
     16 S           4.5683    2.5824    0.0001 S.2     1  LIG1       -0.0967
     17 H           6.9921    2.1783   -0.0007 H       1  LIG1        0.0693
     18 H           4.0239   -0.9980   -0.0023 H       1  LIG1        0.0629
     19 H           6.5746   -0.4281   -0.0024 H       1  LIG1        0.0623
@<TRIPOS>BOND
     1    19    14    1
     2    18    13    1
     3    14    13   ar
     4    14    15   ar
     5    13    12   ar
     6    11     7    1
     7    15    17    1
     8    15    16   ar
     9    12     4    1
    10    12    16   ar
    11     7     4   ar
    12     7     6   ar
    13     8     6    1
    14     4     2   ar
    15     6     3   ar
    16     3     9    1
    17     3     1   ar
    18     2     1   ar
    19     2     5    1
    20     1    10    1
