@<TRIPOS>MOLECULE
mol_data/opt/b3lyp/geoms/mol2/45124-.out
 36 39 0 0 0
SMALL
GASTEIGER

@<TRIPOS>ATOM
      1 C          -0.1797   -0.1298    0.0013 C.ar    1  LIG1       -0.0612
      2 C           1.2114   -0.1392    0.0010 C.ar    1  LIG1       -0.0535
      3 C          -0.8805    1.0782    0.0002 C.ar    1  LIG1       -0.0617
      4 C           1.9465    1.0632   -0.0003 C.ar    1  LIG1       -0.0113
      5 H           1.7322   -1.0909    0.0020 H       1  LIG1        0.0624
      6 C          -0.1683    2.2780   -0.0010 C.ar    1  LIG1       -0.0612
      7 C           1.2240    2.2714   -0.0013 C.ar    1  LIG1       -0.0535
      8 H          -0.6976    3.2265   -0.0019 H       1  LIG1        0.0618
      9 H          -1.9662    1.0834    0.0004 H       1  LIG1        0.0618
     10 H          -0.7195   -1.0724    0.0023 H       1  LIG1        0.0618
     11 H           1.7549    3.2190   -0.0024 H       1  LIG1        0.0624
     12 C           3.4126    1.0418   -0.0006 C.ar    1  LIG1        0.0200
     13 C           4.2622   -0.0463   -0.0009 C.ar    1  LIG1       -0.0462
     14 C           5.6359    0.2905   -0.0012 C.ar    1  LIG1       -0.0434
     15 C           5.8649    1.6520   -0.0009 C.ar    1  LIG1        0.0550
     16 S           4.3504    2.5281   -0.0004 S.2     1  LIG1       -0.0852
     17 H           3.9124   -1.0716   -0.0012 H       1  LIG1        0.0629
     18 H           6.4339   -0.4429   -0.0016 H       1  LIG1        0.0630
     19 C           7.1263    2.3410   -0.0010 C.ar    1  LIG1        0.1422
     20 C           8.4348    1.9144   -0.0009 C.ar    1  LIG1       -0.0147
     21 C           9.2429    3.0819   -0.0011 C.ar    1  LIG1       -0.0152
     22 C           8.3940    4.1637   -0.0012 C.ar    1  LIG1        0.1357
     23 O           7.0987    3.7099   -0.0012 O.2     1  LIG1       -0.4543
     24 H           8.7710    0.8881   -0.0007 H       1  LIG1        0.0656
     25 H          10.3223    3.1166   -0.0010 H       1  LIG1        0.0656
     26 C           7.5097    6.4924   -0.0016 C.ar    1  LIG1       -0.0511
     27 C           7.7206    7.8689   -0.0018 C.ar    1  LIG1       -0.0611
     28 C           8.6003    5.6037   -0.0014 C.ar    1  LIG1        0.0173
     29 C           9.0168    8.3873   -0.0018 C.ar    1  LIG1       -0.0617
     30 H           6.8666    8.5400   -0.0019 H       1  LIG1        0.0618
     31 C           9.9033    6.1364   -0.0015 C.ar    1  LIG1       -0.0511
     32 C          10.1063    7.5124   -0.0016 C.ar    1  LIG1       -0.0611
     33 H          10.7595    5.4688   -0.0014 H       1  LIG1        0.0625
     34 H           9.1777    9.4610   -0.0019 H       1  LIG1        0.0618
     35 H           6.5009    6.0951   -0.0016 H       1  LIG1        0.0625
     36 H          11.1193    7.9042   -0.0017 H       1  LIG1        0.0618
@<TRIPOS>BOND
     1    11     7    1
     2    34    29    1
     3    30    27    1
     4     8     6    1
     5    29    27   ar
     6    29    32   ar
     7    27    26   ar
     8    36    32    1
     9    32    31   ar
    10    26    35    1
    11    26    28   ar
    12    18    14    1
    13    31    28   ar
    14    31    33    1
    15    28    22    1
    16     7     6   ar
    17     7     4   ar
    18    22    23   ar
    19    22    21   ar
    20    23    19   ar
    21    17    13    1
    22    14    13   ar
    23    14    15   ar
    24    21    25    1
    25    21    20   ar
    26     6     3   ar
    27    19    15    1
    28    19    20   ar
    29    13    12   ar
    30    15    16   ar
    31    20    24    1
    32    12    16   ar
    33    12     4    1
    34     4     2   ar
    35     3     9    1
    36     3     1   ar
    37     2     1   ar
    38     2     5    1
    39     1    10    1
