@<TRIPOS>MOLECULE
mol_data/opt/b3lyp/geoms/mol2/4513-.out
 27 29 0 0 0
SMALL
GASTEIGER

@<TRIPOS>ATOM
      1 C          -0.1405    0.0316    0.0009 C.ar    1  LIG1       -0.0612
      2 C           1.2498   -0.0183    0.0006 C.ar    1  LIG1       -0.0535
      3 C          -0.8062    1.2595    0.0005 C.ar    1  LIG1       -0.0617
      4 C           2.0202    1.1619   -0.0003 C.ar    1  LIG1       -0.0113
      5 H           1.7427   -0.9848    0.0011 H       1  LIG1        0.0624
      6 C          -0.0590    2.4377   -0.0003 C.ar    1  LIG1       -0.0612
      7 C           1.3327    2.3904   -0.0007 C.ar    1  LIG1       -0.0535
      8 H          -0.5602    3.4013   -0.0007 H       1  LIG1        0.0618
      9 H          -1.8912    1.2963    0.0008 H       1  LIG1        0.0618
     10 H          -0.7074   -0.8950    0.0016 H       1  LIG1        0.0618
     11 H           1.8908    3.3222   -0.0015 H       1  LIG1        0.0624
     12 C           3.4847    1.0988   -0.0007 C.ar    1  LIG1        0.0200
     13 C           4.3066   -0.0066   -0.0016 C.ar    1  LIG1       -0.0463
     14 C           5.6914    0.2974   -0.0018 C.ar    1  LIG1       -0.0449
     15 C           5.9628    1.6503   -0.0011 C.ar    1  LIG1        0.0360
     16 S           4.4665    2.5600   -0.0001 S.2     1  LIG1       -0.0868
     17 H           3.9326   -1.0234   -0.0022 H       1  LIG1        0.0629
     18 H           6.4590   -0.4693   -0.0025 H       1  LIG1        0.0630
     19 C           7.2378    2.3306   -0.0010 C.ar    1  LIG1        0.0531
     20 C           7.5589    3.6840   -0.0010 C.ar    1  LIG1       -0.0359
     21 C           8.9713    3.7991   -0.0005 C.ar    1  LIG1       -0.0438
     22 C           9.4891    2.5197   -0.0013 C.ar    1  LIG1        0.0022
     23 N           8.4365    1.6404   -0.0011 N.ar    1  LIG1       -0.3603
     24 H           8.5224    0.6376   -0.0009 H       1  LIG1        0.1653
     25 H          10.5096    2.1674   -0.0016 H       1  LIG1        0.0807
     26 H           6.8452    4.4958   -0.0011 H       1  LIG1        0.0639
     27 H           9.5458    4.7142   -0.0002 H       1  LIG1        0.0633
@<TRIPOS>BOND
     1    18    14    1
     2    17    13    1
     3    14    13   ar
     4    14    15   ar
     5    25    22    1
     6    13    12   ar
     7    11     7    1
     8    22    23   ar
     9    22    21   ar
    10    23    19   ar
    11    23    24    1
    12    15    19    1
    13    15    16   ar
    14    26    20    1
    15    19    20   ar
    16    20    21   ar
    17     7     6   ar
    18     7     4   ar
    19    12     4    1
    20    12    16   ar
    21     8     6    1
    22    21    27    1
    23     6     3   ar
    24     4     2   ar
    25     3     9    1
    26     3     1   ar
    27     2     1   ar
    28     2     5    1
    29     1    10    1
