@<TRIPOS>MOLECULE
mol_data/opt/b3lyp/geoms/mol2/4513-13.out
 35 38 0 0 0
SMALL
GASTEIGER

@<TRIPOS>ATOM
      1 C          -0.2417    0.0465    0.0011 C.ar    1  LIG1       -0.0612
      2 C           1.1482   -0.0101    0.0007 C.ar    1  LIG1       -0.0535
      3 C          -0.9020    1.2775    0.0006 C.ar    1  LIG1       -0.0617
      4 C           1.9240    1.1668   -0.0002 C.ar    1  LIG1       -0.0113
      5 H           1.6365   -0.9788    0.0011 H       1  LIG1        0.0624
      6 C          -0.1494    2.4523   -0.0002 C.ar    1  LIG1       -0.0612
      7 C           1.2420    2.3986   -0.0006 C.ar    1  LIG1       -0.0535
      8 H          -0.6461    3.4182   -0.0005 H       1  LIG1        0.0618
      9 H          -1.9869    1.3191    0.0010 H       1  LIG1        0.0618
     10 H          -0.8133   -0.8773    0.0017 H       1  LIG1        0.0618
     11 H           1.8048    3.3275   -0.0014 H       1  LIG1        0.0624
     12 C           3.3878    1.0963   -0.0007 C.ar    1  LIG1        0.0200
     13 C           4.2042   -0.0137   -0.0014 C.ar    1  LIG1       -0.0463
     14 C           5.5900    0.2817   -0.0017 C.ar    1  LIG1       -0.0449
     15 C           5.8696    1.6343   -0.0012 C.ar    1  LIG1        0.0361
     16 S           4.3772    2.5527   -0.0003 S.2     1  LIG1       -0.0868
     17 H           3.8241   -1.0284   -0.0019 H       1  LIG1        0.0629
     18 H           6.3530   -0.4893   -0.0024 H       1  LIG1        0.0630
     19 C           7.1455    2.3051   -0.0013 C.ar    1  LIG1        0.0536
     20 C           7.4739    3.6578   -0.0014 C.ar    1  LIG1       -0.0353
     21 C           8.8811    3.7661   -0.0015 C.ar    1  LIG1       -0.0344
     22 C           9.4106    2.4772   -0.0015 C.ar    1  LIG1        0.0633
     23 N           8.3417    1.6102   -0.0014 N.ar    1  LIG1       -0.3526
     24 H           8.4250    0.6072   -0.0009 H       1  LIG1        0.1660
     25 H           6.7655    4.4741   -0.0014 H       1  LIG1        0.0639
     26 H           9.4475    4.6871   -0.0017 H       1  LIG1        0.0639
     27 C          10.7753    2.0046   -0.0015 C.ar    1  LIG1        0.0629
     28 C          11.3071    0.7195   -0.0021 C.ar    1  LIG1       -0.0350
     29 C          12.7221    0.8327   -0.0018 C.ar    1  LIG1       -0.0438
     30 C          13.0284    2.1770   -0.0011 C.ar    1  LIG1        0.0022
     31 N          11.8461    2.8757   -0.0008 N.ar    1  LIG1       -0.3595
     32 H          11.7654    3.8792   -0.0004 H       1  LIG1        0.1654
     33 H          13.9787    2.6887   -0.0006 H       1  LIG1        0.0807
     34 H          10.7419   -0.2026   -0.0028 H       1  LIG1        0.0639
     35 H          13.4349    0.0208   -0.0020 H       1  LIG1        0.0633
@<TRIPOS>BOND
     1    34    28    1
     2    18    14    1
     3    28    29   ar
     4    28    27   ar
     5    35    29    1
     6    17    13    1
     7    29    30   ar
     8    14    13   ar
     9    14    15   ar
    10    26    21    1
    11    27    22    1
    12    27    31   ar
    13    21    22   ar
    14    21    20   ar
    15    22    23   ar
    16    13    12   ar
    17    25    20    1
    18    23    19   ar
    19    23    24    1
    20    11     7    1
    21    20    19   ar
    22    19    15    1
    23    15    16   ar
    24    30    31   ar
    25    30    33    1
    26    31    32    1
    27    12    16   ar
    28    12     4    1
    29     7     4   ar
    30     7     6   ar
    31     8     6    1
    32     4     2   ar
    33     6     3   ar
    34     3     9    1
    35     3     1   ar
    36     2     1   ar
    37     2     5    1
    38     1    10    1
