@<TRIPOS>MOLECULE
mol_data/opt/b3lyp/geoms/mol2/455-.out
 26 28 0 0 0
SMALL
GASTEIGER

@<TRIPOS>ATOM
      1 C          -0.1306    0.0088    0.0005 C.ar    1  LIG1       -0.0612
      2 C           1.2603   -0.0245    0.0002 C.ar    1  LIG1       -0.0535
      3 C          -0.8105    1.2287    0.0003 C.ar    1  LIG1       -0.0617
      4 C           2.0153    1.1652   -0.0003 C.ar    1  LIG1       -0.0113
      5 H           1.7645   -0.9850    0.0005 H       1  LIG1        0.0624
      6 C          -0.0782    2.4162   -0.0002 C.ar    1  LIG1       -0.0612
      7 C           1.3138    2.3856   -0.0005 C.ar    1  LIG1       -0.0535
      8 H          -0.5913    3.3734   -0.0004 H       1  LIG1        0.0618
      9 H          -1.8961    1.2523    0.0005 H       1  LIG1        0.0618
     10 H          -0.6867   -0.9244    0.0009 H       1  LIG1        0.0618
     11 H           1.8608    3.3240   -0.0010 H       1  LIG1        0.0624
     12 C           3.4811    1.1190   -0.0006 C.ar    1  LIG1        0.0199
     13 C           4.3141    0.0207   -0.0015 C.ar    1  LIG1       -0.0463
     14 C           5.6941    0.3386   -0.0015 C.ar    1  LIG1       -0.0458
     15 C           5.9521    1.6931   -0.0006 C.ar    1  LIG1        0.0265
     16 S           4.4445    2.5897    0.0003 S.2     1  LIG1       -0.0877
     17 H           3.9499   -0.9996   -0.0023 H       1  LIG1        0.0629
     18 H           6.4780   -0.4108   -0.0022 H       1  LIG1        0.0629
     19 C           7.2261    2.3807   -0.0004 C.ar    1  LIG1        0.0259
     20 C           7.4835    3.7356   -0.0002 C.ar    1  LIG1       -0.0464
     21 C           8.8706    4.0531   -0.0001 C.ar    1  LIG1       -0.0541
     22 C           9.6705    2.9443   -0.0002 C.ar    1  LIG1       -0.0237
     23 S           8.7363    1.4815   -0.0003 S.2     1  LIG1       -0.0961
     24 H          10.7499    2.8913   -0.0001 H       1  LIG1        0.0693
     25 H           6.6981    4.4832   -0.0002 H       1  LIG1        0.0629
     26 H           9.2562    5.0661    0.0001 H       1  LIG1        0.0623
@<TRIPOS>BOND
     1    17    13    1
     2    18    14    1
     3    13    14   ar
     4    13    12   ar
     5    14    15   ar
     6    11     7    1
     7    15    19    1
     8    15    16   ar
     9    12     4    1
    10    12    16   ar
    11     7     4   ar
    12     7     6   ar
    13     8     6    1
    14    19    23   ar
    15    19    20   ar
    16    23    22   ar
    17     4     2   ar
    18     6     3   ar
    19    25    20    1
    20    20    21   ar
    21    22    24    1
    22    22    21   ar
    23    21    26    1
    24     2     1   ar
    25     2     5    1
    26     3     9    1
    27     3     1   ar
    28     1    10    1
