@<TRIPOS>MOLECULE
mol_data/opt/b3lyp/geoms/mol2/455.out
 26 28 0 0 0
SMALL
GASTEIGER

@<TRIPOS>ATOM
      1 C          -0.1355    0.0276    0.0008 C.ar    1  LIG1       -0.0612
      2 C           1.2549   -0.0195    0.0004 C.ar    1  LIG1       -0.0535
      3 C          -0.8029    1.2544    0.0005 C.ar    1  LIG1       -0.0617
      4 C           2.0218    1.1626   -0.0003 C.ar    1  LIG1       -0.0113
      5 H           1.7499   -0.9848    0.0007 H       1  LIG1        0.0624
      6 C          -0.0586    2.4346   -0.0001 C.ar    1  LIG1       -0.0612
      7 C           1.3330    2.3902   -0.0006 C.ar    1  LIG1       -0.0535
      8 H          -0.5622    3.3969   -0.0004 H       1  LIG1        0.0618
      9 H          -1.8881    1.2892    0.0008 H       1  LIG1        0.0618
     10 H          -0.7010   -0.8998    0.0013 H       1  LIG1        0.0618
     11 H           1.8895    3.3229   -0.0012 H       1  LIG1        0.0624
     12 C           3.4868    1.1007   -0.0007 C.ar    1  LIG1        0.0199
     13 C           4.3094   -0.0063   -0.0017 C.ar    1  LIG1       -0.0463
     14 C           5.6919    0.2967   -0.0018 C.ar    1  LIG1       -0.0458
     15 C           5.9640    1.6499   -0.0011 C.ar    1  LIG1        0.0265
     16 S           4.4659    2.5590   -0.0001 S.2     1  LIG1       -0.0877
     17 H           3.9340   -1.0226   -0.0023 H       1  LIG1        0.0629
     18 H           6.4671   -0.4605   -0.0026 H       1  LIG1        0.0629
     19 C           7.2621    2.2962   -0.0010 C.ar    1  LIG1        0.0259
     20 C           8.5051    1.6952   -0.0012 C.ar    1  LIG1       -0.0464
     21 C           9.5850    2.6202   -0.0011 C.ar    1  LIG1       -0.0541
     22 C           9.1713    3.9242   -0.0008 C.ar    1  LIG1       -0.0237
     23 S           7.4412    4.0426   -0.0008 S.2     1  LIG1       -0.0961
     24 H           9.7713    4.8229   -0.0007 H       1  LIG1        0.0693
     25 H           8.6388    0.6199   -0.0013 H       1  LIG1        0.0629
     26 H          10.6285    2.3266   -0.0011 H       1  LIG1        0.0623
@<TRIPOS>BOND
     1    18    14    1
     2    17    13    1
     3    14    13   ar
     4    14    15   ar
     5    13    12   ar
     6    25    20    1
     7    20    21   ar
     8    20    19   ar
     9    11     7    1
    10    26    21    1
    11    21    22   ar
    12    15    19    1
    13    15    16   ar
    14    19    23   ar
    15    22    23   ar
    16    22    24    1
    17    12     4    1
    18    12    16   ar
    19     7     4   ar
    20     7     6   ar
    21     8     6    1
    22     4     2   ar
    23     6     3   ar
    24     2     5    1
    25     2     1   ar
    26     3     1   ar
    27     3     9    1
    28     1    10    1
