@<TRIPOS>MOLECULE
mol_data/opt/b3lyp/geoms/mol2/4554-.out
 36 39 0 0 0
SMALL
GASTEIGER

@<TRIPOS>ATOM
      1 C          -0.2422   -0.0569    0.0010 C.ar    1  LIG1       -0.0612
      2 C           1.1483   -0.1005    0.0006 C.ar    1  LIG1       -0.0535
      3 C          -0.9131    1.1681    0.0007 C.ar    1  LIG1       -0.0617
      4 C           1.9119    1.0839   -0.0002 C.ar    1  LIG1       -0.0113
      5 H           1.6459   -1.0644    0.0009 H       1  LIG1        0.0624
      6 C          -0.1721    2.3503    0.0000 C.ar    1  LIG1       -0.0612
      7 C           1.2195    2.3096   -0.0004 C.ar    1  LIG1       -0.0535
      8 H          -0.6782    3.3113   -0.0002 H       1  LIG1        0.0618
      9 H          -1.9982    1.1997    0.0011 H       1  LIG1        0.0618
     10 H          -0.8053   -0.9856    0.0016 H       1  LIG1        0.0618
     11 H           1.7736    3.2438   -0.0010 H       1  LIG1        0.0624
     12 C           3.3767    1.0269   -0.0007 C.ar    1  LIG1        0.0199
     13 C           4.2034   -0.0778   -0.0016 C.ar    1  LIG1       -0.0463
     14 C           5.5841    0.2290   -0.0019 C.ar    1  LIG1       -0.0458
     15 C           5.8523    1.5844   -0.0011 C.ar    1  LIG1        0.0265
     16 S           4.3506    2.4888   -0.0001 S.2     1  LIG1       -0.0877
     17 H           3.8313   -1.0954   -0.0022 H       1  LIG1        0.0629
     18 H           6.3617   -0.5257   -0.0026 H       1  LIG1        0.0629
     19 C           7.1452    2.2334   -0.0012 C.ar    1  LIG1        0.0265
     20 C           8.3923    1.6388   -0.0015 C.ar    1  LIG1       -0.0458
     21 C           9.4632    2.5626   -0.0015 C.ar    1  LIG1       -0.0463
     22 C           9.0712    3.8856   -0.0013 C.ar    1  LIG1        0.0199
     23 S           7.3171    3.9780   -0.0010 S.2     1  LIG1       -0.0877
     24 H           8.5329    0.5643   -0.0017 H       1  LIG1        0.0629
     25 H          10.5015    2.2532   -0.0018 H       1  LIG1        0.0629
     26 C           9.3316    6.3819   -0.0022 C.ar    1  LIG1       -0.0535
     27 C          10.1304    7.5220   -0.0021 C.ar    1  LIG1       -0.0612
     28 C           9.9006    5.0942   -0.0012 C.ar    1  LIG1       -0.0113
     29 C          11.5212    7.4097   -0.0011 C.ar    1  LIG1       -0.0617
     30 H           9.6624    8.5021   -0.0029 H       1  LIG1        0.0618
     31 C          11.3066    4.9989   -0.0001 C.ar    1  LIG1       -0.0535
     32 C          12.1026    6.1399   -0.0001 C.ar    1  LIG1       -0.0612
     33 H          11.7824    4.0240    0.0007 H       1  LIG1        0.0624
     34 H          12.1441    8.2988   -0.0011 H       1  LIG1        0.0618
     35 H           8.2513    6.4954   -0.0031 H       1  LIG1        0.0624
     36 H          13.1837    6.0362    0.0007 H       1  LIG1        0.0618
@<TRIPOS>BOND
     1    35    26    1
     2    30    27    1
     3    18    14    1
     4    26    27   ar
     5    26    28   ar
     6    17    13    1
     7    27    29   ar
     8    14    13   ar
     9    14    15   ar
    10    25    21    1
    11    24    20    1
    12    13    12   ar
    13    21    20   ar
    14    21    22   ar
    15    20    19   ar
    16    22    28    1
    17    22    23   ar
    18    19    15    1
    19    19    23   ar
    20    28    31   ar
    21    15    16   ar
    22    29    34    1
    23    29    32   ar
    24    11     7    1
    25    12     4    1
    26    12    16   ar
    27     7     4   ar
    28     7     6   ar
    29     8     6    1
    30     4     2   ar
    31    31    32   ar
    32    31    33    1
    33    32    36    1
    34     6     3   ar
    35     2     5    1
    36     2     1   ar
    37     3     1   ar
    38     3     9    1
    39     1    10    1
