@<TRIPOS>MOLECULE
mol_data/opt/b3lyp/geoms/mol2/4555-.out
 33 36 0 0 0
SMALL
GASTEIGER

@<TRIPOS>ATOM
      1 C          -0.2118   -0.0643    0.0005 C.ar    1  LIG1       -0.0612
      2 C           1.1790   -0.0981    0.0001 C.ar    1  LIG1       -0.0535
      3 C          -0.8912    1.1560    0.0005 C.ar    1  LIG1       -0.0617
      4 C           1.9343    1.0917   -0.0003 C.ar    1  LIG1       -0.0113
      5 H           1.6834   -1.0584    0.0003 H       1  LIG1        0.0624
      6 C          -0.1585    2.3434    0.0001 C.ar    1  LIG1       -0.0612
      7 C           1.2333    2.3125   -0.0003 C.ar    1  LIG1       -0.0535
      8 H          -0.6714    3.3008    0.0000 H       1  LIG1        0.0618
      9 H          -1.9766    1.1800    0.0007 H       1  LIG1        0.0618
     10 H          -0.7684   -0.9970    0.0008 H       1  LIG1        0.0618
     11 H           1.7808    3.2506   -0.0007 H       1  LIG1        0.0624
     12 C           3.3992    1.0445   -0.0007 C.ar    1  LIG1        0.0199
     13 C           4.2333   -0.0547   -0.0018 C.ar    1  LIG1       -0.0463
     14 C           5.6118    0.2609   -0.0020 C.ar    1  LIG1       -0.0458
     15 C           5.8713    1.6183   -0.0009 C.ar    1  LIG1        0.0265
     16 S           4.3635    2.5129    0.0003 S.2     1  LIG1       -0.0877
     17 H           3.8678   -1.0747   -0.0027 H       1  LIG1        0.0629
     18 H           6.3942   -0.4888   -0.0029 H       1  LIG1        0.0629
     19 C           7.1593    2.2750   -0.0008 C.ar    1  LIG1        0.0265
     20 C           8.4105    1.6879   -0.0011 C.ar    1  LIG1       -0.0458
     21 C           9.4769    2.6160   -0.0009 C.ar    1  LIG1       -0.0458
     22 C           9.0715    3.9357   -0.0003 C.ar    1  LIG1        0.0265
     23 S           7.3178    4.0241   -0.0001 S.2     1  LIG1       -0.0872
     24 H           8.5564    0.6142   -0.0015 H       1  LIG1        0.0629
     25 H          10.5208    2.3229   -0.0011 H       1  LIG1        0.0629
     26 C           9.8734    5.1392    0.0001 C.ar    1  LIG1        0.0259
     27 C           9.4645    6.4569    0.0002 C.ar    1  LIG1       -0.0464
     28 C          10.5402    7.3879    0.0006 C.ar    1  LIG1       -0.0541
     29 C          11.7672    6.7846    0.0008 C.ar    1  LIG1       -0.0237
     30 S          11.6294    5.0543    0.0006 S.2     1  LIG1       -0.0961
     31 H          12.7451    7.2445    0.0011 H       1  LIG1        0.0693
     32 H           8.4202    6.7485   -0.0001 H       1  LIG1        0.0629
     33 H          10.4051    8.4632    0.0007 H       1  LIG1        0.0623
@<TRIPOS>BOND
     1    18    14    1
     2    17    13    1
     3    14    13   ar
     4    14    15   ar
     5    13    12   ar
     6    24    20    1
     7    20    21   ar
     8    20    19   ar
     9    25    21    1
    10    15    19    1
    11    15    16   ar
    12    21    22   ar
    13    19    23   ar
    14    11     7    1
    15    12     4    1
    16    12    16   ar
    17     7     4   ar
    18     7     6   ar
    19     4     2   ar
    20    22    23   ar
    21    22    26    1
    22    32    27    1
    23     8     6    1
    24     6     3   ar
    25    26    27   ar
    26    26    30   ar
    27     2     5    1
    28     2     1   ar
    29    27    28   ar
    30     3     1   ar
    31     3     9    1
    32     1    10    1
    33    28    33    1
    34    28    29   ar
    35    30    29   ar
    36    29    31    1
