@<TRIPOS>MOLECULE
mol_data/opt/b3lyp/geoms/mol2/4558.out
 32 35 0 0 0
SMALL
GASTEIGER

@<TRIPOS>ATOM
      1 C          -0.1823   -0.0351    0.0007 C.ar    1  LIG1       -0.0612
      2 C           1.2085   -0.0700    0.0004 C.ar    1  LIG1       -0.0535
      3 C          -0.8597    1.1860    0.0004 C.ar    1  LIG1       -0.0617
      4 C           1.9633    1.1197   -0.0003 C.ar    1  LIG1       -0.0113
      5 H           1.7122   -1.0307    0.0007 H       1  LIG1        0.0624
      6 C          -0.1269    2.3736   -0.0002 C.ar    1  LIG1       -0.0612
      7 C           1.2647    2.3416   -0.0006 C.ar    1  LIG1       -0.0535
      8 H          -0.6393    3.3310   -0.0005 H       1  LIG1        0.0618
      9 H          -1.9450    1.2111    0.0007 H       1  LIG1        0.0618
     10 H          -0.7397   -0.9672    0.0012 H       1  LIG1        0.0618
     11 H           1.8129    3.2792   -0.0012 H       1  LIG1        0.0624
     12 C           3.4286    1.0716   -0.0007 C.ar    1  LIG1        0.0199
     13 C           4.2606   -0.0310   -0.0017 C.ar    1  LIG1       -0.0463
     14 C           5.6378    0.2839   -0.0018 C.ar    1  LIG1       -0.0458
     15 C           5.8974    1.6419   -0.0010 C.ar    1  LIG1        0.0265
     16 S           4.3913    2.5379    0.0001 S.2     1  LIG1       -0.0877
     17 H           3.8939   -1.0500   -0.0024 H       1  LIG1        0.0629
     18 H           6.4195   -0.4664   -0.0026 H       1  LIG1        0.0629
     19 C           7.1867    2.2948   -0.0009 C.ar    1  LIG1        0.0266
     20 C           8.4351    1.6854   -0.0012 C.ar    1  LIG1       -0.0457
     21 C           9.5047    2.6010   -0.0010 C.ar    1  LIG1       -0.0432
     22 C           9.0915    3.9193   -0.0005 C.ar    1  LIG1        0.0604
     23 S           7.3472    4.0375   -0.0003 S.2     1  LIG1       -0.0845
     24 H           8.5679    0.6105   -0.0015 H       1  LIG1        0.0629
     25 H          10.5525    2.3278   -0.0012 H       1  LIG1        0.0630
     26 C           9.9149    5.1053   -0.0002 C.ar    1  LIG1        0.2098
     27 N          11.2619    4.9412   -0.0003 N.ar    1  LIG1       -0.1253
     28 C          11.3674    7.2103    0.0001 C.ar    1  LIG1        0.1605
     29 N           9.2884    6.3067    0.0001 N.ar    1  LIG1       -0.1253
     30 N          12.0030    6.0288   -0.0001 N.ar    1  LIG1       -0.1339
     31 N          10.0399    7.3881    0.0004 N.ar    1  LIG1       -0.1339
     32 H          11.9851    8.1018    0.0008 H       1  LIG1        0.1085
@<TRIPOS>BOND
     1    18    14    1
     2    17    13    1
     3    14    13   ar
     4    14    15   ar
     5    13    12   ar
     6    24    20    1
     7    11     7    1
     8    25    21    1
     9    20    21   ar
    10    20    19   ar
    11    21    22   ar
    12    15    19    1
    13    15    16   ar
    14    19    23   ar
    15    12     4    1
    16    12    16   ar
    17     7     4   ar
    18     7     6   ar
    19    22    23   ar
    20    22    26    1
    21     8     6    1
    22    27    26   ar
    23    27    30   ar
    24     4     2   ar
    25    26    29   ar
    26     6     3   ar
    27    30    28   ar
    28    28    31   ar
    29    28    32    1
    30    29    31   ar
    31     2     1   ar
    32     2     5    1
    33     3     9    1
    34     3     1   ar
    35     1    10    1
