@<TRIPOS>MOLECULE
mol_data/opt/b3lyp/geoms/mol2/458.out
 25 27 0 0 0
SMALL
GASTEIGER

@<TRIPOS>ATOM
      1 C          -0.0945    0.0307    0.0008 C.ar    1  LIG1       -0.0612
      2 C           1.2963   -0.0084    0.0004 C.ar    1  LIG1       -0.0535
      3 C          -0.7670    1.2544    0.0003 C.ar    1  LIG1       -0.0617
      4 C           2.0543    1.1786   -0.0003 C.ar    1  LIG1       -0.0113
      5 H           1.7963   -0.9709    0.0009 H       1  LIG1        0.0624
      6 C          -0.0307    2.4400   -0.0004 C.ar    1  LIG1       -0.0612
      7 C           1.3607    2.4033   -0.0007 C.ar    1  LIG1       -0.0535
      8 H          -0.5403    3.3988   -0.0007 H       1  LIG1        0.0618
      9 H          -1.8523    1.2833    0.0006 H       1  LIG1        0.0618
     10 H          -0.6555   -0.8991    0.0013 H       1  LIG1        0.0618
     11 H           1.9118    3.3392   -0.0014 H       1  LIG1        0.0624
     12 C           3.5216    1.1268   -0.0007 C.ar    1  LIG1        0.0200
     13 C           4.3402    0.0096   -0.0015 C.ar    1  LIG1       -0.0462
     14 C           5.7179    0.3139   -0.0016 C.ar    1  LIG1       -0.0432
     15 C           5.9689    1.6705   -0.0008 C.ar    1  LIG1        0.0604
     16 S           4.4843    2.5894    0.0000 S.2     1  LIG1       -0.0850
     17 H           3.9626   -1.0053   -0.0022 H       1  LIG1        0.0629
     18 H           6.5142   -0.4195   -0.0022 H       1  LIG1        0.0630
     19 C           7.2551    2.3317   -0.0007 C.ar    1  LIG1        0.2098
     20 N           8.3654    1.5530   -0.0012 N.ar    1  LIG1       -0.1253
     21 C           9.5274    3.5044   -0.0004 C.ar    1  LIG1        0.1605
     22 N           7.2678    3.6857   -0.0000 N.ar    1  LIG1       -0.1253
     23 N           9.5321    2.1630   -0.0011 N.ar    1  LIG1       -0.1339
     24 N           8.4403    4.2863    0.0001 N.ar    1  LIG1       -0.1339
     25 H          10.4922    4.0002   -0.0006 H       1  LIG1        0.1085
@<TRIPOS>BOND
     1    18    14    1
     2    17    13    1
     3    14    13   ar
     4    14    15   ar
     5    13    12   ar
     6    11     7    1
     7    20    23   ar
     8    20    19   ar
     9    23    21   ar
    10    15    19    1
    11    15    16   ar
    12     8     6    1
    13     7     6   ar
    14     7     4   ar
    15    19    22   ar
    16    12     4    1
    17    12    16   ar
    18    25    21    1
    19     6     3   ar
    20    21    24   ar
    21     4     2   ar
    22    22    24   ar
    23     3     9    1
    24     3     1   ar
    25     2     1   ar
    26     2     5    1
    27     1    10    1
