@<TRIPOS>MOLECULE
mol_data/opt/b3lyp/geoms/mol2/48-.out
 18 19 0 0 0
SMALL
GASTEIGER

@<TRIPOS>ATOM
      1 C           0.0061    0.0507    0.0005 C.ar    1  LIG1       -0.0611
      2 C           1.3976    0.0134    0.0002 C.ar    1  LIG1       -0.0509
      3 C          -0.6643    1.2761    0.0002 C.ar    1  LIG1       -0.0617
      4 C           2.1335    1.2100   -0.0002 C.ar    1  LIG1        0.0226
      5 H           1.9269   -0.9322    0.0004 H       1  LIG1        0.0625
      6 C           0.0632    2.4686   -0.0002 C.ar    1  LIG1       -0.0611
      7 C           1.4549    2.4401   -0.0004 C.ar    1  LIG1       -0.0509
      8 H          -0.4550    3.4226   -0.0004 H       1  LIG1        0.0618
      9 H          -1.7500    1.3018    0.0004 H       1  LIG1        0.0618
     10 H          -0.5566   -0.8778    0.0008 H       1  LIG1        0.0618
     11 H           2.0283    3.3596   -0.0008 H       1  LIG1        0.0625
     12 C           3.6085    1.1753   -0.0004 C.ar    1  LIG1        0.2033
     13 N           4.2717    2.3531   -0.0006 N.ar    1  LIG1       -0.1258
     14 C           6.1709    1.1149   -0.0008 C.ar    1  LIG1        0.1605
     15 N           4.2155   -0.0326   -0.0005 N.ar    1  LIG1       -0.1258
     16 N           5.5901    2.3211   -0.0008 N.ar    1  LIG1       -0.1339
     17 N           5.5339   -0.0627   -0.0007 N.ar    1  LIG1       -0.1339
     18 H           7.2555    1.0892   -0.0010 H       1  LIG1        0.1085
@<TRIPOS>BOND
     1    18    14    1
     2    14    16   ar
     3    14    17   ar
     4    16    13   ar
     5    11     7    1
     6    17    15   ar
     7    13    12   ar
     8    15    12   ar
     9    12     4    1
    10     7     6   ar
    11     7     4   ar
    12     8     6    1
    13     6     3   ar
    14     4     2   ar
    15     3     9    1
    16     3     1   ar
    17     2     5    1
    18     2     1   ar
    19     1    10    1
