@<TRIPOS>MOLECULE
mol_data/opt/b3lyp/geoms/mol2/48-1212.out
 32 35 0 0 0
SMALL
GASTEIGER

@<TRIPOS>ATOM
      1 C          -0.0813   -0.1100    0.0004 C.ar    1  LIG1       -0.0611
      2 C           1.3104   -0.0771    0.0002 C.ar    1  LIG1       -0.0509
      3 C          -0.8134    1.0796    0.0001 C.ar    1  LIG1       -0.0617
      4 C           1.9869    1.1545   -0.0002 C.ar    1  LIG1        0.0226
      5 H           1.8865   -0.9950    0.0004 H       1  LIG1        0.0625
      6 C          -0.1456    2.3066   -0.0003 C.ar    1  LIG1       -0.0611
      7 C           1.2457    2.3482   -0.0004 C.ar    1  LIG1       -0.0509
      8 H          -0.7108    3.2338   -0.0004 H       1  LIG1        0.0618
      9 H          -1.8991    1.0507    0.0002 H       1  LIG1        0.0618
     10 H          -0.5963   -1.0660    0.0006 H       1  LIG1        0.0618
     11 H           1.7726    3.2954   -0.0007 H       1  LIG1        0.0625
     12 C           3.4607    1.1952   -0.0003 C.ar    1  LIG1        0.2034
     13 N           4.0674    2.4015   -0.0004 N.ar    1  LIG1       -0.1251
     14 C           6.0408    1.2676   -0.0006 C.ar    1  LIG1        0.2381
     15 N           4.1329    0.0200   -0.0004 N.ar    1  LIG1       -0.1251
     16 N           5.3800    2.4475   -0.0006 N.ar    1  LIG1       -0.1220
     17 N           5.4414    0.0520   -0.0005 N.ar    1  LIG1       -0.1220
     18 C           7.4837    1.2674   -0.0008 C.ar    1  LIG1        0.1761
     19 C           8.3957    0.2364   -0.0009 C.ar    1  LIG1       -0.0119
     20 C           9.6782    0.8332   -0.0010 C.ar    1  LIG1       -0.0121
     21 C           9.4711    2.1984   -0.0011 C.ar    1  LIG1        0.1707
     22 O           8.1389    2.4685   -0.0009 O.2     1  LIG1       -0.4485
     23 H           8.1502   -0.8146   -0.0008 H       1  LIG1        0.0657
     24 H          10.6347    0.3316   -0.0011 H       1  LIG1        0.0657
     25 C          10.3820    3.3103   -0.0012 C.ar    1  LIG1        0.1697
     26 C          11.7543    3.3832   -0.0013 C.ar    1  LIG1       -0.0128
     27 C          12.0820    4.7715   -0.0014 C.ar    1  LIG1       -0.0232
     28 C          10.8947    5.4424   -0.0013 C.ar    1  LIG1        0.0927
     29 O           9.8511    4.5703   -0.0013 O.2     1  LIG1       -0.4598
     30 H          10.6307    6.4881   -0.0013 H       1  LIG1        0.1029
     31 H          12.4398    2.5483   -0.0013 H       1  LIG1        0.0656
     32 H          13.0690    5.2103   -0.0015 H       1  LIG1        0.0649
@<TRIPOS>BOND
     1    32    27    1
     2    27    28   ar
     3    27    26   ar
     4    30    28    1
     5    28    29   ar
     6    26    31    1
     7    26    25   ar
     8    29    25   ar
     9    25    21    1
    10    24    20    1
    11    21    20   ar
    12    21    22   ar
    13    20    19   ar
    14    22    18   ar
    15    19    23    1
    16    19    18   ar
    17    18    14    1
    18    11     7    1
    19    14    16   ar
    20    14    17   ar
    21    16    13   ar
    22    17    15   ar
    23     8     6    1
    24    13    12   ar
    25     7     6   ar
    26     7     4   ar
    27    15    12   ar
    28    12     4    1
    29     6     3   ar
    30     4     2   ar
    31     3     9    1
    32     3     1   ar
    33     2     1   ar
    34     2     5    1
    35     1    10    1
