@<TRIPOS>MOLECULE
mol_data/opt/b3lyp/geoms/mol2/48-12-.out
 25 27 0 0 0
SMALL
GASTEIGER

@<TRIPOS>ATOM
      1 C          -0.0599    0.0889    0.0004 C.ar    1  LIG1       -0.0611
      2 C           1.3304    0.0206    0.0002 C.ar    1  LIG1       -0.0509
      3 C          -0.7037    1.3286    0.0002 C.ar    1  LIG1       -0.0617
      4 C           2.0940    1.2000   -0.0002 C.ar    1  LIG1        0.0226
      5 H           1.8387   -0.9365    0.0004 H       1  LIG1        0.0625
      6 C           0.0509    2.5040   -0.0003 C.ar    1  LIG1       -0.0611
      7 C           1.4417    2.4445   -0.0004 C.ar    1  LIG1       -0.0509
      8 H          -0.4456    3.4697   -0.0004 H       1  LIG1        0.0618
      9 H          -1.7888    1.3783    0.0003 H       1  LIG1        0.0618
     10 H          -0.6431   -0.8272    0.0007 H       1  LIG1        0.0618
     11 H           2.0353    3.3513   -0.0007 H       1  LIG1        0.0625
     12 C           3.5671    1.1320   -0.0003 C.ar    1  LIG1        0.2034
     13 N           4.2604    2.2941   -0.0005 N.ar    1  LIG1       -0.1251
     14 C           6.1448    1.0126   -0.0006 C.ar    1  LIG1        0.2381
     15 N           4.1514   -0.0852   -0.0004 N.ar    1  LIG1       -0.1251
     16 N           5.5690    2.2374   -0.0007 N.ar    1  LIG1       -0.1220
     17 N           5.4637   -0.1538   -0.0005 N.ar    1  LIG1       -0.1220
     18 C           7.5921    0.9842   -0.0008 C.ar    1  LIG1        0.1751
     19 C           8.5231    1.9937   -0.0009 C.ar    1  LIG1       -0.0126
     20 C           9.7984    1.3604   -0.0011 C.ar    1  LIG1       -0.0232
     21 C           9.5520    0.0164   -0.0010 C.ar    1  LIG1        0.0927
     22 O           8.2194   -0.2306   -0.0008 O.2     1  LIG1       -0.4597
     23 H          10.1901   -0.8536   -0.0011 H       1  LIG1        0.1029
     24 H           8.3016    3.0501   -0.0010 H       1  LIG1        0.0656
     25 H          10.7680    1.8362   -0.0012 H       1  LIG1        0.0649
@<TRIPOS>BOND
     1    25    20    1
     2    20    21   ar
     3    20    19   ar
     4    23    21    1
     5    21    22   ar
     6    24    19    1
     7    19    18   ar
     8    18    22   ar
     9    18    14    1
    10    11     7    1
    11    16    14   ar
    12    16    13   ar
    13    14    17   ar
    14    17    15   ar
    15    13    12   ar
    16     8     6    1
    17     7     6   ar
    18     7     4   ar
    19    15    12   ar
    20    12     4    1
    21     6     3   ar
    22     4     2   ar
    23     3     9    1
    24     3     1   ar
    25     2     1   ar
    26     2     5    1
    27     1    10    1
