@<TRIPOS>MOLECULE
mol_data/opt/b3lyp/geoms/mol2/48-1212-.out
 32 35 0 0 0
SMALL
GASTEIGER

@<TRIPOS>ATOM
      1 C          -0.0723   -0.0577    0.0003 C.ar    1  LIG1       -0.0611
      2 C           1.3198   -0.0450    0.0002 C.ar    1  LIG1       -0.0509
      3 C          -0.7872    1.1424    0.0001 C.ar    1  LIG1       -0.0617
      4 C           2.0139    1.1767   -0.0002 C.ar    1  LIG1        0.0226
      5 H           1.8824   -0.9712    0.0003 H       1  LIG1        0.0625
      6 C          -0.1018    2.3595   -0.0002 C.ar    1  LIG1       -0.0611
      7 C           1.2900    2.3810   -0.0004 C.ar    1  LIG1       -0.0509
      8 H          -0.6535    3.2949   -0.0004 H       1  LIG1        0.0618
      9 H          -1.8732    1.1290    0.0002 H       1  LIG1        0.0618
     10 H          -0.6011   -1.0062    0.0006 H       1  LIG1        0.0618
     11 H           1.8304    3.3204   -0.0006 H       1  LIG1        0.0625
     12 C           3.4881    1.1962   -0.0003 C.ar    1  LIG1        0.2034
     13 N           4.1123    2.3934   -0.0004 N.ar    1  LIG1       -0.1251
     14 C           6.0693    1.2303   -0.0006 C.ar    1  LIG1        0.2381
     15 N           4.1434    0.0112   -0.0004 N.ar    1  LIG1       -0.1251
     16 N           5.4256    2.4199   -0.0005 N.ar    1  LIG1       -0.1220
     17 N           5.4520    0.0236   -0.0005 N.ar    1  LIG1       -0.1220
     18 C           7.5116    1.2121   -0.0008 C.ar    1  LIG1        0.1761
     19 C           8.4153    0.1743   -0.0009 C.ar    1  LIG1       -0.0119
     20 C           9.7049    0.7592   -0.0010 C.ar    1  LIG1       -0.0121
     21 C           9.5082    2.1239   -0.0010 C.ar    1  LIG1        0.1707
     22 O           8.1781    2.4087   -0.0009 O.2     1  LIG1       -0.4485
     23 H           8.1601   -0.8746   -0.0008 H       1  LIG1        0.0657
     24 H          10.6604    0.2571   -0.0010 H       1  LIG1        0.0657
     25 C          10.4069    3.2416   -0.0011 C.ar    1  LIG1        0.1697
     26 C          10.2156    4.6001   -0.0011 C.ar    1  LIG1       -0.0128
     27 C          11.5179    5.1852   -0.0013 C.ar    1  LIG1       -0.0232
     28 C          12.4039    4.1493   -0.0014 C.ar    1  LIG1        0.0927
     29 O          11.7465    2.9557   -0.0012 O.2     1  LIG1       -0.4598
     30 H          13.4808    4.0907   -0.0015 H       1  LIG1        0.1029
     31 H           9.2610    5.1044   -0.0010 H       1  LIG1        0.0656
     32 H          11.7612    6.2377   -0.0014 H       1  LIG1        0.0649
@<TRIPOS>BOND
     1    30    28    1
     2    28    27   ar
     3    28    29   ar
     4    32    27    1
     5    27    26   ar
     6    29    25   ar
     7    26    25   ar
     8    26    31    1
     9    25    21    1
    10    24    20    1
    11    21    20   ar
    12    21    22   ar
    13    20    19   ar
    14    22    18   ar
    15    19    23    1
    16    19    18   ar
    17    18    14    1
    18    11     7    1
    19    14    16   ar
    20    14    17   ar
    21    16    13   ar
    22    17    15   ar
    23     8     6    1
    24    13    12   ar
    25    15    12   ar
    26     7     6   ar
    27     7     4   ar
    28    12     4    1
    29     6     3   ar
    30     4     2   ar
    31     3     9    1
    32     3     1   ar
    33     2     1   ar
    34     2     5    1
    35     1    10    1
