@<TRIPOS>MOLECULE
mol_data/opt/b3lyp/geoms/mol2/48-1213.out
 33 36 0 0 0
SMALL
GASTEIGER

@<TRIPOS>ATOM
      1 C          -0.0843   -0.0516    0.0001 C.ar    1  LIG1       -0.0611
      2 C           1.3079   -0.0459    0.0000 C.ar    1  LIG1       -0.0509
      3 C          -0.7932    1.1518    0.0000 C.ar    1  LIG1       -0.0617
      4 C           2.0088    1.1719   -0.0002 C.ar    1  LIG1        0.0226
      5 H           1.8658   -0.9750    0.0001 H       1  LIG1        0.0625
      6 C          -0.1013    2.3653   -0.0002 C.ar    1  LIG1       -0.0611
      7 C           1.2907    2.3796   -0.0003 C.ar    1  LIG1       -0.0509
      8 H          -0.6481    3.3035   -0.0004 H       1  LIG1        0.0618
      9 H          -1.8793    1.1442    0.0001 H       1  LIG1        0.0618
     10 H          -0.6175   -0.9976    0.0003 H       1  LIG1        0.0618
     11 H           1.8356    3.3164   -0.0005 H       1  LIG1        0.0625
     12 C           3.4833    1.1832   -0.0003 C.ar    1  LIG1        0.2034
     13 N           4.1151    2.3759   -0.0003 N.ar    1  LIG1       -0.1251
     14 C           6.0664    1.2001   -0.0005 C.ar    1  LIG1        0.2381
     15 N           4.1317   -0.0063   -0.0004 N.ar    1  LIG1       -0.1251
     16 N           5.4286    2.3945   -0.0004 N.ar    1  LIG1       -0.1220
     17 N           5.4396   -0.0036   -0.0005 N.ar    1  LIG1       -0.1220
     18 C           7.5051    1.1767   -0.0007 C.ar    1  LIG1        0.1760
     19 C           8.4146    0.1439   -0.0008 C.ar    1  LIG1       -0.0120
     20 C           9.7025    0.7307   -0.0009 C.ar    1  LIG1       -0.0137
     21 C           9.5104    2.0982   -0.0008 C.ar    1  LIG1        0.1519
     22 O           8.1744    2.3755   -0.0007 O.2     1  LIG1       -0.4501
     23 H           8.1633   -0.9060   -0.0008 H       1  LIG1        0.0657
     24 H          10.6545    0.2215   -0.0009 H       1  LIG1        0.0656
     25 C          10.3894    3.2320   -0.0009 C.ar    1  LIG1        0.0821
     26 C          11.7777    3.3290   -0.0011 C.ar    1  LIG1       -0.0334
     27 C          12.1072    4.7051   -0.0013 C.ar    1  LIG1       -0.0437
     28 C          10.9203    5.4168   -0.0005 C.ar    1  LIG1        0.0023
     29 N           9.8897    4.5187   -0.0006 N.ar    1  LIG1       -0.3583
     30 H           8.9046    4.7352   -0.0005 H       1  LIG1        0.1654
     31 H          10.7348    6.4803   -0.0002 H       1  LIG1        0.0807
     32 H          12.4658    2.4959   -0.0013 H       1  LIG1        0.0640
     33 H          13.0996    5.1320   -0.0017 H       1  LIG1        0.0633
@<TRIPOS>BOND
     1    33    27    1
     2    27    26   ar
     3    27    28   ar
     4    32    26    1
     5    26    25   ar
     6    24    20    1
     7    25    21    1
     8    25    29   ar
     9    20    21   ar
    10    20    19   ar
    11    21    22   ar
    12    23    19    1
    13    19    18   ar
    14    22    18   ar
    15    18    14    1
    16    29    28   ar
    17    29    30    1
    18    14    17   ar
    19    14    16   ar
    20    11     7    1
    21    17    15   ar
    22    28    31    1
    23    16    13   ar
    24    15    12   ar
    25     8     6    1
    26     7     6   ar
    27     7     4   ar
    28    12    13   ar
    29    12     4    1
    30     6     3   ar
    31     4     2   ar
    32     3     9    1
    33     3     1   ar
    34     2     5    1
    35     2     1   ar
    36     1    10    1
