@<TRIPOS>MOLECULE
mol_data/opt/b3lyp/geoms/mol2/48-13.out
 26 28 0 0 0
SMALL
GASTEIGER

@<TRIPOS>ATOM
      1 C          -0.0564    0.0697    0.0003 C.ar    1  LIG1       -0.0611
      2 C           1.3349    0.0195    0.0002 C.ar    1  LIG1       -0.0509
      3 C          -0.7168    1.3004   -0.0000 C.ar    1  LIG1       -0.0617
      4 C           2.0838    1.2081   -0.0002 C.ar    1  LIG1        0.0226
      5 H           1.8551   -0.9311    0.0004 H       1  LIG1        0.0625
      6 C           0.0232    2.4851   -0.0004 C.ar    1  LIG1       -0.0611
      7 C           1.4146    2.4435   -0.0004 C.ar    1  LIG1       -0.0509
      8 H          -0.4855    3.4445   -0.0006 H       1  LIG1        0.0618
      9 H          -1.8023    1.3362    0.0001 H       1  LIG1        0.0618
     10 H          -0.6272   -0.8542    0.0006 H       1  LIG1        0.0618
     11 H           1.9959    3.3582   -0.0007 H       1  LIG1        0.0625
     12 C           3.5582    1.1593   -0.0002 C.ar    1  LIG1        0.2034
     13 N           4.2378    2.3254   -0.0003 N.ar    1  LIG1       -0.1252
     14 C           6.1429    1.0623   -0.0004 C.ar    1  LIG1        0.2194
     15 N           4.1574   -0.0551   -0.0002 N.ar    1  LIG1       -0.1252
     16 N           5.5494    2.2796   -0.0004 N.ar    1  LIG1       -0.1237
     17 N           5.4655   -0.1122   -0.0003 N.ar    1  LIG1       -0.1237
     18 C           7.5822    1.0296   -0.0005 C.ar    1  LIG1        0.0875
     19 C           8.4863   -0.0289   -0.0007 C.ar    1  LIG1       -0.0333
     20 C           9.7837    0.5280   -0.0005 C.ar    1  LIG1       -0.0437
     21 C           9.6435    1.9090   -0.0009 C.ar    1  LIG1        0.0023
     22 N           8.3129    2.1997   -0.0006 N.ar    1  LIG1       -0.3582
     23 H           7.8810    3.1119   -0.0006 H       1  LIG1        0.1654
     24 H          10.3881    2.6911   -0.0010 H       1  LIG1        0.0807
     25 H           8.2150   -1.0739   -0.0007 H       1  LIG1        0.0640
     26 H          10.7205   -0.0103   -0.0003 H       1  LIG1        0.0633
@<TRIPOS>BOND
     1    24    21    1
     2    21    22   ar
     3    21    20   ar
     4    25    19    1
     5    11     7    1
     6    19    18   ar
     7    19    20   ar
     8    23    22    1
     9     8     6    1
    10    22    18   ar
    11    18    14    1
    12    20    26    1
    13     7     6   ar
    14     7     4   ar
    15    16    14   ar
    16    16    13   ar
    17    14    17   ar
    18     6     3   ar
    19    13    12   ar
    20    17    15   ar
    21    12    15   ar
    22    12     4    1
    23     4     2   ar
    24     3     9    1
    25     3     1   ar
    26     2     1   ar
    27     2     5    1
    28     1    10    1
