@<TRIPOS>MOLECULE
mol_data/opt/b3lyp/geoms/mol2/48-12.out
 25 27 0 0 0
SMALL
GASTEIGER

@<TRIPOS>ATOM
      1 C          -0.0132    0.0217    0.0004 C.ar    1  LIG1       -0.0611
      2 C           1.3788    0.0092    0.0002 C.ar    1  LIG1       -0.0509
      3 C          -0.7061    1.2346    0.0002 C.ar    1  LIG1       -0.0617
      4 C           2.0945    1.2182   -0.0002 C.ar    1  LIG1        0.0226
      5 H           1.9246   -0.9270    0.0004 H       1  LIG1        0.0625
      6 C           0.0010    2.4393   -0.0003 C.ar    1  LIG1       -0.0611
      7 C           1.3929    2.4357   -0.0004 C.ar    1  LIG1       -0.0509
      8 H          -0.5339    3.3843   -0.0005 H       1  LIG1        0.0618
      9 H          -1.7923    1.2409    0.0003 H       1  LIG1        0.0618
     10 H          -0.5593   -0.9170    0.0007 H       1  LIG1        0.0618
     11 H           1.9501    3.3653   -0.0007 H       1  LIG1        0.0625
     12 C           3.5691    1.2104   -0.0003 C.ar    1  LIG1        0.2034
     13 N           4.2152    2.3959   -0.0005 N.ar    1  LIG1       -0.1251
     14 C           6.1496    1.1971   -0.0007 C.ar    1  LIG1        0.2381
     15 N           4.2018    0.0141   -0.0004 N.ar    1  LIG1       -0.1251
     16 N           5.5294    2.3969   -0.0007 N.ar    1  LIG1       -0.1220
     17 N           5.5116    0.0034   -0.0005 N.ar    1  LIG1       -0.1220
     18 C           7.5964    1.1510   -0.0009 C.ar    1  LIG1        0.1751
     19 C           8.4743    0.0949   -0.0009 C.ar    1  LIG1       -0.0126
     20 C           9.7805    0.6619   -0.0011 C.ar    1  LIG1       -0.0232
     21 C           9.6035    2.0168   -0.0012 C.ar    1  LIG1        0.0927
     22 O           8.2854    2.3320   -0.0011 O.2     1  LIG1       -0.4597
     23 H          10.2855    2.8528   -0.0013 H       1  LIG1        0.1029
     24 H           8.1988   -0.9486   -0.0008 H       1  LIG1        0.0656
     25 H          10.7243    0.1368   -0.0012 H       1  LIG1        0.0649
@<TRIPOS>BOND
     1    23    21    1
     2    25    20    1
     3    21    20   ar
     4    21    22   ar
     5    20    19   ar
     6    22    18   ar
     7    19    18   ar
     8    19    24    1
     9    18    14    1
    10    11     7    1
    11    16    14   ar
    12    16    13   ar
    13    14    17   ar
    14    17    15   ar
    15    13    12   ar
    16     8     6    1
    17     7     6   ar
    18     7     4   ar
    19    15    12   ar
    20    12     4    1
    21     6     3   ar
    22     4     2   ar
    23     3     9    1
    24     3     1   ar
    25     2     1   ar
    26     2     5    1
    27     1    10    1
