@<TRIPOS>MOLECULE
mol_data/opt/b3lyp/geoms/mol2/48-4.out
 28 30 0 0 0
SMALL
GASTEIGER

@<TRIPOS>ATOM
      1 C          -0.0734    0.0469    0.0001 C.ar    1  LIG1       -0.0611
      2 C           1.3181    0.0112    0.0002 C.ar    1  LIG1       -0.0509
      3 C          -0.7458    1.2713   -0.0003 C.ar    1  LIG1       -0.0617
      4 C           2.0535    1.2082   -0.0001 C.ar    1  LIG1        0.0226
      5 H           1.8487   -0.9337    0.0006 H       1  LIG1        0.0625
      6 C          -0.0190    2.4642   -0.0007 C.ar    1  LIG1       -0.0611
      7 C           1.3728    2.4372   -0.0006 C.ar    1  LIG1       -0.0509
      8 H          -0.5381    3.4179   -0.0010 H       1  LIG1        0.0618
      9 H          -1.8315    1.2957   -0.0004 H       1  LIG1        0.0618
     10 H          -0.6352   -0.8823    0.0004 H       1  LIG1        0.0618
     11 H           1.9456    3.3576   -0.0008 H       1  LIG1        0.0625
     12 C           3.5282    1.1751   -0.0000 C.ar    1  LIG1        0.2034
     13 N           4.1947    2.3497   -0.0001 N.ar    1  LIG1       -0.1252
     14 C           6.1201    1.1171    0.0001 C.ar    1  LIG1        0.2034
     15 N           4.1415   -0.0282    0.0001 N.ar    1  LIG1       -0.1252
     16 N           5.5069    2.3204   -0.0000 N.ar    1  LIG1       -0.1252
     17 N           5.4536   -0.0576    0.0002 N.ar    1  LIG1       -0.1252
     18 C           8.2754   -0.1450    0.0006 C.ar    1  LIG1       -0.0509
     19 C           9.6672   -0.1719    0.0006 C.ar    1  LIG1       -0.0611
     20 C           7.5946    1.0839    0.0002 C.ar    1  LIG1        0.0226
     21 C          10.3940    1.0209    0.0004 C.ar    1  LIG1       -0.0617
     22 H          10.1862   -1.1257    0.0009 H       1  LIG1        0.0618
     23 C           8.3300    2.2809   -0.0000 C.ar    1  LIG1       -0.0509
     24 C           9.7216    2.2453    0.0001 C.ar    1  LIG1       -0.0611
     25 H           7.7996    3.2259   -0.0003 H       1  LIG1        0.0625
     26 H          11.4798    0.9965    0.0005 H       1  LIG1        0.0618
     27 H           7.7028   -1.0652    0.0007 H       1  LIG1        0.0625
     28 H          10.2831    3.1746   -0.0001 H       1  LIG1        0.0618
@<TRIPOS>BOND
     1     8     6    1
     2    11     7    1
     3     6     7   ar
     4     6     3   ar
     5     7     4   ar
     6     9     3    1
     7     3     1   ar
     8    25    23    1
     9    13    16   ar
    10    13    12   ar
    11     4    12    1
    12     4     2   ar
    13    28    24    1
    14    16    14   ar
    15    12    15   ar
    16    23    24   ar
    17    23    20   ar
    18    24    21   ar
    19     1     2   ar
    20     1    10    1
    21    14    20    1
    22    14    17   ar
    23    15    17   ar
    24     2     5    1
    25    20    18   ar
    26    21    26    1
    27    21    19   ar
    28    18    19   ar
    29    18    27    1
    30    19    22    1
