@<TRIPOS>MOLECULE
mol_data/opt/b3lyp/geoms/mol2/48-44-.out
 38 41 0 0 0
SMALL
GASTEIGER

@<TRIPOS>ATOM
      1 C          -0.1869    0.0532   -0.0000 C.ar    1  LIG1       -0.0611
      2 C           1.2047    0.0171    0.0002 C.ar    1  LIG1       -0.0509
      3 C          -0.8590    1.2778   -0.0008 C.ar    1  LIG1       -0.0617
      4 C           1.9408    1.2138   -0.0003 C.ar    1  LIG1        0.0226
      5 H           1.7348   -0.9281    0.0009 H       1  LIG1        0.0625
      6 C          -0.1316    2.4703   -0.0014 C.ar    1  LIG1       -0.0611
      7 C           1.2601    2.4428   -0.0011 C.ar    1  LIG1       -0.0509
      8 H          -0.6504    3.4242   -0.0020 H       1  LIG1        0.0618
      9 H          -1.9448    1.3026   -0.0011 H       1  LIG1        0.0618
     10 H          -0.7486   -0.8760    0.0004 H       1  LIG1        0.0618
     11 H           1.8328    3.3627   -0.0015 H       1  LIG1        0.0625
     12 C           3.4152    1.1801    0.0000 C.ar    1  LIG1        0.2034
     13 N           4.0825    2.3546   -0.0003 N.ar    1  LIG1       -0.1252
     14 C           6.0072    1.1210    0.0005 C.ar    1  LIG1        0.2034
     15 N           4.0282   -0.0236    0.0006 N.ar    1  LIG1       -0.1252
     16 N           5.3942    2.3254   -0.0000 N.ar    1  LIG1       -0.1252
     17 N           5.3399   -0.0542    0.0009 N.ar    1  LIG1       -0.1252
     18 C           8.1691   -0.1338    0.0016 C.ar    1  LIG1       -0.0504
     19 C           9.5568   -0.1595    0.0019 C.ar    1  LIG1       -0.0534
     20 C           7.4774    1.0874    0.0008 C.ar    1  LIG1        0.0227
     21 C          10.3248    1.0223    0.0014 C.ar    1  LIG1       -0.0178
     22 H          10.0419   -1.1281    0.0025 H       1  LIG1        0.0624
     23 C           8.2243    2.2757    0.0004 C.ar    1  LIG1       -0.0504
     24 C           9.6117    2.2380    0.0007 C.ar    1  LIG1       -0.0534
     25 H           7.7047    3.2268   -0.0002 H       1  LIG1        0.0625
     26 H           7.6067   -1.0600    0.0020 H       1  LIG1        0.0625
     27 H          10.1406    3.1834    0.0002 H       1  LIG1        0.0624
     28 C          12.5792    2.1714    0.0022 C.ar    1  LIG1       -0.0540
     29 C          13.9713    2.1409    0.0025 C.ar    1  LIG1       -0.0612
     30 C          11.8155    0.9882    0.0017 C.ar    1  LIG1       -0.0179
     31 C          14.6517    0.9233    0.0023 C.ar    1  LIG1       -0.0617
     32 H          14.5250    3.0753    0.0028 H       1  LIG1        0.0618
     33 C          12.5243   -0.2287    0.0015 C.ar    1  LIG1       -0.0540
     34 C          13.9165   -0.2619    0.0018 C.ar    1  LIG1       -0.0612
     35 H          11.9926   -1.1728    0.0011 H       1  LIG1        0.0624
     36 H          15.7372    0.8985    0.0025 H       1  LIG1        0.0618
     37 H          12.0911    3.1389    0.0024 H       1  LIG1        0.0624
     38 H          14.4269   -1.2206    0.0017 H       1  LIG1        0.0618
@<TRIPOS>BOND
     1     8     6    1
     2    11     7    1
     3     6     7   ar
     4     6     3   ar
     5     7     4   ar
     6     9     3    1
     7     3     1   ar
     8    13    16   ar
     9    13    12   ar
    10     4    12    1
    11     4     2   ar
    12    25    23    1
    13     1     2   ar
    14     1    10    1
    15    16    14   ar
    16    12    15   ar
    17    27    24    1
    18     2     5    1
    19    23    24   ar
    20    23    20   ar
    21    14    20    1
    22    14    17   ar
    23    15    17   ar
    24    24    21   ar
    25    20    18   ar
    26    35    33    1
    27    21    30    1
    28    21    19   ar
    29    33    30   ar
    30    33    34   ar
    31    18    19   ar
    32    18    26    1
    33    38    34    1
    34    30    28   ar
    35    34    31   ar
    36    19    22    1
    37    28    37    1
    38    28    29   ar
    39    31    29   ar
    40    31    36    1
    41    29    32    1
