@<TRIPOS>MOLECULE
mol_data/opt/b3lyp/geoms/mol2/48-5.out
 25 27 0 0 0
SMALL
GASTEIGER

@<TRIPOS>ATOM
      1 C          -0.0627    0.0660    0.0004 C.ar    1  LIG1       -0.0611
      2 C           1.3284    0.0150    0.0002 C.ar    1  LIG1       -0.0509
      3 C          -0.7216    1.2977    0.0003 C.ar    1  LIG1       -0.0617
      4 C           2.0773    1.2037   -0.0002 C.ar    1  LIG1        0.0226
      5 H           1.8481   -0.9359    0.0002 H       1  LIG1        0.0625
      6 C           0.0186    2.4824   -0.0001 C.ar    1  LIG1       -0.0611
      7 C           1.4099    2.4401   -0.0003 C.ar    1  LIG1       -0.0509
      8 H          -0.4898    3.4418   -0.0001 H       1  LIG1        0.0618
      9 H          -1.8071    1.3342    0.0005 H       1  LIG1        0.0618
     10 H          -0.6345   -0.8571    0.0007 H       1  LIG1        0.0618
     11 H           1.9924    3.3543   -0.0005 H       1  LIG1        0.0625
     12 C           3.5511    1.1545   -0.0004 C.ar    1  LIG1        0.2034
     13 N           4.2305    2.3219   -0.0005 N.ar    1  LIG1       -0.1252
     14 C           6.1354    1.0644   -0.0009 C.ar    1  LIG1        0.2099
     15 N           4.1507   -0.0578   -0.0006 N.ar    1  LIG1       -0.1252
     16 N           5.5412    2.2781   -0.0008 N.ar    1  LIG1       -0.1247
     17 N           5.4608   -0.1090   -0.0008 N.ar    1  LIG1       -0.1247
     18 C           7.5840    1.0167   -0.0012 C.ar    1  LIG1        0.0598
     19 C           8.3899   -0.1021   -0.0015 C.ar    1  LIG1       -0.0438
     20 C           9.7729    0.2161   -0.0016 C.ar    1  LIG1       -0.0540
     21 C          10.0002    1.5693   -0.0015 C.ar    1  LIG1       -0.0236
     22 S           8.5334    2.4849   -0.0011 S.2     1  LIG1       -0.0934
     23 H          10.9520    2.0828   -0.0015 H       1  LIG1        0.0693
     24 H           7.9819   -1.1051   -0.0015 H       1  LIG1        0.0630
     25 H          10.5646   -0.5236   -0.0019 H       1  LIG1        0.0623
@<TRIPOS>BOND
     1    25    20    1
     2    20    21   ar
     3    20    19   ar
     4    23    21    1
     5    24    19    1
     6    21    22   ar
     7    19    18   ar
     8    18    22   ar
     9    18    14    1
    10    14    17   ar
    11    14    16   ar
    12    17    15   ar
    13    16    13   ar
    14    15    12   ar
    15    11     7    1
    16    13    12   ar
    17    12     4    1
    18     7     4   ar
    19     7     6   ar
    20     4     2   ar
    21     8     6    1
    22     6     3   ar
    23     2     5    1
    24     2     1   ar
    25     3     1   ar
    26     3     9    1
    27     1    10    1
