@<TRIPOS>MOLECULE
mol_data/opt/b3lyp/geoms/mol2/48-5-8-.out
 31 34 0 0 0
SMALL
GASTEIGER

@<TRIPOS>ATOM
      1 C          -0.0916    0.0649    0.0003 C.ar    1  LIG1       -0.0611
      2 C           1.2997    0.0314    0.0001 C.ar    1  LIG1       -0.0509
      3 C          -0.7656    1.2886    0.0001 C.ar    1  LIG1       -0.0617
      4 C           2.0330    1.2302   -0.0002 C.ar    1  LIG1        0.0226
      5 H           1.8314   -0.9128    0.0003 H       1  LIG1        0.0625
      6 C          -0.0411    2.4830   -0.0002 C.ar    1  LIG1       -0.0611
      7 C           1.3505    2.4588   -0.0003 C.ar    1  LIG1       -0.0509
      8 H          -0.5620    3.4356   -0.0004 H       1  LIG1        0.0618
      9 H          -1.8515    1.3114    0.0001 H       1  LIG1        0.0618
     10 H          -0.6519   -0.8653    0.0005 H       1  LIG1        0.0618
     11 H           1.9210    3.3804   -0.0006 H       1  LIG1        0.0625
     12 C           3.5055    1.1987   -0.0003 C.ar    1  LIG1        0.2034
     13 N           4.1713    2.3769   -0.0003 N.ar    1  LIG1       -0.1252
     14 C           6.0881    1.1461   -0.0004 C.ar    1  LIG1        0.2099
     15 N           4.1201   -0.0058   -0.0003 N.ar    1  LIG1       -0.1252
     16 N           5.4822    2.3543   -0.0004 N.ar    1  LIG1       -0.1247
     17 N           5.4305   -0.0330   -0.0004 N.ar    1  LIG1       -0.1247
     18 C           7.5401    1.1129   -0.0006 C.ar    1  LIG1        0.0605
     19 C           8.3979    2.1973   -0.0005 C.ar    1  LIG1       -0.0431
     20 C           9.7550    1.8142   -0.0007 C.ar    1  LIG1       -0.0431
     21 C           9.9197    0.4414   -0.0008 C.ar    1  LIG1        0.0605
     22 S           8.3956   -0.4056   -0.0007 S.2     1  LIG1       -0.0818
     23 H           8.0396    3.2185   -0.0004 H       1  LIG1        0.0630
     24 H          10.5942    2.4978   -0.0007 H       1  LIG1        0.0630
     25 C          11.1753   -0.2874   -0.0009 C.ar    1  LIG1        0.2099
     26 N          12.3207    0.4337   -0.0011 N.ar    1  LIG1       -0.1253
     27 C          13.3819   -1.5736   -0.0013 C.ar    1  LIG1        0.1605
     28 N          11.1165   -1.6381   -0.0009 N.ar    1  LIG1       -0.1253
     29 N          13.4561   -0.2347   -0.0012 N.ar    1  LIG1       -0.1339
     30 N          12.2561   -2.2994   -0.0010 N.ar    1  LIG1       -0.1339
     31 H          14.3199   -2.1185   -0.0011 H       1  LIG1        0.1085
@<TRIPOS>BOND
     1    27    29   ar
     2    27    31    1
     3    27    30   ar
     4    29    26   ar
     5    26    25   ar
     6    30    28   ar
     7    25    28   ar
     8    25    21    1
     9    21    22   ar
    10    21    20   ar
    11    22    18   ar
    12    24    20    1
    13    20    19   ar
    14    11     7    1
    15    18    19   ar
    16    18    14    1
    17    19    23    1
    18    14    17   ar
    19    14    16   ar
    20    17    15   ar
    21     8     6    1
    22    16    13   ar
    23    15    12   ar
    24     7     6   ar
    25     7     4   ar
    26    13    12   ar
    27    12     4    1
    28     6     3   ar
    29     4     2   ar
    30     3     9    1
    31     3     1   ar
    32     2     1   ar
    33     2     5    1
    34     1    10    1
