@<TRIPOS>MOLECULE
mol_data/opt/b3lyp/geoms/mol2/48-513.out
 33 36 0 0 0
SMALL
GASTEIGER

@<TRIPOS>ATOM
      1 C          -0.1405    0.0499   -0.0002 C.ar    1  LIG1       -0.0611
      2 C           1.2506   -0.0037   -0.0003 C.ar    1  LIG1       -0.0509
      3 C          -0.7980    1.2823   -0.0000 C.ar    1  LIG1       -0.0617
      4 C           2.0022    1.1835   -0.0002 C.ar    1  LIG1        0.0226
      5 H           1.7686   -0.9556   -0.0004 H       1  LIG1        0.0625
      6 C          -0.0554    2.4654    0.0000 C.ar    1  LIG1       -0.0611
      7 C           1.3359    2.4205   -0.0001 C.ar    1  LIG1       -0.0509
      8 H          -0.5618    3.4260    0.0001 H       1  LIG1        0.0618
      9 H          -1.8834    1.3204    0.0001 H       1  LIG1        0.0618
     10 H          -0.7135   -0.8726   -0.0002 H       1  LIG1        0.0618
     11 H           1.9201    3.3333   -0.0000 H       1  LIG1        0.0625
     12 C           3.4759    1.1326   -0.0003 C.ar    1  LIG1        0.2034
     13 N           4.1570    2.2988   -0.0000 N.ar    1  LIG1       -0.1252
     14 C           6.0619    1.0384   -0.0006 C.ar    1  LIG1        0.2099
     15 N           4.0748   -0.0812   -0.0007 N.ar    1  LIG1       -0.1252
     16 N           5.4669    2.2550   -0.0002 N.ar    1  LIG1       -0.1247
     17 N           5.3831   -0.1363   -0.0008 N.ar    1  LIG1       -0.1247
     18 C           7.5023    0.9917   -0.0007 C.ar    1  LIG1        0.0604
     19 C           8.3241   -0.1179   -0.0012 C.ar    1  LIG1       -0.0432
     20 C           9.6970    0.2006   -0.0013 C.ar    1  LIG1       -0.0448
     21 C           9.9468    1.5652   -0.0008 C.ar    1  LIG1        0.0361
     22 S           8.4455    2.4688   -0.0003 S.2     1  LIG1       -0.0836
     23 H           7.9243   -1.1244   -0.0016 H       1  LIG1        0.0630
     24 H          10.4861   -0.5413   -0.0017 H       1  LIG1        0.0630
     25 C          11.2285    2.2248   -0.0008 C.ar    1  LIG1        0.0531
     26 C          12.5158    1.6901   -0.0005 C.ar    1  LIG1       -0.0359
     27 C          13.4344    2.7650   -0.0009 C.ar    1  LIG1       -0.0438
     28 C          12.6997    3.9361   -0.0006 C.ar    1  LIG1        0.0022
     29 N          11.3726    3.6008   -0.0010 N.ar    1  LIG1       -0.3603
     30 H          10.6121    4.2624   -0.0014 H       1  LIG1        0.1653
     31 H          13.0139    4.9689   -0.0006 H       1  LIG1        0.0807
     32 H          12.7545    0.6364   -0.0002 H       1  LIG1        0.0639
     33 H          14.5125    2.6951   -0.0010 H       1  LIG1        0.0633
@<TRIPOS>BOND
     1    24    20    1
     2    23    19    1
     3    30    29    1
     4    20    19   ar
     5    20    21   ar
     6    19    18   ar
     7    33    27    1
     8    29    25   ar
     9    29    28   ar
    10    27    28   ar
    11    27    26   ar
    12    21    25    1
    13    21    22   ar
    14    17    15   ar
    15    17    14   ar
    16    25    26   ar
    17    18    14    1
    18    18    22   ar
    19    15    12   ar
    20    28    31    1
    21    14    16   ar
    22    26    32    1
    23     5     2    1
    24    12     4    1
    25    12    13   ar
    26     2     4   ar
    27     2     1   ar
    28     4     7   ar
    29    10     1    1
    30    16    13   ar
    31     1     3   ar
    32     7    11    1
    33     7     6   ar
    34     3     6   ar
    35     3     9    1
    36     6     8    1
