@<TRIPOS>MOLECULE
mol_data/opt/b3lyp/geoms/mol2/48-88.out
 30 33 0 0 0
SMALL
GASTEIGER

@<TRIPOS>ATOM
      1 C          -0.0720    0.0567    0.0004 C.ar    1  LIG1       -0.0611
      2 C           1.3186    0.0144    0.0002 C.ar    1  LIG1       -0.0509
      3 C          -0.7375    1.2854    0.0001 C.ar    1  LIG1       -0.0617
      4 C           2.0577    1.2106   -0.0002 C.ar    1  LIG1        0.0226
      5 H           1.8452   -0.9327    0.0004 H       1  LIG1        0.0625
      6 C          -0.0072    2.4767   -0.0003 C.ar    1  LIG1       -0.0611
      7 C           1.3836    2.4446   -0.0004 C.ar    1  LIG1       -0.0509
      8 H          -0.5234    3.4317   -0.0005 H       1  LIG1        0.0618
      9 H          -1.8232    1.3144    0.0002 H       1  LIG1        0.0618
     10 H          -0.6386   -0.8690    0.0007 H       1  LIG1        0.0618
     11 H           1.9602    3.3622   -0.0007 H       1  LIG1        0.0625
     12 C           3.5273    1.1714   -0.0003 C.ar    1  LIG1        0.2034
     13 N           4.1991    2.3466   -0.0005 N.ar    1  LIG1       -0.1251
     14 C           6.1002    1.1027   -0.0006 C.ar    1  LIG1        0.2435
     15 N           4.1355   -0.0381   -0.0003 N.ar    1  LIG1       -0.1251
     16 N           5.5111    2.3119   -0.0007 N.ar    1  LIG1       -0.1218
     17 N           5.4475   -0.0734   -0.0004 N.ar    1  LIG1       -0.1218
     18 C           7.5864    1.0631   -0.0008 C.ar    1  LIG1        0.2435
     19 N           8.1759   -0.1477   -0.0008 N.ar    1  LIG1       -0.1217
     20 C          10.1422    0.9949   -0.0011 C.ar    1  LIG1        0.2435
     21 N           8.2396    2.2407   -0.0009 N.ar    1  LIG1       -0.1217
     22 N           9.4916   -0.1818   -0.0010 N.ar    1  LIG1       -0.1217
     23 N           9.5552    2.2047   -0.0011 N.ar    1  LIG1       -0.1217
     24 C          11.6337    0.9552   -0.0012 C.ar    1  LIG1        0.2434
     25 N          12.2162   -0.2569   -0.0013 N.ar    1  LIG1       -0.1224
     26 C          14.1752    0.8874   -0.0012 C.ar    1  LIG1        0.1605
     27 N          12.2800    2.1345   -0.0012 N.ar    1  LIG1       -0.1224
     28 N          13.5369   -0.2902   -0.0014 N.ar    1  LIG1       -0.1338
     29 N          13.6006    2.0973   -0.0013 N.ar    1  LIG1       -0.1338
     30 H          15.2602    0.8584   -0.0017 H       1  LIG1        0.1085
@<TRIPOS>BOND
     1    30    26    1
     2    28    25   ar
     3    28    26   ar
     4    29    26   ar
     5    29    27   ar
     6    25    24   ar
     7    24    27   ar
     8    24    20    1
     9    23    20   ar
    10    23    21   ar
    11    20    22   ar
    12    22    19   ar
    13    21    18   ar
    14    19    18   ar
    15    18    14    1
    16    11     7    1
    17    16    14   ar
    18    16    13   ar
    19    14    17   ar
    20    13    12   ar
    21     8     6    1
    22     7     6   ar
    23     7     4   ar
    24    17    15   ar
    25    12    15   ar
    26    12     4    1
    27     6     3   ar
    28     4     2   ar
    29     3     9    1
    30     3     1   ar
    31     2     1   ar
    32     2     5    1
    33     1    10    1
