@<TRIPOS>MOLECULE
mol_data/opt/b3lyp/geoms/mol2/4813-.out
 26 28 0 0 0
SMALL
GASTEIGER

@<TRIPOS>ATOM
      1 C          -0.0403    0.0423    0.0005 C.ar    1  LIG1       -0.0611
      2 C           1.3515    0.0119    0.0002 C.ar    1  LIG1       -0.0509
      3 C          -0.7179    1.2637    0.0003 C.ar    1  LIG1       -0.0617
      4 C           2.0837    1.2109   -0.0002 C.ar    1  LIG1        0.0226
      5 H           1.8846   -0.9317    0.0003 H       1  LIG1        0.0625
      6 C           0.0052    2.4586   -0.0001 C.ar    1  LIG1       -0.0611
      7 C           1.3972    2.4367   -0.0003 C.ar    1  LIG1       -0.0509
      8 H          -0.5169    3.4108   -0.0002 H       1  LIG1        0.0618
      9 H          -1.8039    1.2841    0.0005 H       1  LIG1        0.0618
     10 H          -0.5981   -0.8895    0.0008 H       1  LIG1        0.0618
     11 H           1.9660    3.3592   -0.0006 H       1  LIG1        0.0625
     12 C           3.5586    1.1836   -0.0005 C.ar    1  LIG1        0.2034
     13 N           4.1773   -0.0160   -0.0006 N.ar    1  LIG1       -0.1252
     14 C           6.1449    1.1475   -0.0010 C.ar    1  LIG1        0.2194
     15 N           4.2195    2.3655   -0.0006 N.ar    1  LIG1       -0.1252
     16 N           5.4894   -0.0377   -0.0008 N.ar    1  LIG1       -0.1237
     17 N           5.5289    2.3552   -0.0009 N.ar    1  LIG1       -0.1237
     18 C           7.5840    1.1059   -0.0012 C.ar    1  LIG1        0.0875
     19 C           8.5415    2.1164   -0.0011 C.ar    1  LIG1       -0.0333
     20 C           9.8084    1.4933   -0.0017 C.ar    1  LIG1       -0.0437
     21 C           9.5972    0.1213   -0.0013 C.ar    1  LIG1        0.0023
     22 N           8.2534   -0.1004   -0.0013 N.ar    1  LIG1       -0.3582
     23 H           7.7750   -0.9891   -0.0012 H       1  LIG1        0.1654
     24 H          10.3005   -0.6981   -0.0014 H       1  LIG1        0.0807
     25 H           8.3244    3.1740   -0.0010 H       1  LIG1        0.0640
     26 H          10.7717    1.9826   -0.0020 H       1  LIG1        0.0633
@<TRIPOS>BOND
     1    26    20    1
     2    20    21   ar
     3    20    19   ar
     4    24    21    1
     5    22    21   ar
     6    22    23    1
     7    22    18   ar
     8    18    19   ar
     9    18    14    1
    10    19    25    1
    11    14    17   ar
    12    14    16   ar
    13    17    15   ar
    14    16    13   ar
    15    11     7    1
    16    15    12   ar
    17    13    12   ar
    18    12     4    1
    19     7     4   ar
    20     7     6   ar
    21     8     6    1
    22     4     2   ar
    23     6     3   ar
    24     2     5    1
    25     2     1   ar
    26     3     1   ar
    27     3     9    1
    28     1    10    1
