@<TRIPOS>MOLECULE
mol_data/opt/b3lyp/geoms/mol2/4813-12-.out
 33 36 0 0 0
SMALL
GASTEIGER

@<TRIPOS>ATOM
      1 C          -0.0714    0.0552    0.0004 C.ar    1  LIG1       -0.0611
      2 C           1.3203    0.0275    0.0001 C.ar    1  LIG1       -0.0509
      3 C          -0.7517    1.2752    0.0005 C.ar    1  LIG1       -0.0617
      4 C           2.0504    1.2280   -0.0001 C.ar    1  LIG1        0.0226
      5 H           1.8555   -0.9149    0.0001 H       1  LIG1        0.0625
      6 C          -0.0309    2.4716    0.0002 C.ar    1  LIG1       -0.0611
      7 C           1.3612    2.4524   -0.0001 C.ar    1  LIG1       -0.0509
      8 H          -0.5548    3.4228    0.0002 H       1  LIG1        0.0618
      9 H          -1.8376    1.2934    0.0007 H       1  LIG1        0.0618
     10 H          -0.6274   -0.8777    0.0006 H       1  LIG1        0.0618
     11 H           1.9281    3.3760   -0.0003 H       1  LIG1        0.0625
     12 C           3.5248    1.2031   -0.0005 C.ar    1  LIG1        0.2034
     13 N           4.1455    0.0042   -0.0008 N.ar    1  LIG1       -0.1252
     14 C           6.1106    1.1705   -0.0011 C.ar    1  LIG1        0.2194
     15 N           4.1840    2.3868   -0.0005 N.ar    1  LIG1       -0.1252
     16 N           5.4571   -0.0170   -0.0011 N.ar    1  LIG1       -0.1237
     17 N           5.4926    2.3783   -0.0008 N.ar    1  LIG1       -0.1237
     18 C           7.5472    1.1333   -0.0014 C.ar    1  LIG1        0.0880
     19 C           8.4997    2.1531   -0.0013 C.ar    1  LIG1       -0.0325
     20 C           9.7667    1.5466   -0.0018 C.ar    1  LIG1       -0.0327
     21 C           9.5726    0.1596   -0.0020 C.ar    1  LIG1        0.0826
     22 N           8.2243   -0.0659   -0.0017 N.ar    1  LIG1       -0.3492
     23 H           7.7708   -0.9681   -0.0017 H       1  LIG1        0.1661
     24 H           8.2740    3.2088   -0.0010 H       1  LIG1        0.0640
     25 H          10.7252    2.0451   -0.0020 H       1  LIG1        0.0640
     26 C          10.5195   -0.9239   -0.0024 C.ar    1  LIG1        0.1509
     27 C          11.8895   -0.9919   -0.0025 C.ar    1  LIG1       -0.0144
     28 C          12.2265   -2.3807   -0.0029 C.ar    1  LIG1       -0.0233
     29 C          11.0483   -3.0630   -0.0031 C.ar    1  LIG1        0.0926
     30 O           9.9958   -2.1932   -0.0027 O.2     1  LIG1       -0.4615
     31 H          10.7919   -4.1103   -0.0034 H       1  LIG1        0.1029
     32 H          12.5700   -0.1533   -0.0023 H       1  LIG1        0.0656
     33 H          13.2171   -2.8117   -0.0030 H       1  LIG1        0.0649
@<TRIPOS>BOND
     1    31    29    1
     2    29    28   ar
     3    29    30   ar
     4    33    28    1
     5    28    27   ar
     6    30    26   ar
     7    27    26   ar
     8    27    32    1
     9    26    21    1
    10    25    20    1
    11    21    20   ar
    12    21    22   ar
    13    20    19   ar
    14    22    23    1
    15    22    18   ar
    16    18    19   ar
    17    18    14    1
    18    19    24    1
    19    14    16   ar
    20    14    17   ar
    21    16    13   ar
    22    17    15   ar
    23    13    12   ar
    24    12    15   ar
    25    12     4    1
    26    11     7    1
    27     4     7   ar
    28     4     2   ar
    29     7     6   ar
    30     5     2    1
    31     2     1   ar
    32     6     8    1
    33     6     3   ar
    34     1     3   ar
    35     1    10    1
    36     3     9    1
