@<TRIPOS>MOLECULE
mol_data/opt/b3lyp/geoms/mol2/485-.out
 25 27 0 0 0
SMALL
GASTEIGER

@<TRIPOS>ATOM
      1 C          -0.0440    0.0453    0.0003 C.ar    1  LIG1       -0.0611
      2 C           1.3477    0.0155    0.0001 C.ar    1  LIG1       -0.0509
      3 C          -0.7218    1.2667    0.0000 C.ar    1  LIG1       -0.0617
      4 C           2.0782    1.2157   -0.0002 C.ar    1  LIG1        0.0226
      5 H           1.8819   -0.9275    0.0003 H       1  LIG1        0.0625
      6 C          -0.0001    2.4626   -0.0003 C.ar    1  LIG1       -0.0611
      7 C           1.3918    2.4416   -0.0004 C.ar    1  LIG1       -0.0509
      8 H          -0.5231    3.4142   -0.0005 H       1  LIG1        0.0618
      9 H          -1.8078    1.2863    0.0001 H       1  LIG1        0.0618
     10 H          -0.6016   -0.8865    0.0005 H       1  LIG1        0.0618
     11 H           1.9602    3.3645   -0.0006 H       1  LIG1        0.0625
     12 C           3.5526    1.1887   -0.0003 C.ar    1  LIG1        0.2034
     13 N           4.1709   -0.0122   -0.0003 N.ar    1  LIG1       -0.1252
     14 C           6.1380    1.1456   -0.0005 C.ar    1  LIG1        0.2099
     15 N           4.2138    2.3685   -0.0004 N.ar    1  LIG1       -0.1252
     16 N           5.4821   -0.0360   -0.0004 N.ar    1  LIG1       -0.1247
     17 N           5.5248    2.3522   -0.0004 N.ar    1  LIG1       -0.1247
     18 C           7.5872    1.1186   -0.0005 C.ar    1  LIG1        0.0598
     19 C           8.4497    2.1944   -0.0006 C.ar    1  LIG1       -0.0438
     20 C           9.8144    1.8053   -0.0006 C.ar    1  LIG1       -0.0540
     21 C           9.9717    0.4422   -0.0007 C.ar    1  LIG1       -0.0236
     22 S           8.4597   -0.3966   -0.0006 S.2     1  LIG1       -0.0934
     23 H          10.8958   -0.1197   -0.0008 H       1  LIG1        0.0693
     24 H           8.0939    3.2170   -0.0005 H       1  LIG1        0.0630
     25 H          10.6432    2.5032   -0.0007 H       1  LIG1        0.0623
@<TRIPOS>BOND
     1    23    21    1
     2    21    20   ar
     3    21    22   ar
     4    25    20    1
     5    20    19   ar
     6    11     7    1
     7    22    18   ar
     8    19    18   ar
     9    19    24    1
    10    18    14    1
    11     8     6    1
    12    14    17   ar
    13    14    16   ar
    14    17    15   ar
    15    16    13   ar
    16     7     6   ar
    17     7     4   ar
    18    15    12   ar
    19    13    12   ar
    20    12     4    1
    21     6     3   ar
    22     4     2   ar
    23     3     9    1
    24     3     1   ar
    25     2     1   ar
    26     2     5    1
    27     1    10    1
