@<TRIPOS>MOLECULE
mol_data/opt/b3lyp/geoms/mol2/488-12-.out
 31 34 0 0 0
SMALL
GASTEIGER

@<TRIPOS>ATOM
      1 C          -0.0856    0.0958    0.0004 C.ar    1  LIG1       -0.0611
      2 C           1.3047    0.0352    0.0002 C.ar    1  LIG1       -0.0509
      3 C          -0.7352    1.3327    0.0001 C.ar    1  LIG1       -0.0617
      4 C           2.0600    1.2205   -0.0002 C.ar    1  LIG1        0.0226
      5 H           1.8190   -0.9186    0.0004 H       1  LIG1        0.0625
      6 C           0.0114    2.5135   -0.0003 C.ar    1  LIG1       -0.0611
      7 C           1.4020    2.4626   -0.0004 C.ar    1  LIG1       -0.0509
      8 H          -0.4917    3.4757   -0.0005 H       1  LIG1        0.0618
      9 H          -1.8206    1.3761    0.0002 H       1  LIG1        0.0618
     10 H          -0.6643   -0.8230    0.0007 H       1  LIG1        0.0618
     11 H           1.9912    3.3724   -0.0007 H       1  LIG1        0.0625
     12 C           3.5312    1.1617   -0.0004 C.ar    1  LIG1        0.2034
     13 N           4.1223   -0.0546   -0.0004 N.ar    1  LIG1       -0.1251
     14 C           6.1054    1.0583   -0.0006 C.ar    1  LIG1        0.2435
     15 N           4.2177    2.3266   -0.0005 N.ar    1  LIG1       -0.1251
     16 N           5.4342   -0.1089   -0.0005 N.ar    1  LIG1       -0.1218
     17 N           5.5299    2.2753   -0.0007 N.ar    1  LIG1       -0.1218
     18 C           7.5891    0.9989   -0.0008 C.ar    1  LIG1        0.2435
     19 N           8.2590    2.1700   -0.0008 N.ar    1  LIG1       -0.1217
     20 C          10.1511    0.8963   -0.0010 C.ar    1  LIG1        0.2381
     21 N           8.1645   -0.2175   -0.0008 N.ar    1  LIG1       -0.1217
     22 N           9.5682    2.1203   -0.0010 N.ar    1  LIG1       -0.1219
     23 N           9.4779   -0.2770   -0.0009 N.ar    1  LIG1       -0.1219
     24 C          11.5946    0.8775   -0.0011 C.ar    1  LIG1        0.1751
     25 C          12.5182    1.8962   -0.0012 C.ar    1  LIG1       -0.0126
     26 C          13.7968    1.2743   -0.0014 C.ar    1  LIG1       -0.0232
     27 C          13.5606   -0.0730   -0.0013 C.ar    1  LIG1        0.0927
     28 O          12.2324   -0.3321   -0.0011 O.2     1  LIG1       -0.4597
     29 H          14.2072   -0.9368   -0.0014 H       1  LIG1        0.1029
     30 H          12.2867    2.9505   -0.0012 H       1  LIG1        0.0656
     31 H          14.7627    1.7574   -0.0015 H       1  LIG1        0.0649
@<TRIPOS>BOND
     1    31    26    1
     2    29    27    1
     3    26    27   ar
     4    26    25   ar
     5    27    28   ar
     6    30    25    1
     7    25    24   ar
     8    24    28   ar
     9    24    20    1
    10    20    22   ar
    11    20    23   ar
    12    22    19   ar
    13    23    21   ar
    14    19    18   ar
    15    21    18   ar
    16    18    14    1
    17    11     7    1
    18    17    14   ar
    19    17    15   ar
    20    14    16   ar
    21    15    12   ar
    22     8     6    1
    23    16    13   ar
    24     7     6   ar
    25     7     4   ar
    26    12    13   ar
    27    12     4    1
    28     6     3   ar
    29     4     2   ar
    30     3     9    1
    31     3     1   ar
    32     2     1   ar
    33     2     5    1
    34     1    10    1
