@<TRIPOS>MOLECULE
mol_data/opt/b3lyp/geoms/mol2/488.out
 24 26 0 0 0
SMALL
GASTEIGER

@<TRIPOS>ATOM
      1 C          -0.0371    0.0536    0.0004 C.ar    1  LIG1       -0.0611
      2 C           1.3536    0.0127    0.0002 C.ar    1  LIG1       -0.0509
      3 C          -0.7040    1.2814    0.0002 C.ar    1  LIG1       -0.0617
      4 C           2.0917    1.2093   -0.0002 C.ar    1  LIG1        0.0226
      5 H           1.8812   -0.9338    0.0004 H       1  LIG1        0.0625
      6 C           0.0252    2.4732   -0.0002 C.ar    1  LIG1       -0.0611
      7 C           1.4163    2.4423   -0.0004 C.ar    1  LIG1       -0.0509
      8 H          -0.4918    3.4278   -0.0004 H       1  LIG1        0.0618
      9 H          -1.7896    1.3093    0.0003 H       1  LIG1        0.0618
     10 H          -0.6027   -0.8729    0.0007 H       1  LIG1        0.0618
     11 H           1.9920    3.3605   -0.0007 H       1  LIG1        0.0625
     12 C           3.5622    1.1715   -0.0004 C.ar    1  LIG1        0.2034
     13 N           4.1713   -0.0367   -0.0004 N.ar    1  LIG1       -0.1251
     14 C           6.1356    1.1055   -0.0007 C.ar    1  LIG1        0.2435
     15 N           4.2324    2.3469   -0.0006 N.ar    1  LIG1       -0.1251
     16 N           5.4839   -0.0707   -0.0005 N.ar    1  LIG1       -0.1218
     17 N           5.5450    2.3135   -0.0008 N.ar    1  LIG1       -0.1218
     18 C           7.6251    1.0673   -0.0009 C.ar    1  LIG1        0.2434
     19 N           8.2111   -0.1443   -0.0009 N.ar    1  LIG1       -0.1224
     20 C          10.1691    1.0020   -0.0011 C.ar    1  LIG1        0.1605
     21 N           8.2724    2.2472   -0.0009 N.ar    1  LIG1       -0.1224
     22 N           9.5318   -0.1758   -0.0011 N.ar    1  LIG1       -0.1338
     23 N           9.5930    2.2110   -0.0011 N.ar    1  LIG1       -0.1338
     24 H          11.2544    0.9742   -0.0014 H       1  LIG1        0.1085
@<TRIPOS>BOND
     1    24    20    1
     2    23    20   ar
     3    23    21   ar
     4    22    20   ar
     5    22    19   ar
     6    21    18   ar
     7    19    18   ar
     8    18    14    1
     9    17    14   ar
    10    17    15   ar
    11    11     7    1
    12    14    16   ar
    13    15    12   ar
    14    16    13   ar
    15     8     6    1
    16     7     6   ar
    17     7     4   ar
    18    12    13   ar
    19    12     4    1
    20     6     3   ar
    21     4     2   ar
    22     3     9    1
    23     3     1   ar
    24     2     5    1
    25     2     1   ar
    26     1    10    1
