@<TRIPOS>MOLECULE
mol_data/opt/b3lyp/geoms/mol2/4aa.out
 12 12 0 0 0
SMALL
GASTEIGER

@<TRIPOS>ATOM
      1 C           0.0705    0.0486    0.0005 C.ar    1  LIG1       -0.0618
      2 C           1.4665    0.0215    0.0001 C.ar    1  LIG1       -0.0618
      3 C          -0.6041    1.2712    0.0004 C.ar    1  LIG1       -0.0618
      4 C           2.1881    1.2168   -0.0004 C.ar    1  LIG1       -0.0618
      5 H           1.9911   -0.9298    0.0002 H       1  LIG1        0.0618
      6 C           0.1176    2.4666   -0.0002 C.ar    1  LIG1       -0.0618
      7 C           1.5135    2.4395   -0.0006 C.ar    1  LIG1       -0.0618
      8 H          -0.4072    3.4179   -0.0003 H       1  LIG1        0.0618
      9 H           3.2742    1.1958   -0.0008 H       1  LIG1        0.0618
     10 H          -1.6902    1.2925    0.0007 H       1  LIG1        0.0618
     11 H          -0.4910   -0.8817    0.0009 H       1  LIG1        0.0618
     12 H           2.0748    3.3697   -0.0010 H       1  LIG1        0.0618
@<TRIPOS>BOND
     1    12     7    1
     2     9     4    1
     3     7     4   ar
     4     7     6   ar
     5     4     2   ar
     6     8     6    1
     7     6     3   ar
     8     2     5    1
     9     2     1   ar
    10     3     1   ar
    11     3    10    1
    12     1    11    1
