@<TRIPOS>MOLECULE
mol_data/opt/b3lyp/geoms/mol2/4aa12ha4dh-4ee.out
 48 51 0 0 0
SMALL
GASTEIGER

@<TRIPOS>ATOM
      1 C          -0.1905   -0.0445   -0.0937 C.ar    1  LIG1       -0.0611
      2 C           1.1401    0.0311    0.3120 C.ar    1  LIG1       -0.0510
      3 C          -0.7033    0.8683   -1.0167 C.ar    1  LIG1       -0.0617
      4 C           1.9946    1.0237   -0.2108 C.ar    1  LIG1        0.0191
      5 H           1.5085   -0.6506    1.0713 H       1  LIG1        0.0625
      6 C           0.1302    1.8671   -1.5275 C.ar    1  LIG1       -0.0611
      7 C           1.4620    1.9464   -1.1339 C.ar    1  LIG1       -0.0510
      8 H          -0.2598    2.5859   -2.2427 H       1  LIG1        0.0618
      9 H          -1.7409    0.8069   -1.3304 H       1  LIG1        0.0618
     10 H          -0.8332   -0.8132    0.3257 H       1  LIG1        0.0618
     11 H           2.1065    2.7169   -1.5426 H       1  LIG1        0.0625
     12 C           3.3865    1.0969    0.1938 C.ar    1  LIG1        0.1562
     13 C           4.2720    0.1849    0.7431 C.ar    1  LIG1        0.0716
     14 C           5.5164    0.8616    0.8913 C.ar    1  LIG1        0.0056
     15 C           5.3387    2.1415    0.4203 C.ar    1  LIG1        0.1388
     16 O           4.0490    2.2863   -0.0110 O.2     1  LIG1       -0.4529
     17 N           4.0164   -1.1370    1.1174 N.pl3   1  LIG1       -0.3550
     18 H           3.3561   -1.6091    0.5110 H       1  LIG1        0.1424
     19 H           4.8618   -1.6866    1.2091 H       1  LIG1        0.1424
     20 H           6.4250    0.4440    1.2960 H       1  LIG1        0.0674
     21 C           7.5805    3.3085    0.5982 C.ar    1  LIG1        0.0631
     22 C           8.3218    4.4914    0.4620 C.ar    1  LIG1       -0.0341
     23 C           6.1870    3.3185    0.3073 C.ar    1  LIG1        0.0364
     24 C           7.7544    5.6946    0.0522 C.ar    1  LIG1        0.0052
     25 H           9.3814    4.4621    0.6891 H       1  LIG1        0.0637
     26 C           5.6210    4.5265   -0.1128 C.ar    1  LIG1       -0.0285
     27 C           6.3651    5.7075   -0.2476 C.ar    1  LIG1        0.0331
     28 H           4.5606    4.5500   -0.3376 H       1  LIG1        0.0643
     29 N           8.8724    1.1933    1.3583 N.1     1  LIG1       -0.1908
     30 C           8.2800    2.1372    1.0168 C.1     1  LIG1        0.0999
     31 N           5.7258    6.8704   -0.6358 N.pl3   1  LIG1       -0.3575
     32 H           6.3035    7.6041   -1.0194 H       1  LIG1        0.1423
     33 H           4.8374    6.7589   -1.1016 H       1  LIG1        0.1423
     34 C           9.7542    6.9744   -0.8616 C.ar    1  LIG1        0.0325
     35 C          10.5260    8.1529   -0.8890 C.ar    1  LIG1       -0.0446
     36 C           8.5894    6.9246   -0.0493 C.ar    1  LIG1        0.0004
     37 C          10.1661    9.2677   -0.1481 C.ar    1  LIG1       -0.0451
     38 H          11.4137    8.1775   -1.5120 H       1  LIG1        0.0630
     39 C           8.2407    8.0612    0.6897 C.ar    1  LIG1       -0.0374
     40 C           9.0099    9.2370    0.6537 C.ar    1  LIG1        0.0253
     41 H           7.3576    8.0316    1.3186 H       1  LIG1        0.0636
     42 H          10.7702   10.1678   -0.1818 H       1  LIG1        0.0630
     43 C          10.1614    5.8708   -1.6726 C.1     1  LIG1       -0.0691
     44 C          10.5411    4.9651   -2.3802 C.1     1  LIG1       -0.1139
     45 H          10.8625    4.1538   -2.9917 H       1  LIG1        0.1232
     46 C           8.6259   10.3761    1.4248 C.1     1  LIG1       -0.0696
     47 C           8.3006   11.3432    2.0755 C.1     1  LIG1       -0.1139
     48 H           8.0148   12.1923    2.6524 H       1  LIG1        0.1232
@<TRIPOS>BOND
     1    45    44    1
     2    44    43    3
     3     8     6    1
     4    43    34    1
     5    11     7    1
     6     6     7   ar
     7     6     3   ar
     8    38    35    1
     9     9     3    1
    10     7     4   ar
    11    33    31    1
    12    32    31    1
    13     3     1   ar
    14    35    34   ar
    15    35    37   ar
    16    34    36   ar
    17    31    27    1
    18    28    26    1
    19    27    26   ar
    20    27    24   ar
    21     4    12    1
    22     4     2   ar
    23    42    37    1
    24    37    40   ar
    25    26    23   ar
    26     1     2   ar
    27     1    10    1
    28    36    24    1
    29    36    39   ar
    30    16    12   ar
    31    16    15   ar
    32    24    22   ar
    33    12    13   ar
    34    23    15    1
    35    23    21   ar
    36     2     5    1
    37    15    14   ar
    38    22    21   ar
    39    22    25    1
    40    18    17    1
    41    21    30    1
    42    40    39   ar
    43    40    46    1
    44    39    41    1
    45    13    14   ar
    46    13    17    1
    47    14    20    1
    48    30    29    3
    49    17    19    1
    50    46    47    3
    51    47    48    1
