@<TRIPOS>MOLECULE
mol_data/opt/b3lyp/geoms/mol2/4aa12fa6ii6ei-.out
 49 52 0 0 0
SMALL
GASTEIGER

@<TRIPOS>ATOM
      1 C           0.0864   -0.4831   -1.0185 C.ar    1  LIG1       -0.0611
      2 C           1.2448   -0.2195   -0.2933 C.ar    1  LIG1       -0.0510
      3 C          -0.3540    0.4024   -2.0046 C.ar    1  LIG1       -0.0617
      4 C           1.9917    0.9495   -0.5443 C.ar    1  LIG1        0.0209
      5 H           1.5780   -0.9135    0.4691 H       1  LIG1        0.0625
      6 C           0.3804    1.5624   -2.2596 C.ar    1  LIG1       -0.0611
      7 C           1.5396    1.8372   -1.5402 C.ar    1  LIG1       -0.0510
      8 H           0.0483    2.2598   -3.0235 H       1  LIG1        0.0618
      9 H          -1.2586    0.1915   -2.5670 H       1  LIG1        0.0618
     10 H          -0.4765   -1.3888   -0.8112 H       1  LIG1        0.0618
     11 H           2.1023    2.7415   -1.7428 H       1  LIG1        0.0625
     12 C           3.2006    1.2338    0.2068 C.ar    1  LIG1        0.1768
     13 C           3.8663    0.6020    1.2383 C.ar    1  LIG1        0.1632
     14 C           5.0085    1.3829    1.5588 C.ar    1  LIG1        0.0265
     15 C           4.9972    2.4622    0.7040 C.ar    1  LIG1        0.1410
     16 O           3.9061    2.3737   -0.1099 O.2     1  LIG1       -0.4510
     17 O           3.4571   -0.5591    1.8236 O.3     1  LIG1       -0.5032
     18 H           4.0816   -0.7956    2.5203 H       1  LIG1        0.2923
     19 H           5.7297    1.1844    2.3390 H       1  LIG1        0.0692
     20 C           5.6162    4.8021   -0.0979 C.ar    1  LIG1        0.0496
     21 C           5.9210    3.5789    0.5532 C.ar    1  LIG1        0.0387
     22 C           7.2134    3.4478    1.0862 C.ar    1  LIG1       -0.0444
     23 C           8.1493    4.4758    1.0282 C.ar    1  LIG1       -0.0237
     24 C           7.7288    5.6640    0.3959 C.ar    1  LIG1        0.0769
     25 N           6.5157    5.7904   -0.1642 N.ar    1  LIG1       -0.2508
     26 H           7.5059    2.5022    1.5343 H       1  LIG1        0.0628
     27 C           4.2910    5.0990   -0.7554 C.3     1  LIG1       -0.0216
     28 H           3.4501    4.8965   -0.0859 H       1  LIG1        0.0293
     29 H           4.1403    4.4813   -1.6469 H       1  LIG1        0.0293
     30 H           4.2798    6.1497   -1.0472 H       1  LIG1        0.0293
     31 C           9.5413    4.2726    1.5734 C.3     1  LIG1       -0.0377
     32 H           9.6572    4.7448    2.5537 H       1  LIG1        0.0278
     33 H          10.2980    4.7088    0.9149 H       1  LIG1        0.0278
     34 H           9.7601    3.2065    1.6819 H       1  LIG1        0.0278
     35 C           9.1476    7.6022    1.2975 C.ar    1  LIG1        0.1223
     36 C           8.6179    6.8518    0.2211 C.ar    1  LIG1        0.0347
     37 C           8.9093    7.2956   -1.0713 C.ar    1  LIG1       -0.0455
     38 C           9.7328    8.4026   -1.2820 C.ar    1  LIG1       -0.0316
     39 C          10.2322    9.0360   -0.1358 C.ar    1  LIG1        0.0319
     40 N           9.9486    8.6703    1.1125 N.ar    1  LIG1       -0.2458
     41 H           8.4796    6.7608   -1.9138 H       1  LIG1        0.0628
     42 H          10.8916    9.8974   -0.2392 H       1  LIG1        0.0832
     43 C           8.8117    7.3033    2.6614 C.1     1  LIG1       -0.0491
     44 C           8.5224    7.0766    3.8139 C.1     1  LIG1       -0.1124
     45 H           8.2630    6.8913    4.8305 H       1  LIG1        0.1232
     46 C          10.0664    8.8977   -2.6656 C.3     1  LIG1       -0.0383
     47 H          10.7632    9.7394   -2.6281 H       1  LIG1        0.0278
     48 H           9.1665    9.2315   -3.1946 H       1  LIG1        0.0278
     49 H          10.5238    8.1089   -3.2729 H       1  LIG1        0.0278
@<TRIPOS>BOND
     1    49    46    1
     2    48    46    1
     3     8     6    1
     4    46    47    1
     5    46    38    1
     6     9     3    1
     7     6     3   ar
     8     6     7   ar
     9     3     1   ar
    10    41    37    1
    11    11     7    1
    12    29    27    1
    13     7     4   ar
    14    38    37   ar
    15    38    39   ar
    16    37    36   ar
    17    30    27    1
    18     1    10    1
    19     1     2   ar
    20    27    20    1
    21    27    28    1
    22     4     2   ar
    23     4    12    1
    24     2     5    1
    25    42    39    1
    26    25    20   ar
    27    25    24   ar
    28    39    40   ar
    29    16    12   ar
    30    16    15   ar
    31    20    21   ar
    32    12    13   ar
    33    36    24    1
    34    36    35   ar
    35    24    23   ar
    36    21    15    1
    37    21    22   ar
    38    15    14   ar
    39    33    31    1
    40    23    22   ar
    41    23    31    1
    42    22    26    1
    43    40    35   ar
    44    13    14   ar
    45    13    17    1
    46    35    43    1
    47    14    19    1
    48    31    34    1
    49    31    32    1
    50    17    18    1
    51    43    44    3
    52    44    45    1
