@<TRIPOS>MOLECULE
mol_data/opt/b3lyp/geoms/mol2/4aa12if6ad-13he-.out
 45 48 0 0 0
SMALL
GASTEIGER

@<TRIPOS>ATOM
      1 C          -0.2527    0.1518    0.0806 C.ar    1  LIG1       -0.0611
      2 C           1.1271    0.0637   -0.0887 C.ar    1  LIG1       -0.0511
      3 C          -0.8411    1.3496    0.4886 C.ar    1  LIG1       -0.0617
      4 C           1.9519    1.1780    0.1564 C.ar    1  LIG1        0.0177
      5 H           1.5603   -0.8683   -0.4304 H       1  LIG1        0.0625
      6 C          -0.0334    2.4644    0.7254 C.ar    1  LIG1       -0.0611
      7 C           1.3458    2.3830    0.5635 C.ar    1  LIG1       -0.0511
      8 H          -0.4801    3.4022    1.0428 H       1  LIG1        0.0618
      9 H          -1.9171    1.4150    0.6183 H       1  LIG1        0.0618
     10 H          -0.8711   -0.7192   -0.1162 H       1  LIG1        0.0618
     11 H           1.9682    3.2492    0.7573 H       1  LIG1        0.0625
     12 C           3.3990    1.1059   -0.0064 C.ar    1  LIG1        0.1422
     13 C           4.3083    0.0718   -0.1076 C.ar    1  LIG1        0.0374
     14 C           5.5843    0.6998   -0.2215 C.ar    1  LIG1        0.1662
     15 C           5.4040    2.0643   -0.1667 C.ar    1  LIG1        0.1786
     16 O           4.0579    2.3092   -0.0515 O.2     1  LIG1       -0.4507
     17 C           4.0970   -1.4124   -0.0885 C.3     1  LIG1       -0.0326
     18 H           5.0519   -1.9187    0.0692 H       1  LIG1        0.0280
     19 H           3.6840   -1.7817   -1.0349 H       1  LIG1        0.0280
     20 H           3.4138   -1.7136    0.7115 H       1  LIG1        0.0280
     21 O           6.7472   -0.0067   -0.3472 O.3     1  LIG1       -0.5030
     22 H           7.3644    0.4868   -0.9039 H       1  LIG1        0.2923
     23 C           5.8293    4.4913   -0.5726 C.ar    1  LIG1        0.0392
     24 C           6.2976    3.1990   -0.2336 C.ar    1  LIG1        0.0403
     25 C           7.6726    3.0964   -0.0040 C.ar    1  LIG1       -0.0300
     26 C           8.4976    4.2272   -0.0912 C.ar    1  LIG1        0.0798
     27 C           7.9170    5.5063   -0.3371 C.ar    1  LIG1        0.1062
     28 N           6.5839    5.5743   -0.6126 N.ar    1  LIG1       -0.2514
     29 H           8.1252    2.1444    0.2522 H       1  LIG1        0.0639
     30 H           4.7785    4.6274   -0.8171 H       1  LIG1        0.0837
     31 N          11.0541    3.8183   -0.0069 N.1     1  LIG1       -0.1908
     32 C           9.9049    4.0148   -0.0244 C.1     1  LIG1        0.1014
     33 C           8.5863    6.7850   -0.3522 C.ar    1  LIG1        0.0884
     34 C           9.7756    7.3447    0.1678 C.ar    1  LIG1        0.0673
     35 C           9.7410    8.7520   -0.1309 C.ar    1  LIG1        0.0632
     36 C           8.5435    9.0062   -0.7936 C.ar    1  LIG1        0.0195
     37 N           7.8750    7.8464   -0.9221 N.ar    1  LIG1       -0.3568
     38 H           6.9437    7.6970   -1.2815 H       1  LIG1        0.1655
     39 H           8.1590    9.9389   -1.1780 H       1  LIG1        0.0820
     40 N          10.7679    6.7896    0.9395 N.pl3   1  LIG1       -0.3553
     41 H          11.0510    5.8362    0.7581 H       1  LIG1        0.1424
     42 H          11.5461    7.4169    1.0978 H       1  LIG1        0.1424
     43 C          10.7584    9.6737    0.2131 C.1     1  LIG1       -0.0663
     44 C          11.6608   10.4189    0.5292 C.1     1  LIG1       -0.1138
     45 H          12.4396   11.0936    0.7987 H       1  LIG1        0.1232
@<TRIPOS>BOND
     1    38    37    1
     2    39    36    1
     3    19    17    1
     4    37    36   ar
     5    37    33   ar
     6    22    21    1
     7    30    23    1
     8    36    35   ar
     9    28    23   ar
    10    28    27   ar
    11    23    24   ar
    12     5     2    1
    13    33    27    1
    14    33    34   ar
    15    21    14    1
    16    27    26   ar
    17    24    15    1
    18    24    25   ar
    19    14    15   ar
    20    14    13   ar
    21    15    16   ar
    22    35    34   ar
    23    35    43    1
    24    10     1    1
    25    13    17    1
    26    13    12   ar
    27    26    32    1
    28    26    25   ar
    29     2     1   ar
    30     2     4   ar
    31    17    18    1
    32    17    20    1
    33    16    12   ar
    34    32    31    3
    35    12     4    1
    36    25    29    1
    37     1     3   ar
    38     4     7   ar
    39    34    40    1
    40    43    44    3
    41     3     9    1
    42     3     6   ar
    43    44    45    1
    44     7     6   ar
    45     7    11    1
    46     6     8    1
    47    41    40    1
    48    40    42    1
