@<TRIPOS>MOLECULE
mol_data/opt/b3lyp/geoms/mol2/4aa12dl13il-12id-.out
 50 53 0 0 0
SMALL
GASTEIGER

@<TRIPOS>ATOM
      1 C          -0.3247    0.1916    0.1764 C.ar    1  LIG1       -0.0611
      2 C           1.0584    0.0553    0.1060 C.ar    1  LIG1       -0.0510
      3 C          -0.9030    1.4370    0.4306 C.ar    1  LIG1       -0.0617
      4 C           1.8922    1.1743    0.2946 C.ar    1  LIG1        0.0187
      5 H           1.4871   -0.9188   -0.0978 H       1  LIG1        0.0625
      6 C          -0.0837    2.5523    0.6174 C.ar    1  LIG1       -0.0611
      7 C           1.3001    2.4262    0.5523 C.ar    1  LIG1       -0.0510
      8 H          -0.5237    3.5242    0.8193 H       1  LIG1        0.0618
      9 H          -1.9828    1.5372    0.4841 H       1  LIG1        0.0618
     10 H          -0.9534   -0.6812    0.0289 H       1  LIG1        0.0618
     11 H           1.9319    3.2929    0.7084 H       1  LIG1        0.0625
     12 C           3.3414    1.0586    0.2272 C.ar    1  LIG1        0.1568
     13 C           4.2312   -0.0003    0.1331 C.ar    1  LIG1        0.1396
     14 C           5.5573    0.5700    0.1057 C.ar    1  LIG1        0.1852
     15 C           5.4078    1.9320    0.2036 C.ar    1  LIG1        0.1948
     16 O           4.0574    2.2166    0.2769 O.2     1  LIG1       -0.4482
     17 N           3.7182   -2.5292    0.0654 N.1     1  LIG1       -0.1906
     18 C           3.9342   -1.3848    0.1012 C.1     1  LIG1        0.1067
     19 O           6.7365   -0.0956    0.0398 O.3     1  LIG1       -0.4901
     20 C           6.9477   -0.8750   -1.1496 C.3     1  LIG1        0.0790
     21 H           7.9489   -1.2968   -1.0548 H       1  LIG1        0.0660
     22 H           6.2191   -1.6868   -1.2312 H       1  LIG1        0.0660
     23 H           6.8967   -0.2398   -2.0412 H       1  LIG1        0.0660
     24 C           6.2956    3.0644    0.2220 C.ar    1  LIG1        0.0929
     25 C           7.6424    3.2034    0.5699 C.ar    1  LIG1        0.0203
     26 C           7.9502    4.5779    0.3979 C.ar    1  LIG1        0.1519
     27 C           6.8063    5.2603   -0.0240 C.ar    1  LIG1        0.1253
     28 N           5.8159    4.3093   -0.1237 N.ar    1  LIG1       -0.3461
     29 H           4.8717    4.5008   -0.4181 H       1  LIG1        0.1662
     30 C           8.5958    2.1717    1.0920 C.3     1  LIG1       -0.0341
     31 H           9.3843    2.6636    1.6686 H       1  LIG1        0.0279
     32 H           9.0735    1.5987    0.2891 H       1  LIG1        0.0279
     33 H           8.0909    1.4489    1.7364 H       1  LIG1        0.0279
     34 O           9.1704    5.1469    0.6605 O.3     1  LIG1       -0.4926
     35 C          10.1296    5.0009   -0.3931 C.3     1  LIG1        0.0789
     36 H          11.0404    5.4977   -0.0532 H       1  LIG1        0.0660
     37 H          10.3447    3.9446   -0.5916 H       1  LIG1        0.0660
     38 H           9.7763    5.4742   -1.3170 H       1  LIG1        0.0660
     39 C           6.5221    6.6380   -0.3504 C.ar    1  LIG1        0.1586
     40 C           7.0807    7.8630   -0.0768 C.ar    1  LIG1        0.0142
     41 C           6.2252    8.8246   -0.7401 C.ar    1  LIG1        0.0929
     42 C           5.2162    8.1262   -1.3427 C.ar    1  LIG1        0.1102
     43 O           5.3788    6.8042   -1.1213 O.2     1  LIG1       -0.4598
     44 H           4.3626    8.4247   -1.9304 H       1  LIG1        0.1043
     45 C           8.2716    8.2125    0.7602 C.3     1  LIG1       -0.0348
     46 H           7.9775    8.8580    1.5955 H       1  LIG1        0.0279
     47 H           9.0101    8.7706    0.1731 H       1  LIG1        0.0279
     48 H           8.7515    7.3185    1.1564 H       1  LIG1        0.0279
     49 N           6.5438   11.3897   -0.7508 N.1     1  LIG1       -0.1908
     50 C           6.3919   10.2359   -0.7511 C.1     1  LIG1        0.1026
@<TRIPOS>BOND
     1    23    20    1
     2    44    42    1
     3    42    43   ar
     4    42    41   ar
     5    38    35    1
     6    22    20    1
     7    20    21    1
     8    20    19    1
     9    43    39   ar
    10    50    49    3
    11    50    41    1
    12    41    40   ar
    13    37    35    1
    14    29    28    1
    15    35    36    1
    16    35    34    1
    17    39    40   ar
    18    39    27    1
    19    28    27   ar
    20    28    24   ar
    21     5     2    1
    22    40    45    1
    23    27    26   ar
    24    10     1    1
    25    19    14    1
    26    17    18    3
    27    18    13    1
    28    14    13   ar
    29    14    15   ar
    30     2     1   ar
    31     2     4   ar
    32    13    12   ar
    33    47    45    1
    34     1     3   ar
    35    15    24    1
    36    15    16   ar
    37    24    25   ar
    38    12    16   ar
    39    12     4    1
    40    32    30    1
    41     4     7   ar
    42    26    25   ar
    43    26    34    1
    44     3     9    1
    45     3     6   ar
    46     7     6   ar
    47     7    11    1
    48    25    30    1
    49     6     8    1
    50    45    48    1
    51    45    46    1
    52    30    31    1
    53    30    33    1
