@<TRIPOS>MOLECULE
mol_data/opt/b3lyp/geoms/mol2/4aa4aa-4aa4aa-.out
 42 45 0 0 0
SMALL
GASTEIGER

@<TRIPOS>ATOM
      1 C          -0.3005    0.1435    0.3919 C.ar    1  LIG1       -0.0612
      2 C           1.0925    0.0988    0.3945 C.ar    1  LIG1       -0.0540
      3 C          -0.9664    1.3043   -0.0050 C.ar    1  LIG1       -0.0617
      4 C           1.8524    1.2128   -0.0013 C.ar    1  LIG1       -0.0179
      5 H           1.6000   -0.7999    0.7318 H       1  LIG1        0.0624
      6 C          -0.2256    2.4194   -0.4000 C.ar    1  LIG1       -0.0612
      7 C           1.1673    2.3737   -0.3989 C.ar    1  LIG1       -0.0540
      8 H          -0.7333    3.3252   -0.7191 H       1  LIG1        0.0618
      9 H          -2.0518    1.3395   -0.0064 H       1  LIG1        0.0618
     10 H          -0.8667   -0.7275    0.7097 H       1  LIG1        0.0618
     11 H           1.7328    3.2377   -0.7349 H       1  LIG1        0.0624
     12 C           4.1007    2.2826    0.3732 C.ar    1  LIG1       -0.0535
     13 C           5.4909    2.2375    0.3753 C.ar    1  LIG1       -0.0535
     14 C           3.3358    1.1647    0.0006 C.ar    1  LIG1       -0.0178
     15 C           6.1828    1.0721    0.0043 C.ar    1  LIG1       -0.0178
     16 H           6.0497    3.1084    0.7045 H       1  LIG1        0.0624
     17 C           4.0274   -0.0007   -0.3701 C.ar    1  LIG1       -0.0535
     18 C           5.4176   -0.0459   -0.3685 C.ar    1  LIG1       -0.0535
     19 H           3.4682   -0.8716   -0.6985 H       1  LIG1        0.0624
     20 H           3.5984    3.1881    0.7004 H       1  LIG1        0.0624
     21 H           5.9195   -0.9513   -0.6962 H       1  LIG1        0.0624
     22 C           8.3557   -0.1413    0.3793 C.ar    1  LIG1       -0.0535
     23 C           9.7459   -0.1864    0.3809 C.ar    1  LIG1       -0.0535
     24 C           7.6647    1.0239    0.0063 C.ar    1  LIG1       -0.0178
     25 C          10.5117    0.9315    0.0100 C.ar    1  LIG1       -0.0178
     26 H          10.2475   -1.0917    0.7095 H       1  LIG1        0.0624
     27 C           8.4308    2.1419   -0.3649 C.ar    1  LIG1       -0.0535
     28 C           9.8210    2.0967   -0.3629 C.ar    1  LIG1       -0.0535
     29 H           7.9297    3.0471   -0.6943 H       1  LIG1        0.0624
     30 H           7.7961   -1.0121    0.7073 H       1  LIG1        0.0624
     31 H          10.3811    2.9676   -0.6902 H       1  LIG1        0.0624
     32 C          12.7541    1.9972    0.4098 C.ar    1  LIG1       -0.0540
     33 C          14.1471    1.9523    0.4109 C.ar    1  LIG1       -0.0612
     34 C          11.9951    0.8833    0.0119 C.ar    1  LIG1       -0.0179
     35 C          14.8139    0.7916    0.0156 C.ar    1  LIG1       -0.0617
     36 H          14.7125    2.8232    0.7302 H       1  LIG1        0.0618
     37 C          12.6811   -0.2776   -0.3842 C.ar    1  LIG1       -0.0540
     38 C          14.0740   -0.3234   -0.3816 C.ar    1  LIG1       -0.0612
     39 H          12.1163   -1.1415   -0.7217 H       1  LIG1        0.0624
     40 H          15.8993    0.7562    0.0170 H       1  LIG1        0.0618
     41 H          12.2458    2.8960    0.7459 H       1  LIG1        0.0624
     42 H          14.5825   -1.2292   -0.6995 H       1  LIG1        0.0618
@<TRIPOS>BOND
     1    11     7    1
     2    39    37    1
     3     8     6    1
     4    42    38    1
     5    19    17    1
     6    21    18    1
     7    29    27    1
     8    31    28    1
     9     6     7   ar
    10     6     3   ar
    11     7     4   ar
    12    37    38   ar
    13    37    34   ar
    14    38    35   ar
    15    17    18   ar
    16    17    14   ar
    17    18    15   ar
    18    27    28   ar
    19    27    24   ar
    20    28    25   ar
    21     9     3    1
    22     3     1   ar
    23     4    14    1
    24     4     2   ar
    25    14    12   ar
    26    15    24    1
    27    15    13   ar
    28    24    22   ar
    29    25    34    1
    30    25    23   ar
    31    34    32   ar
    32    35    40    1
    33    35    33   ar
    34    12    13   ar
    35    12    20    1
    36    13    16    1
    37    22    23   ar
    38    22    30    1
    39    23    26    1
    40     1     2   ar
    41     1    10    1
    42     2     5    1
    43    32    33   ar
    44    32    41    1
    45    33    36    1
