@<TRIPOS>MOLECULE
mol_data/opt/b3lyp/geoms/mol2/4aa4aa-4aa.out
 32 34 0 0 0
SMALL
GASTEIGER

@<TRIPOS>ATOM
      1 C          -0.2184    0.0747   -0.0005 C.ar    1  LIG1       -0.0612
      2 C           1.1737    0.0315    0.0005 C.ar    1  LIG1       -0.0540
      3 C          -0.8884    1.2979   -0.0017 C.ar    1  LIG1       -0.0617
      4 C           1.9489    1.2071    0.0002 C.ar    1  LIG1       -0.0179
      5 H           1.6538   -0.9400    0.0017 H       1  LIG1        0.0624
      6 C          -0.1415    2.4758   -0.0020 C.ar    1  LIG1       -0.0612
      7 C           1.2504    2.4298   -0.0011 C.ar    1  LIG1       -0.0540
      8 H          -0.6428    3.4396   -0.0031 H       1  LIG1        0.0618
      9 H          -1.9736    1.3327   -0.0025 H       1  LIG1        0.0618
     10 H          -0.7803   -0.8550   -0.0001 H       1  LIG1        0.0618
     11 H           1.7918    3.3686   -0.0016 H       1  LIG1        0.0624
     12 C           4.2236    2.3263    0.0029 C.ar    1  LIG1       -0.0535
     13 C           5.6121    2.2821    0.0039 C.ar    1  LIG1       -0.0535
     14 C           3.4384    1.1596    0.0012 C.ar    1  LIG1       -0.0178
     15 C           6.3214    1.0676    0.0031 C.ar    1  LIG1       -0.0178
     16 H           6.1428    3.2271    0.0055 H       1  LIG1        0.0624
     17 C           4.1477   -0.0550    0.0004 C.ar    1  LIG1       -0.0535
     18 C           5.5361   -0.0993    0.0013 C.ar    1  LIG1       -0.0535
     19 H           3.6169   -0.9999   -0.0012 H       1  LIG1        0.0624
     20 H           3.7542    3.3031    0.0039 H       1  LIG1        0.0624
     21 H           6.0057   -1.0760    0.0004 H       1  LIG1        0.0624
     22 C           8.5093   -0.2027    0.0055 C.ar    1  LIG1       -0.0540
     23 C           9.9013   -0.2488    0.0064 C.ar    1  LIG1       -0.0612
     24 C           7.8108    1.0199    0.0041 C.ar    1  LIG1       -0.0179
     25 C          10.6482    0.9291    0.0061 C.ar    1  LIG1       -0.0617
     26 H          10.4025   -1.2125    0.0075 H       1  LIG1        0.0618
     27 C           8.5862    2.1955    0.0038 C.ar    1  LIG1       -0.0540
     28 C           9.9781    2.1524    0.0048 C.ar    1  LIG1       -0.0612
     29 H           8.1059    3.1670    0.0026 H       1  LIG1        0.0624
     30 H          11.7335    0.8944    0.0068 H       1  LIG1        0.0618
     31 H           7.9680   -1.1416    0.0060 H       1  LIG1        0.0624
     32 H          10.5401    3.0820    0.0044 H       1  LIG1        0.0618
@<TRIPOS>BOND
     1     8     6    1
     2     9     3    1
     3     6     3   ar
     4     6     7   ar
     5     3     1   ar
     6    11     7    1
     7    19    17    1
     8     7     4   ar
     9     1    10    1
    10     1     2   ar
    11     4     2   ar
    12     4    14    1
    13    21    18    1
    14    17    14   ar
    15    17    18   ar
    16     2     5    1
    17    14    12   ar
    18    18    15   ar
    19    29    27    1
    20    12    13   ar
    21    12    20    1
    22    15    13   ar
    23    15    24    1
    24    27    24   ar
    25    27    28   ar
    26    13    16    1
    27    24    22   ar
    28    32    28    1
    29    28    25   ar
    30    22    31    1
    31    22    23   ar
    32    25    23   ar
    33    25    30    1
    34    23    26    1
