@<TRIPOS>MOLECULE
mol_data/opt/b3lyp/geoms/mol2/4aa4aa4aa-4aa-.out
 42 45 0 0 0
SMALL
GASTEIGER

@<TRIPOS>ATOM
      1 C          -0.3498    0.0879   -0.0019 C.ar    1  LIG1       -0.0612
      2 C           1.0425    0.0537   -0.0003 C.ar    1  LIG1       -0.0540
      3 C          -1.0277    1.3068   -0.0040 C.ar    1  LIG1       -0.0617
      4 C           1.8102    1.2343   -0.0007 C.ar    1  LIG1       -0.0179
      5 H           1.5288   -0.9147    0.0014 H       1  LIG1        0.0624
      6 C          -0.2885    2.4895   -0.0045 C.ar    1  LIG1       -0.0612
      7 C           1.1038    2.4525   -0.0028 C.ar    1  LIG1       -0.0540
      8 H          -0.7960    3.4499   -0.0061 H       1  LIG1        0.0618
      9 H          -2.1131    1.3345   -0.0053 H       1  LIG1        0.0618
     10 H          -0.9057   -0.8454   -0.0015 H       1  LIG1        0.0618
     11 H           1.6389    3.3949   -0.0033 H       1  LIG1        0.0624
     12 C           4.0166   -0.0142    0.0026 C.ar    1  LIG1       -0.0535
     13 C           5.4051   -0.0500    0.0043 C.ar    1  LIG1       -0.0535
     14 C           3.2999    1.1962    0.0010 C.ar    1  LIG1       -0.0178
     15 C           6.1824    1.1226    0.0044 C.ar    1  LIG1       -0.0178
     16 H           5.8821   -1.0233    0.0056 H       1  LIG1        0.0624
     17 C           4.0775    2.3685    0.0012 C.ar    1  LIG1       -0.0535
     18 C           5.4660    2.3333    0.0028 C.ar    1  LIG1       -0.0535
     19 H           3.6014    3.3421    0.0001 H       1  LIG1        0.0624
     20 H           3.4914   -0.9622    0.0026 H       1  LIG1        0.0624
     21 H           5.9922    3.2809    0.0026 H       1  LIG1        0.0624
     22 C           8.4456    2.2572    0.0087 C.ar    1  LIG1       -0.0535
     23 C           9.8340    2.2214    0.0103 C.ar    1  LIG1       -0.0535
     24 C           7.6683    1.0846    0.0062 C.ar    1  LIG1       -0.0178
     25 C          10.5508    1.0110    0.0095 C.ar    1  LIG1       -0.0178
     26 H          10.3592    3.1695    0.0123 H       1  LIG1        0.0624
     27 C           8.3847   -0.1261    0.0054 C.ar    1  LIG1       -0.0535
     28 C           9.7732   -0.1613    0.0071 C.ar    1  LIG1       -0.0535
     29 H           7.8586   -1.0738    0.0033 H       1  LIG1        0.0624
     30 H           7.9685    3.2305    0.0097 H       1  LIG1        0.0624
     31 H          10.2493   -1.1348    0.0062 H       1  LIG1        0.0624
     32 C          12.8082    2.1536    0.0126 C.ar    1  LIG1       -0.0540
     33 C          14.2005    2.1195    0.0142 C.ar    1  LIG1       -0.0612
     34 C          12.0405    0.9730    0.0113 C.ar    1  LIG1       -0.0179
     35 C          14.8783    0.9006    0.0146 C.ar    1  LIG1       -0.0617
     36 H          14.7563    3.0527    0.0152 H       1  LIG1        0.0618
     37 C          12.7469   -0.2452    0.0117 C.ar    1  LIG1       -0.0540
     38 C          14.1391   -0.2822    0.0134 C.ar    1  LIG1       -0.0612
     39 H          12.2118   -1.1876    0.0109 H       1  LIG1        0.0624
     40 H          15.9638    0.8728    0.0159 H       1  LIG1        0.0618
     41 H          12.3218    3.1220    0.0122 H       1  LIG1        0.0624
     42 H          14.6467   -1.2426    0.0137 H       1  LIG1        0.0618
@<TRIPOS>BOND
     1     8     6    1
     2     9     3    1
     3     6     3   ar
     4     6     7   ar
     5     3     1   ar
     6    11     7    1
     7     7     4   ar
     8     1    10    1
     9     1     2   ar
    10     4     2   ar
    11     4    14    1
    12     2     5    1
    13    19    17    1
    14    14    17   ar
    15    14    12   ar
    16    17    18   ar
    17    20    12    1
    18    12    13   ar
    19    21    18    1
    20    18    15   ar
    21    29    27    1
    22    13    15   ar
    23    13    16    1
    24    15    24    1
    25    27    24   ar
    26    27    28   ar
    27    24    22   ar
    28    31    28    1
    29    28    25   ar
    30    22    30    1
    31    22    23   ar
    32    25    23   ar
    33    25    34    1
    34    23    26    1
    35    39    37    1
    36    34    37   ar
    37    34    32   ar
    38    37    38   ar
    39    41    32    1
    40    32    33   ar
    41    38    42    1
    42    38    35   ar
    43    33    35   ar
    44    33    36    1
    45    35    40    1
