@<TRIPOS>MOLECULE
mol_data/opt/b3lyp/geoms/mol2/4aa4aa-4aa-4aa-.out
 42 45 0 0 0
SMALL
GASTEIGER

@<TRIPOS>ATOM
      1 C          -0.3149    0.1164   -0.0025 C.ar    1  LIG1       -0.0612
      2 C           1.0775    0.0549   -0.0000 C.ar    1  LIG1       -0.0540
      3 C          -0.9645    1.3518   -0.0028 C.ar    1  LIG1       -0.0617
      4 C           1.8532    1.2269    0.0003 C.ar    1  LIG1       -0.0179
      5 H           1.5718   -0.9115    0.0285 H       1  LIG1        0.0624
      6 C          -0.2080    2.5249   -0.0015 C.ar    1  LIG1       -0.0612
      7 C           1.1843    2.4629   -0.0009 C.ar    1  LIG1       -0.0540
      8 H          -0.7028    3.4919   -0.0107 H       1  LIG1        0.0618
      9 H          -2.0494    1.4000   -0.0040 H       1  LIG1        0.0618
     10 H          -0.8934   -0.8030    0.0055 H       1  LIG1        0.0618
     11 H           1.7623    3.3818   -0.0281 H       1  LIG1        0.0624
     12 C           4.1055    2.0844    0.7287 C.ar    1  LIG1       -0.0535
     13 C           5.4951    2.0228    0.7300 C.ar    1  LIG1       -0.0535
     14 C           3.3357    1.1609    0.0019 C.ar    1  LIG1       -0.0178
     15 C           6.1813    1.0341    0.0047 C.ar    1  LIG1       -0.0178
     16 H           6.0573    2.7301    1.3323 H       1  LIG1        0.0624
     17 C           4.0218    0.1725   -0.7235 C.ar    1  LIG1       -0.0535
     18 C           5.4113    0.1103   -0.7220 C.ar    1  LIG1       -0.0535
     19 H           3.4592   -0.5346   -1.3257 H       1  LIG1        0.0624
     20 H           3.6069    2.8389    1.3298 H       1  LIG1        0.0624
     21 H           5.9097   -0.6442   -1.3233 H       1  LIG1        0.0624
     22 C           8.4440    2.1357    0.0144 C.ar    1  LIG1       -0.0535
     23 C           9.8336    2.0737    0.0163 C.ar    1  LIG1       -0.0535
     24 C           7.6625    0.9681    0.0062 C.ar    1  LIG1       -0.0178
     25 C          10.5079    0.8413    0.0089 C.ar    1  LIG1       -0.0178
     26 H          10.4066    2.9958    0.0407 H       1  LIG1        0.0624
     27 C           8.3370   -0.2644   -0.0007 C.ar    1  LIG1       -0.0535
     28 C           9.7266   -0.3262    0.0001 C.ar    1  LIG1       -0.0535
     29 H           7.7643   -1.1869    0.0108 H       1  LIG1        0.0624
     30 H           7.9556    3.1055    0.0019 H       1  LIG1        0.0624
     31 H          10.2154   -1.2956   -0.0232 H       1  LIG1        0.0624
     32 C          12.7561    1.6992   -0.7215 C.ar    1  LIG1       -0.0540
     33 C          14.1485    1.6377   -0.7198 C.ar    1  LIG1       -0.0612
     34 C          11.9907    0.7752    0.0103 C.ar    1  LIG1       -0.0179
     35 C          14.8081    0.6496    0.0130 C.ar    1  LIG1       -0.0617
     36 H          14.7189    2.3577   -1.2997 H       1  LIG1        0.0618
     37 C          12.6695   -0.2132    0.7435 C.ar    1  LIG1       -0.0540
     38 C          14.0618   -0.2757    0.7444 C.ar    1  LIG1       -0.0612
     39 H          12.1000   -0.9210    1.3382 H       1  LIG1        0.0624
     40 H          15.8930    0.6013    0.0140 H       1  LIG1        0.0618
     41 H          12.2529    2.4548   -1.3173 H       1  LIG1        0.0624
     42 H          14.5648   -1.0436    1.3254 H       1  LIG1        0.0618
@<TRIPOS>BOND
     1    19    17    1
     2    21    18    1
     3    41    32    1
     4    36    33    1
     5    17    18   ar
     6    17    14   ar
     7    18    15   ar
     8    32    33   ar
     9    32    34   ar
    10    33    35   ar
    11    11     7    1
    12    31    28    1
    13     8     6    1
    14     9     3    1
    15     3     1   ar
    16     3     6   ar
    17     1     2   ar
    18     1    10    1
    19     6     7   ar
    20     7     4   ar
    21    27    28   ar
    22    27    24   ar
    23    27    29    1
    24     2     4   ar
    25     2     5    1
    26    28    25   ar
    27     4    14    1
    28    30    22    1
    29    14    12   ar
    30    15    24    1
    31    15    13   ar
    32    24    22   ar
    33    25    34    1
    34    25    23   ar
    35    34    37   ar
    36    35    40    1
    37    35    38   ar
    38    22    23   ar
    39    23    26    1
    40    12    13   ar
    41    12    20    1
    42    13    16    1
    43    37    38   ar
    44    37    39    1
    45    38    42    1
