@<TRIPOS>MOLECULE
mol_data/opt/b3lyp/geoms/mol2/4aa4aa4aa.out
 32 34 0 0 0
SMALL
GASTEIGER

@<TRIPOS>ATOM
      1 C          -0.1972    0.0459   -0.0003 C.ar    1  LIG1       -0.0612
      2 C           1.1954    0.0277    0.0006 C.ar    1  LIG1       -0.0540
      3 C          -0.8890    1.2569   -0.0017 C.ar    1  LIG1       -0.0617
      4 C           1.9494    1.2170    0.0002 C.ar    1  LIG1       -0.0179
      5 H           1.6930   -0.9350    0.0018 H       1  LIG1        0.0624
      6 C          -0.1634    2.4480   -0.0022 C.ar    1  LIG1       -0.0612
      7 C           1.2292    2.4270   -0.0013 C.ar    1  LIG1       -0.0540
      8 H          -0.6819    3.4025   -0.0033 H       1  LIG1        0.0618
      9 H          -1.9747    1.2723   -0.0025 H       1  LIG1        0.0618
     10 H          -0.7423   -0.8937    0.0001 H       1  LIG1        0.0618
     11 H           1.7534    3.3753   -0.0018 H       1  LIG1        0.0624
     12 C           4.1701   -0.0060    0.0021 C.ar    1  LIG1       -0.0535
     13 C           5.5592   -0.0256    0.0030 C.ar    1  LIG1       -0.0535
     14 C           3.4395    1.1958    0.0012 C.ar    1  LIG1       -0.0178
     15 C           6.3235    1.1550    0.0031 C.ar    1  LIG1       -0.0178
     16 H           6.0461   -0.9938    0.0037 H       1  LIG1        0.0624
     17 C           4.2039    2.3764    0.0013 C.ar    1  LIG1       -0.0535
     18 C           5.5929    2.3568    0.0022 C.ar    1  LIG1       -0.0535
     19 H           3.7170    3.3447    0.0007 H       1  LIG1        0.0624
     20 H           3.6561   -0.9603    0.0020 H       1  LIG1        0.0624
     21 H           6.1068    3.3109    0.0022 H       1  LIG1        0.0624
     22 C           8.5337   -0.0764    0.0044 C.ar    1  LIG1       -0.0540
     23 C           9.9263   -0.0976    0.0054 C.ar    1  LIG1       -0.0612
     24 C           7.8136    1.1337    0.0041 C.ar    1  LIG1       -0.0179
     25 C          10.6521    1.0934    0.0061 C.ar    1  LIG1       -0.0617
     26 H          10.4446   -1.0522    0.0056 H       1  LIG1        0.0618
     27 C           8.5679    2.3229    0.0048 C.ar    1  LIG1       -0.0540
     28 C           9.9604    2.3046    0.0058 C.ar    1  LIG1       -0.0612
     29 H           8.0704    3.2857    0.0047 H       1  LIG1        0.0624
     30 H          11.7377    1.0779    0.0068 H       1  LIG1        0.0618
     31 H           8.0091   -1.0249    0.0038 H       1  LIG1        0.0624
     32 H          10.5057    3.2440    0.0063 H       1  LIG1        0.0618
@<TRIPOS>BOND
     1     8     6    1
     2     9     3    1
     3     6     3   ar
     4     6     7   ar
     5    11     7    1
     6     3     1   ar
     7     7     4   ar
     8     1    10    1
     9     1     2   ar
    10     4     2   ar
    11     4    14    1
    12     2     5    1
    13    19    17    1
    14    14    17   ar
    15    14    12   ar
    16    17    18   ar
    17    20    12    1
    18    12    13   ar
    19    21    18    1
    20    18    15   ar
    21    13    15   ar
    22    13    16    1
    23    15    24    1
    24    31    22    1
    25    24    22   ar
    26    24    27   ar
    27    22    23   ar
    28    29    27    1
    29    27    28   ar
    30    23    26    1
    31    23    25   ar
    32    28    25   ar
    33    28    32    1
    34    25    30    1
