@<TRIPOS>MOLECULE
mol_data/opt/b3lyp/geoms/mol2/4aa4aa-4aa4aa.out
 42 45 0 0 0
SMALL
GASTEIGER

@<TRIPOS>ATOM
      1 C          -0.3544    0.0653   -0.0020 C.ar    1  LIG1       -0.0612
      2 C           1.0377    0.0266   -0.0004 C.ar    1  LIG1       -0.0540
      3 C          -1.0283    1.2864   -0.0040 C.ar    1  LIG1       -0.0617
      4 C           1.8093    1.2047   -0.0007 C.ar    1  LIG1       -0.0179
      5 H           1.5209   -0.9435    0.0014 H       1  LIG1        0.0624
      6 C          -0.2853    2.4667   -0.0043 C.ar    1  LIG1       -0.0612
      7 C           1.1068    2.4252   -0.0027 C.ar    1  LIG1       -0.0540
      8 H          -0.7897    3.4288   -0.0059 H       1  LIG1        0.0618
      9 H          -2.1138    1.3177   -0.0053 H       1  LIG1        0.0618
     10 H          -0.9134   -0.8662   -0.0017 H       1  LIG1        0.0618
     11 H           1.6451    3.3658   -0.0033 H       1  LIG1        0.0624
     12 C           4.0800    2.3319    0.0032 C.ar    1  LIG1       -0.0535
     13 C           5.4683    2.2927    0.0048 C.ar    1  LIG1       -0.0535
     14 C           3.2989    1.1620    0.0010 C.ar    1  LIG1       -0.0178
     15 C           6.1811    1.0798    0.0044 C.ar    1  LIG1       -0.0178
     16 H           5.9972    3.2388    0.0068 H       1  LIG1        0.0624
     17 C           4.0120   -0.0506    0.0006 C.ar    1  LIG1       -0.0535
     18 C           5.4003   -0.0905    0.0022 C.ar    1  LIG1       -0.0535
     19 H           3.4840   -0.9970   -0.0014 H       1  LIG1        0.0624
     20 H           3.6067    3.3070    0.0040 H       1  LIG1        0.0624
     21 H           5.8746   -1.0651    0.0015 H       1  LIG1        0.0624
     22 C           8.3796   -0.1757    0.0080 C.ar    1  LIG1       -0.0535
     23 C           9.7680   -0.2151    0.0096 C.ar    1  LIG1       -0.0535
     24 C           7.6669    1.0373    0.0061 C.ar    1  LIG1       -0.0178
     25 C          10.5492    0.9547    0.0095 C.ar    1  LIG1       -0.0178
     26 H          10.2411   -1.1901    0.0111 H       1  LIG1        0.0624
     27 C           8.4479    2.2075    0.0061 C.ar    1  LIG1       -0.0535
     28 C           9.8362    2.1674    0.0077 C.ar    1  LIG1       -0.0535
     29 H           7.9738    3.1822    0.0045 H       1  LIG1        0.0624
     30 H           7.8506   -1.1217    0.0084 H       1  LIG1        0.0624
     31 H          10.3642    3.1137    0.0074 H       1  LIG1        0.0624
     32 C          12.7412   -0.3087    0.0122 C.ar    1  LIG1       -0.0540
     33 C          14.1333   -0.3503    0.0139 C.ar    1  LIG1       -0.0612
     34 C          12.0388    0.9118    0.0113 C.ar    1  LIG1       -0.0179
     35 C          14.8764    0.8299    0.0147 C.ar    1  LIG1       -0.0617
     36 H          14.6376   -1.3124    0.0145 H       1  LIG1        0.0618
     37 C          12.8105    2.0899    0.0121 C.ar    1  LIG1       -0.0540
     38 C          14.2026    2.0511    0.0138 C.ar    1  LIG1       -0.0612
     39 H          12.3273    3.0599    0.0116 H       1  LIG1        0.0624
     40 H          15.9619    0.7986    0.0160 H       1  LIG1        0.0618
     41 H          12.2031   -1.2492    0.0116 H       1  LIG1        0.0624
     42 H          14.7617    2.9826    0.0144 H       1  LIG1        0.0618
@<TRIPOS>BOND
     1     8     6    1
     2     9     3    1
     3     6     3   ar
     4     6     7   ar
     5     3     1   ar
     6    11     7    1
     7     7     4   ar
     8     1    10    1
     9     1     2   ar
    10    19    17    1
    11     4     2   ar
    12     4    14    1
    13     2     5    1
    14    17    14   ar
    15    17    18   ar
    16    14    12   ar
    17    21    18    1
    18    18    15   ar
    19    12    20    1
    20    12    13   ar
    21    15    13   ar
    22    15    24    1
    23    29    27    1
    24    13    16    1
    25    27    24   ar
    26    27    28   ar
    27    24    22   ar
    28    31    28    1
    29    28    25   ar
    30    22    30    1
    31    22    23   ar
    32    25    23   ar
    33    25    34    1
    34    23    26    1
    35    34    37   ar
    36    34    32   ar
    37    41    32    1
    38    39    37    1
    39    37    38   ar
    40    32    33   ar
    41    38    42    1
    42    38    35   ar
    43    33    36    1
    44    33    35   ar
    45    35    40    1
