@<TRIPOS>MOLECULE
mol_data/opt/b3lyp/geoms/mol2/4aa4aa-12al-4il.out
 50 53 0 0 0
SMALL
GASTEIGER

@<TRIPOS>ATOM
      1 C          -0.2903    0.3331   -0.5434 C.ar    1  LIG1       -0.0612
      2 C           1.1011    0.3263   -0.6220 C.ar    1  LIG1       -0.0540
      3 C          -0.9404    1.1824    0.3535 C.ar    1  LIG1       -0.0617
      4 C           1.8765    1.1669    0.1956 C.ar    1  LIG1       -0.0179
      5 H           1.5939   -0.3178   -1.3442 H       1  LIG1        0.0624
      6 C          -0.1847    2.0240    1.1714 C.ar    1  LIG1       -0.0612
      7 C           1.2067    2.0156    1.0941 C.ar    1  LIG1       -0.0540
      8 H          -0.6792    2.6830    1.8794 H       1  LIG1        0.0618
      9 H          -2.0247    1.1884    0.4143 H       1  LIG1        0.0618
     10 H          -0.8680   -0.3198   -1.1915 H       1  LIG1        0.0618
     11 H           1.7842    2.6542    1.7558 H       1  LIG1        0.0624
     12 C           4.0677   -0.0348   -0.1105 C.ar    1  LIG1       -0.0534
     13 C           5.4540   -0.0469   -0.1861 C.ar    1  LIG1       -0.0505
     14 C           3.3573    1.1583    0.1131 C.ar    1  LIG1       -0.0178
     15 C           6.1955    1.1400   -0.0415 C.ar    1  LIG1        0.0174
     16 H           5.9681   -0.9894   -0.3484 H       1  LIG1        0.0625
     17 C           4.1036    2.3407    0.2570 C.ar    1  LIG1       -0.0534
     18 C           5.4910    2.3367    0.1823 C.ar    1  LIG1       -0.0505
     19 H           3.5857    3.2835    0.4042 H       1  LIG1        0.0624
     20 H           3.5243   -0.9706   -0.1986 H       1  LIG1        0.0624
     21 H           6.0422    3.2641    0.2891 H       1  LIG1        0.0625
     22 C           7.6473    1.1298   -0.1224 C.ar    1  LIG1        0.1393
     23 C           8.5721    0.1334   -0.3262 C.ar    1  LIG1        0.0267
     24 C           9.8521    0.7612   -0.2864 C.ar    1  LIG1        0.1662
     25 C           9.6525    2.1067   -0.0430 C.ar    1  LIG1        0.1774
     26 O           8.2924    2.3183    0.0414 O.2     1  LIG1       -0.4510
     27 H           8.3612   -0.9109   -0.4960 H       1  LIG1        0.0692
     28 O          11.0722    0.2018   -0.5011 O.3     1  LIG1       -0.4913
     29 C          11.0866   -1.1934   -0.7690 C.3     1  LIG1        0.0790
     30 H          12.1331   -1.4647   -0.9137 H       1  LIG1        0.0660
     31 H          10.6763   -1.7694    0.0702 H       1  LIG1        0.0660
     32 H          10.5225   -1.4321   -1.6796 H       1  LIG1        0.0660
     33 C          11.7312    3.3225    0.7362 C.ar    1  LIG1       -0.0395
     34 C          12.4572    4.5149    0.7243 C.ar    1  LIG1       -0.0547
     35 C          10.5037    3.2956    0.0243 C.ar    1  LIG1        0.0273
     36 C          12.0178    5.6660    0.0670 C.ar    1  LIG1       -0.0197
     37 H          13.3974    4.5561    1.2684 H       1  LIG1        0.0622
     38 C          10.0492    4.4535   -0.6228 C.ar    1  LIG1       -0.0089
     39 C          10.7927    5.6354   -0.6049 C.ar    1  LIG1        0.1208
     40 H           9.1088    4.4437   -1.1618 H       1  LIG1        0.0661
     41 H          12.6231    6.5639    0.0986 H       1  LIG1        0.0654
     42 C          12.2364    2.1455    1.5339 C.3     1  LIG1       -0.0390
     43 H          13.0352    2.4577    2.2126 H       1  LIG1        0.0278
     44 H          12.6219    1.3491    0.8913 H       1  LIG1        0.0278
     45 H          11.4348    1.7018    2.1343 H       1  LIG1        0.0278
     46 O          10.2428    6.6930   -1.2775 O.3     1  LIG1       -0.4951
     47 C          10.9642    7.9127   -1.3028 C.3     1  LIG1        0.0788
     48 H          10.3586    8.6101   -1.8837 H       1  LIG1        0.0660
     49 H          11.1122    8.3195   -0.2938 H       1  LIG1        0.0660
     50 H          11.9429    7.7971   -1.7868 H       1  LIG1        0.0660
@<TRIPOS>BOND
     1    48    47    1
     2    50    47    1
     3    32    29    1
     4     5     2    1
     5    47    46    1
     6    47    49    1
     7    46    39    1
     8    10     1    1
     9    40    38    1
    10    30    29    1
    11    29    28    1
    12    29    31    1
    13    38    39   ar
    14    38    35   ar
    15     2     1   ar
    16     2     4   ar
    17    39    36   ar
    18     1     3   ar
    19    28    24    1
    20    27    23    1
    21    16    13    1
    22    23    24   ar
    23    23    22   ar
    24    24    25   ar
    25    20    12    1
    26    13    12   ar
    27    13    15   ar
    28    22    15    1
    29    22    26   ar
    30    12    14   ar
    31    25    35    1
    32    25    26   ar
    33    15    18   ar
    34    35    33   ar
    35    36    41    1
    36    36    34   ar
    37    14     4    1
    38    14    17   ar
    39    18    17   ar
    40    18    21    1
    41     4     7   ar
    42    17    19    1
    43     3     9    1
    44     3     6   ar
    45    34    33   ar
    46    34    37    1
    47    33    42    1
    48    44    42    1
    49     7     6   ar
    50     7    11    1
    51     6     8    1
    52    42    45    1
    53    42    43    1
