@<TRIPOS>MOLECULE
mol_data/opt/b3lyp/geoms/mol2/4aa4aa4aa4aa-.out
 42 45 0 0 0
SMALL
GASTEIGER

@<TRIPOS>ATOM
      1 C          -0.2793    0.1102    0.3970 C.ar    1  LIG1       -0.0612
      2 C           1.1142    0.0919    0.3991 C.ar    1  LIG1       -0.0540
      3 C          -0.9672    1.2573   -0.0022 C.ar    1  LIG1       -0.0617
      4 C           1.8528    1.2192    0.0005 C.ar    1  LIG1       -0.0179
      5 H           1.6389   -0.7963    0.7382 H       1  LIG1        0.0624
      6 C          -0.2478    2.3853   -0.4001 C.ar    1  LIG1       -0.0612
      7 C           1.1457    2.3660   -0.3995 C.ar    1  LIG1       -0.0540
      8 H          -0.7727    3.2806   -0.7211 H       1  LIG1        0.0618
      9 H          -2.0531    1.2720   -0.0033 H       1  LIG1        0.0618
     10 H          -0.8288   -0.7705    0.7170 H       1  LIG1        0.0618
     11 H           1.6948    3.2397   -0.7376 H       1  LIG1        0.0624
     12 C           4.0503    0.0464   -0.3667 C.ar    1  LIG1       -0.0535
     13 C           5.4411    0.0277   -0.3656 C.ar    1  LIG1       -0.0535
     14 C           3.3368    1.1992    0.0019 C.ar    1  LIG1       -0.0178
     15 C           6.1851    1.1608    0.0047 C.ar    1  LIG1       -0.0178
     16 H           5.9600   -0.8686   -0.6919 H       1  LIG1        0.0624
     17 C           4.0805    2.3322    0.3720 C.ar    1  LIG1       -0.0535
     18 C           5.4713    2.3135    0.3736 C.ar    1  LIG1       -0.0535
     19 H           3.5610    3.2285    0.6975 H       1  LIG1        0.0624
     20 H           3.5075   -0.8356   -0.6932 H       1  LIG1        0.0624
     21 H           6.0135    3.1955    0.7009 H       1  LIG1        0.0624
     22 C           8.3806   -0.0106    0.3809 C.ar    1  LIG1       -0.0535
     23 C           9.7714   -0.0294    0.3819 C.ar    1  LIG1       -0.0535
     24 C           7.6675    1.1407    0.0061 C.ar    1  LIG1       -0.0178
     25 C          10.5159    1.1022    0.0087 C.ar    1  LIG1       -0.0178
     26 H          10.2901   -0.9245    0.7119 H       1  LIG1        0.0624
     27 C           8.4122    2.2723   -0.3674 C.ar    1  LIG1       -0.0535
     28 C           9.8030    2.2534   -0.3658 C.ar    1  LIG1       -0.0535
     29 H           7.8940    3.1673   -0.6982 H       1  LIG1        0.0624
     30 H           7.8378   -0.8912    0.7107 H       1  LIG1        0.0624
     31 H          10.3464    3.1341   -0.6948 H       1  LIG1        0.0624
     32 C          12.7376    2.2111    0.4054 C.ar    1  LIG1       -0.0540
     33 C          14.1312    2.1928    0.4060 C.ar    1  LIG1       -0.0612
     34 C          11.9998    1.0821    0.0101 C.ar    1  LIG1       -0.0179
     35 C          14.8199    1.0441    0.0126 C.ar    1  LIG1       -0.0617
     36 H          14.6800    3.0749    0.7233 H       1  LIG1        0.0618
     37 C          12.7076   -0.0663   -0.3840 C.ar    1  LIG1       -0.0540
     38 C          14.1012   -0.0855   -0.3820 C.ar    1  LIG1       -0.0612
     39 H          12.1593   -0.9414   -0.7194 H       1  LIG1        0.0624
     40 H          15.9057    1.0295    0.0136 H       1  LIG1        0.0618
     41 H          12.2124    3.1007    0.7400 H       1  LIG1        0.0624
     42 H          14.6266   -0.9821   -0.6984 H       1  LIG1        0.0618
@<TRIPOS>BOND
     1    11     7    1
     2     8     6    1
     3    39    37    1
     4    42    38    1
     5    29    27    1
     6    31    28    1
     7    20    12    1
     8    16    13    1
     9     6     7   ar
    10     6     3   ar
    11     7     4   ar
    12    37    38   ar
    13    37    34   ar
    14    38    35   ar
    15    27    28   ar
    16    27    24   ar
    17    12    13   ar
    18    12    14   ar
    19    28    25   ar
    20    13    15   ar
    21     9     3    1
    22     3     1   ar
    23     4    14    1
    24     4     2   ar
    25    14    17   ar
    26    15    24    1
    27    15    18   ar
    28    24    22   ar
    29    25    34    1
    30    25    23   ar
    31    34    32   ar
    32    35    40    1
    33    35    33   ar
    34    17    18   ar
    35    17    19    1
    36    18    21    1
    37    22    23   ar
    38    22    30    1
    39    23    26    1
    40     1     2   ar
    41     1    10    1
    42     2     5    1
    43    32    33   ar
    44    32    41    1
    45    33    36    1
