@<TRIPOS>MOLECULE
mol_data/opt/b3lyp/geoms/mol2/4aa4aa4aa4aa.out
 42 45 0 0 0
SMALL
GASTEIGER

@<TRIPOS>ATOM
      1 C          -0.3318    0.0307   -0.0020 C.ar    1  LIG1       -0.0612
      2 C           1.0609    0.0186   -0.0004 C.ar    1  LIG1       -0.0540
      3 C          -1.0288    1.2388   -0.0040 C.ar    1  LIG1       -0.0617
      4 C           1.8098    1.2112   -0.0007 C.ar    1  LIG1       -0.0179
      5 H           1.5626   -0.9419    0.0012 H       1  LIG1        0.0624
      6 C          -0.3083    2.4330   -0.0043 C.ar    1  LIG1       -0.0612
      7 C           1.0843    2.4181   -0.0027 C.ar    1  LIG1       -0.0540
      8 H          -0.8310    3.3853   -0.0059 H       1  LIG1        0.0618
      9 H          -2.1146    1.2495   -0.0052 H       1  LIG1        0.0618
     10 H          -0.8728   -0.9113   -0.0016 H       1  LIG1        0.0618
     11 H           1.6044    3.3689   -0.0032 H       1  LIG1        0.0624
     12 C           4.0357   -0.0026    0.0025 C.ar    1  LIG1       -0.0535
     13 C           5.4246   -0.0163    0.0042 C.ar    1  LIG1       -0.0535
     14 C           3.3000    1.1964    0.0010 C.ar    1  LIG1       -0.0178
     15 C           6.1832    1.1684    0.0044 C.ar    1  LIG1       -0.0178
     16 H           5.9171   -0.9818    0.0053 H       1  LIG1        0.0624
     17 C           4.0590    2.3808    0.0012 C.ar    1  LIG1       -0.0535
     18 C           5.4479    2.3677    0.0028 C.ar    1  LIG1       -0.0535
     19 H           3.5674    3.3466    0.0001 H       1  LIG1        0.0624
     20 H           3.5257   -0.9589    0.0025 H       1  LIG1        0.0624
     21 H           5.9588    3.3236    0.0028 H       1  LIG1        0.0624
     22 C           8.4049   -0.0457    0.0072 C.ar    1  LIG1       -0.0535
     23 C           9.7938   -0.0587    0.0089 C.ar    1  LIG1       -0.0535
     24 C           7.6696    1.1536    0.0061 C.ar    1  LIG1       -0.0178
     25 C          10.5528    1.1256    0.0095 C.ar    1  LIG1       -0.0178
     26 H          10.2854   -1.0246    0.0097 H       1  LIG1        0.0624
     27 C           8.4283    2.3384    0.0068 C.ar    1  LIG1       -0.0535
     28 C           9.8171    2.3246    0.0084 C.ar    1  LIG1       -0.0535
     29 H           7.9357    3.3038    0.0060 H       1  LIG1        0.0624
     30 H           7.8940   -1.0017    0.0068 H       1  LIG1        0.0624
     31 H          10.3271    3.2809    0.0088 H       1  LIG1        0.0624
     32 C          12.7685   -0.0960    0.0118 C.ar    1  LIG1       -0.0540
     33 C          14.1612   -0.1109    0.0135 C.ar    1  LIG1       -0.0612
     34 C          12.0430    1.1108    0.0113 C.ar    1  LIG1       -0.0179
     35 C          14.8816    1.0832    0.0147 C.ar    1  LIG1       -0.0617
     36 H          14.6837   -1.0633    0.0139 H       1  LIG1        0.0618
     37 C          12.7920    2.3035    0.0125 C.ar    1  LIG1       -0.0540
     38 C          14.1845    2.2914    0.0142 C.ar    1  LIG1       -0.0612
     39 H          12.2901    3.2640    0.0122 H       1  LIG1        0.0624
     40 H          15.9674    1.0726    0.0160 H       1  LIG1        0.0618
     41 H          12.2484   -1.0470    0.0109 H       1  LIG1        0.0624
     42 H          14.7256    3.2333    0.0151 H       1  LIG1        0.0618
@<TRIPOS>BOND
     1     8     6    1
     2     9     3    1
     3     6     3   ar
     4     6     7   ar
     5     3     1   ar
     6    11     7    1
     7     7     4   ar
     8     1    10    1
     9     1     2   ar
    10     4     2   ar
    11     4    14    1
    12     2     5    1
    13    19    17    1
    14    14    17   ar
    15    14    12   ar
    16    17    18   ar
    17    20    12    1
    18    12    13   ar
    19    21    18    1
    20    18    15   ar
    21    13    15   ar
    22    13    16    1
    23    15    24    1
    24    29    27    1
    25    24    27   ar
    26    24    22   ar
    27    30    22    1
    28    27    28   ar
    29    22    23   ar
    30    28    31    1
    31    28    25   ar
    32    23    25   ar
    33    23    26    1
    34    25    34    1
    35    41    32    1
    36    34    32   ar
    37    34    37   ar
    38    32    33   ar
    39    39    37    1
    40    37    38   ar
    41    33    36    1
    42    33    35   ar
    43    38    35   ar
    44    38    42    1
    45    35    40    1
