@<TRIPOS>MOLECULE
mol_data/opt/b3lyp/geoms/mol2/4aa4aa-4aa-4aa.out
 42 45 0 0 0
SMALL
GASTEIGER

@<TRIPOS>ATOM
      1 C          -0.3676    0.1056   -0.0023 C.ar    1  LIG1       -0.0612
      2 C           1.0240    0.0501   -0.0007 C.ar    1  LIG1       -0.0540
      3 C          -1.0268    1.3347   -0.0040 C.ar    1  LIG1       -0.0617
      4 C           1.8097    1.2188   -0.0007 C.ar    1  LIG1       -0.0179
      5 H           1.4954   -0.9257    0.0008 H       1  LIG1        0.0624
      6 C          -0.2695    2.5060   -0.0040 C.ar    1  LIG1       -0.0612
      7 C           1.1219    2.4477   -0.0024 C.ar    1  LIG1       -0.0540
      8 H          -0.7623    3.4740   -0.0054 H       1  LIG1        0.0618
      9 H          -2.1118    1.3791   -0.0053 H       1  LIG1        0.0618
     10 H          -0.9377   -0.8192   -0.0022 H       1  LIG1        0.0618
     11 H           1.6715    3.3817   -0.0028 H       1  LIG1        0.0624
     12 C           4.0938    2.3186    0.0034 C.ar    1  LIG1       -0.0535
     13 C           5.4816    2.2625    0.0051 C.ar    1  LIG1       -0.0535
     14 C           3.2986    1.1582    0.0010 C.ar    1  LIG1       -0.0178
     15 C           6.1798    1.0411    0.0044 C.ar    1  LIG1       -0.0178
     16 H           6.0220    3.2021    0.0070 H       1  LIG1        0.0624
     17 C           3.9971   -0.0629    0.0004 C.ar    1  LIG1       -0.0535
     18 C           5.3849   -0.1197    0.0020 C.ar    1  LIG1       -0.0535
     19 H           3.4577   -1.0029   -0.0017 H       1  LIG1        0.0624
     20 H           3.6325    3.2992    0.0044 H       1  LIG1        0.0624
     21 H           5.8471   -1.0999    0.0012 H       1  LIG1        0.0624
     22 C           8.4596    2.1418    0.0079 C.ar    1  LIG1       -0.0535
     23 C           9.8474    2.0853    0.0096 C.ar    1  LIG1       -0.0535
     24 C           7.6649    0.9810    0.0061 C.ar    1  LIG1       -0.0178
     25 C          10.5461    0.8643    0.0095 C.ar    1  LIG1       -0.0178
     26 H          10.3866    3.0254    0.0112 H       1  LIG1        0.0624
     27 C           8.3632   -0.2404    0.0061 C.ar    1  LIG1       -0.0535
     28 C           9.7510   -0.2962    0.0077 C.ar    1  LIG1       -0.0535
     29 H           7.8230   -1.1800    0.0048 H       1  LIG1        0.0624
     30 H           7.9973    3.1219    0.0081 H       1  LIG1        0.0624
     31 H          10.2126   -1.2768    0.0073 H       1  LIG1        0.0624
     32 C          12.7229   -0.4249    0.0136 C.ar    1  LIG1       -0.0540
     33 C          14.1144   -0.4831    0.0153 C.ar    1  LIG1       -0.0612
     34 C          12.0350    0.8038    0.0113 C.ar    1  LIG1       -0.0179
     35 C          14.8715    0.6883    0.0147 C.ar    1  LIG1       -0.0617
     36 H          14.6072   -1.4511    0.0171 H       1  LIG1        0.0618
     37 C          12.8206    1.9726    0.0107 C.ar    1  LIG1       -0.0540
     38 C          14.2122    1.9174    0.0124 C.ar    1  LIG1       -0.0612
     39 H          12.3490    2.9483    0.0087 H       1  LIG1        0.0624
     40 H          15.9565    0.6441    0.0160 H       1  LIG1        0.0618
     41 H          12.1735   -1.3591    0.0144 H       1  LIG1        0.0624
     42 H          14.7823    2.8422    0.0118 H       1  LIG1        0.0618
@<TRIPOS>BOND
     1     8     6    1
     2     9     3    1
     3     6     3   ar
     4     6     7   ar
     5     3     1   ar
     6    11     7    1
     7     7     4   ar
     8     1    10    1
     9     1     2   ar
    10    19    17    1
    11     4     2   ar
    12     4    14    1
    13     2     5    1
    14    17    14   ar
    15    17    18   ar
    16    14    12   ar
    17    21    18    1
    18    18    15   ar
    19    12    20    1
    20    12    13   ar
    21    15    13   ar
    22    15    24    1
    23    29    27    1
    24    13    16    1
    25    27    24   ar
    26    27    28   ar
    27    24    22   ar
    28    31    28    1
    29    28    25   ar
    30    22    30    1
    31    22    23   ar
    32    39    37    1
    33    25    23   ar
    34    25    34    1
    35    23    26    1
    36    37    34   ar
    37    37    38   ar
    38    34    32   ar
    39    42    38    1
    40    38    35   ar
    41    32    41    1
    42    32    33   ar
    43    35    33   ar
    44    35    40    1
    45    33    36    1
