@<TRIPOS>MOLECULE
mol_data/opt/b3lyp/geoms/mol2/4aa4aa4aa-4aa.out
 42 45 0 0 0
SMALL
GASTEIGER

@<TRIPOS>ATOM
      1 C          -0.3456    0.0703   -0.0021 C.ar    1  LIG1       -0.0612
      2 C           1.0468    0.0416   -0.0005 C.ar    1  LIG1       -0.0540
      3 C          -1.0282    1.2866   -0.0040 C.ar    1  LIG1       -0.0617
      4 C           1.8100    1.2251   -0.0007 C.ar    1  LIG1       -0.0179
      5 H           1.5370   -0.9249    0.0010 H       1  LIG1        0.0624
      6 C          -0.2935    2.4722   -0.0042 C.ar    1  LIG1       -0.0612
      7 C           1.0988    2.4406   -0.0026 C.ar    1  LIG1       -0.0540
      8 H          -0.8048    3.4306   -0.0057 H       1  LIG1        0.0618
      9 H          -2.1138    1.3102   -0.0053 H       1  LIG1        0.0618
     10 H          -0.8978   -0.8652   -0.0019 H       1  LIG1        0.0618
     11 H           1.6301    3.3850   -0.0029 H       1  LIG1        0.0624
     12 C           4.0212   -0.0149    0.0024 C.ar    1  LIG1       -0.0535
     13 C           5.4098   -0.0455    0.0040 C.ar    1  LIG1       -0.0535
     14 C           3.2998    1.1927    0.0010 C.ar    1  LIG1       -0.0178
     15 C           6.1826    1.1301    0.0044 C.ar    1  LIG1       -0.0178
     16 H           5.8905   -1.0169    0.0052 H       1  LIG1        0.0624
     17 C           4.0730    2.3680    0.0014 C.ar    1  LIG1       -0.0535
     18 C           5.4616    2.3381    0.0030 C.ar    1  LIG1       -0.0535
     19 H           3.5931    3.3397    0.0005 H       1  LIG1        0.0624
     20 H           3.4998   -0.9648    0.0022 H       1  LIG1        0.0624
     21 H           5.9841    3.2877    0.0030 H       1  LIG1        0.0624
     22 C           8.4413    2.2735    0.0087 C.ar    1  LIG1       -0.0535
     23 C           9.8300    2.2431    0.0103 C.ar    1  LIG1       -0.0535
     24 C           7.6687    1.0979    0.0061 C.ar    1  LIG1       -0.0178
     25 C          10.5514    1.0355    0.0095 C.ar    1  LIG1       -0.0178
     26 H          10.3513    3.1932    0.0126 H       1  LIG1        0.0624
     27 C           8.3898   -0.1101    0.0054 C.ar    1  LIG1       -0.0535
     28 C           9.7784   -0.1398    0.0070 C.ar    1  LIG1       -0.0535
     29 H           7.8674   -1.0598    0.0031 H       1  LIG1        0.0624
     30 H           7.9605    3.2449    0.0097 H       1  LIG1        0.0624
     31 H          10.2584   -1.1115    0.0059 H       1  LIG1        0.0624
     32 C          12.7521   -0.2126    0.0131 C.ar    1  LIG1       -0.0540
     33 C          14.1445   -0.2446    0.0147 C.ar    1  LIG1       -0.0612
     34 C          12.0413    1.0030    0.0113 C.ar    1  LIG1       -0.0179
     35 C          14.8794    0.9408    0.0147 C.ar    1  LIG1       -0.0617
     36 H          14.6554   -1.2032    0.0162 H       1  LIG1        0.0618
     37 C          12.8048    2.1864    0.0113 C.ar    1  LIG1       -0.0540
     38 C          14.1971    2.1573    0.0129 C.ar    1  LIG1       -0.0612
     39 H          12.3149    3.1531    0.0096 H       1  LIG1        0.0624
     40 H          15.9650    0.9170    0.0160 H       1  LIG1        0.0618
     41 H          12.2204   -1.1569    0.0135 H       1  LIG1        0.0624
     42 H          14.7498    3.0926    0.0128 H       1  LIG1        0.0618
@<TRIPOS>BOND
     1     8     6    1
     2     9     3    1
     3     6     3   ar
     4     6     7   ar
     5     3     1   ar
     6    11     7    1
     7     7     4   ar
     8     1    10    1
     9     1     2   ar
    10     4     2   ar
    11     4    14    1
    12     2     5    1
    13    19    17    1
    14    14    17   ar
    15    14    12   ar
    16    17    18   ar
    17    20    12    1
    18    12    13   ar
    19    21    18    1
    20    18    15   ar
    21    29    27    1
    22    13    15   ar
    23    13    16    1
    24    15    24    1
    25    27    24   ar
    26    27    28   ar
    27    31    28    1
    28    24    22   ar
    29    28    25   ar
    30    22    30    1
    31    22    23   ar
    32    25    23   ar
    33    25    34    1
    34    39    37    1
    35    23    26    1
    36    37    34   ar
    37    37    38   ar
    38    34    32   ar
    39    42    38    1
    40    38    35   ar
    41    32    41    1
    42    32    33   ar
    43    35    33   ar
    44    35    40    1
    45    33    36    1
