@<TRIPOS>MOLECULE
mol_data/opt/b3lyp/geoms/mol2/4aa6ld-6di6ia13ld12ie-13hd-12he.out
 98 105 0 0 0
SMALL
GASTEIGER

@<TRIPOS>ATOM
      1 C          -0.5738    0.3958    0.5118 C.ar    1  LIG1       -0.0612
      2 C           0.8186    0.4298    0.5546 C.ar    1  LIG1       -0.0539
      3 C          -1.2817    1.4497   -0.0668 C.ar    1  LIG1       -0.0617
      4 C           1.5306    1.5166    0.0186 C.ar    1  LIG1       -0.0128
      5 H           1.3622   -0.4050    0.9876 H       1  LIG1        0.0624
      6 C          -0.5859    2.5335   -0.6054 C.ar    1  LIG1       -0.0612
      7 C           0.8063    2.5679   -0.5687 C.ar    1  LIG1       -0.0539
      8 H          -1.1292    3.3593   -1.0552 H       1  LIG1        0.0618
      9 H          -2.3667    1.4250   -0.1018 H       1  LIG1        0.0618
     10 H          -1.1038   -0.4575    0.9245 H       1  LIG1        0.0618
     11 H           1.3364    3.4138   -0.9891 H       1  LIG1        0.0624
     12 C           3.8777    1.9775   -0.9202 C.ar    1  LIG1        0.2230
     13 C           3.0104    1.5460    0.1264 C.ar    1  LIG1        0.0449
     14 C           3.6501    1.1328    1.2870 C.ar    1  LIG1       -0.0295
     15 C           5.0549    1.1322    1.4012 C.ar    1  LIG1        0.0786
     16 C           5.8097    1.5526    0.2866 C.ar    1  LIG1        0.0949
     17 N           5.2011    1.9574   -0.8366 N.ar    1  LIG1       -0.2110
     18 H           3.0571    0.8294    2.1428 H       1  LIG1        0.0639
     19 O           3.3141    2.4086   -2.0563 O.3     1  LIG1       -0.4792
     20 C           4.1883    2.8671   -3.1059 C.3     1  LIG1        0.0804
     21 H           3.5197    3.1894   -3.9038 H       1  LIG1        0.0660
     22 H           4.8111    3.6941   -2.7592 H       1  LIG1        0.0660
     23 H           4.8319    2.0546   -3.4516 H       1  LIG1        0.0660
     24 N           6.0912    0.4264    3.6717 N.1     1  LIG1       -0.1908
     25 C           5.6423    0.7504    2.6474 C.1     1  LIG1        0.1013
     26 C           8.0082    2.6517   -0.3344 C.ar    1  LIG1        0.1499
     27 C           7.2930    1.5923    0.2666 C.ar    1  LIG1        0.0379
     28 C           8.0701    0.5744    0.8278 C.ar    1  LIG1       -0.0448
     29 C           9.4645    0.5983    0.7817 C.ar    1  LIG1       -0.0237
     30 C          10.0708    1.6960    0.1237 C.ar    1  LIG1        0.0771
     31 N           9.3431    2.6949   -0.3984 N.ar    1  LIG1       -0.2354
     32 H           7.5804   -0.2618    1.3149 H       1  LIG1        0.0628
     33 N           6.8854    4.7750   -1.3491 N.1     1  LIG1       -0.1893
     34 C           7.3533    3.8106   -0.8996 C.1     1  LIG1        0.1198
     35 C          10.2489   -0.5091    1.4422 C.3     1  LIG1       -0.0377
     36 H          11.1989   -0.1457    1.8397 H       1  LIG1        0.0278
     37 H          10.4800   -1.3174    0.7386 H       1  LIG1        0.0278
     38 H           9.6731   -0.9456    2.2625 H       1  LIG1        0.0278
     39 C          12.2537    2.9793    0.3575 C.ar    1  LIG1        0.0481
     40 C          11.5451    1.8207   -0.0451 C.ar    1  LIG1        0.0217
     41 C          12.2767    0.7980   -0.6642 C.ar    1  LIG1       -0.0488
     42 C          13.6400    0.9292   -0.8809 C.ar    1  LIG1       -0.0335
     43 C          14.2605    2.1128   -0.4531 C.ar    1  LIG1        0.0910
     44 N          13.5695    3.1020    0.1587 N.ar    1  LIG1       -0.2496
     45 H          11.7652   -0.0978   -1.0039 H       1  LIG1        0.0625
     46 C          11.5839    4.1404    1.0497 C.3     1  LIG1       -0.0217
     47 H          10.9359    3.8058    1.8657 H       1  LIG1        0.0293
     48 H          10.9516    4.6958    0.3512 H       1  LIG1        0.0293
     49 H          12.3488    4.8072    1.4501 H       1  LIG1        0.0293
     50 H          14.2162    0.1564   -1.3729 H       1  LIG1        0.0640
     51 C          15.6756    2.3798   -0.6257 C.ar    1  LIG1        0.1090
     52 C          16.7327    1.6626   -1.1847 C.ar    1  LIG1        0.1648
     53 C          17.9160    2.4658   -1.0699 C.ar    1  LIG1        0.1222
     54 C          17.5336    3.6624   -0.4139 C.ar    1  LIG1        0.1041
     55 N          16.2011    3.5751   -0.1791 N.ar    1  LIG1       -0.3466
     56 H          15.6188    4.2565    0.2886 H       1  LIG1        0.1662
     57 O          16.5504    0.4419   -1.7382 O.3     1  LIG1       -0.4916
     58 C          17.6946   -0.3610   -2.0404 C.3     1  LIG1        0.0789
     59 H          17.3004   -1.3390   -2.3187 H       1  LIG1        0.0660
     60 H          18.2668    0.0547   -2.8737 H       1  LIG1        0.0660
     61 H          18.3470   -0.4629   -1.1669 H       1  LIG1        0.0660
     62 N          20.2309    2.0565   -2.1365 N.1     1  LIG1       -0.1907
     63 C          19.1876    2.2322   -1.6458 C.1     1  LIG1        0.1051
     64 C          18.2763    4.8338   -0.0335 C.ar    1  LIG1        0.1573
     65 C          19.5696    5.1009    0.3374 C.ar    1  LIG1        0.0129
     66 C          19.6183    6.5153    0.6263 C.ar    1  LIG1        0.0754
     67 C          18.3298    7.0140    0.4538 C.ar    1  LIG1        0.1692
     68 O          17.5147    5.9928    0.0490 O.2     1  LIG1       -0.4502
     69 C          20.7252    4.1603    0.4756 C.3     1  LIG1       -0.0349
     70 H          21.4211    4.5342    1.2311 H       1  LIG1        0.0279
     71 H          21.2753    4.0486   -0.4641 H       1  LIG1        0.0279
     72 H          20.3915    3.1631    0.7717 H       1  LIG1        0.0279
     73 C          20.7978    7.2221    0.9584 C.1     1  LIG1       -0.0655
     74 C          21.8393    7.7827    1.2304 C.1     1  LIG1       -0.1138
     75 H          22.7632    8.2719    1.4365 H       1  LIG1        0.1232
     76 C          17.6889    8.2823    0.5765 C.ar    1  LIG1        0.1061
     77 C          18.0258    9.4786    1.2231 C.ar    1  LIG1        0.0716
     78 C          16.9375   10.3886    1.0062 C.ar    1  LIG1        0.1013
     79 C          15.9450    9.7197    0.2538 C.ar    1  LIG1        0.1039
     80 N          16.4197    8.4716    0.0172 N.ar    1  LIG1       -0.3468
     81 H          15.9296    7.7744   -0.5207 H       1  LIG1        0.1662
     82 N          19.1168    9.7536    2.0074 N.pl3   1  LIG1       -0.3552
     83 H          19.9544    9.2078    1.8489 H       1  LIG1        0.1424
     84 H          19.2841   10.7317    2.1972 H       1  LIG1        0.1424
     85 N          16.9535   12.8430    1.7897 N.1     1  LIG1       -0.1907
     86 C          16.9327   11.7290    1.4365 C.1     1  LIG1        0.1033
     87 C          14.6654   10.1192   -0.2470 C.ar    1  LIG1        0.1739
     88 C          13.7905   11.1781   -0.0550 C.ar    1  LIG1        0.0881
     89 C          12.6314   10.8878   -0.8798 C.ar    1  LIG1        0.0837
     90 C          12.8811    9.6872   -1.4872 C.ar    1  LIG1        0.1099
     91 O          14.0855    9.2055   -1.1289 O.2     1  LIG1       -0.4583
     92 H          12.3040    9.0929   -2.1783 H       1  LIG1        0.1043
     93 N          13.8585   12.2644    0.7706 N.pl3   1  LIG1       -0.3540
     94 H          14.7551   12.5852    1.1089 H       1  LIG1        0.1425
     95 H          13.1813   12.9907    0.5873 H       1  LIG1        0.1425
     96 C          11.4894   11.7170   -0.9982 C.1     1  LIG1       -0.0646
     97 C          10.5394   12.4640   -1.0683 C.1     1  LIG1       -0.1138
     98 H           9.6886   13.1015   -1.1410 H       1  LIG1        0.1232
@<TRIPOS>BOND
     1    21    20    1
     2    23    20    1
     3    20    22    1
     4    20    19    1
     5    60    58    1
     6    59    58    1
     7    92    90    1
     8    62    63    3
     9    19    12    1
    10    58    57    1
    11    58    61    1
    12    57    52    1
    13    63    53    1
    14    90    91   ar
    15    90    89   ar
    16    50    42    1
    17    33    34    3
    18    52    53   ar
    19    52    51   ar
    20    98    97    1
    21    91    87   ar
    22    53    54   ar
    23    97    96    3
    24     8     6    1
    25    45    41    1
    26    96    89    1
    27    11     7    1
    28    12    17   ar
    29    12    13   ar
    30    34    26    1
    31    42    41   ar
    32    42    43   ar
    33    89    88   ar
    34    17    16   ar
    35    41    40   ar
    36    51    43    1
    37    51    55   ar
    38     6     7   ar
    39     6     3   ar
    40     7     4   ar
    41    81    80    1
    42    71    69    1
    43    43    44   ar
    44    54    55   ar
    45    54    64    1
    46    31    26   ar
    47    31    30   ar
    48    26    27   ar
    49    87    88   ar
    50    87    79    1
    51    55    56    1
    52     9     3    1
    53     3     1   ar
    54    88    93    1
    55    40    30    1
    56    40    39   ar
    57    64    68   ar
    58    64    65   ar
    59    80    79   ar
    60    80    76   ar
    61     4    13    1
    62     4     2   ar
    63    68    67   ar
    64    30    29   ar
    65    13    14   ar
    66    44    39   ar
    67    79    78   ar
    68    27    16    1
    69    27    28   ar
    70    16    15   ar
    71    65    69    1
    72    65    66   ar
    73    48    46    1
    74    39    46    1
    75    67    76    1
    76    67    66   ar
    77    69    72    1
    78    69    70    1
    79     1     2   ar
    80     1    10    1
    81     2     5    1
    82    76    77   ar
    83    95    93    1
    84    66    73    1
    85    37    35    1
    86    93    94    1
    87    29    28   ar
    88    29    35    1
    89    28    32    1
    90    73    74    3
    91    78    77   ar
    92    78    86    1
    93    46    49    1
    94    46    47    1
    95    77    82    1
    96    74    75    1
    97    14    15   ar
    98    14    18    1
    99    15    25    1
   100    86    85    3
   101    35    36    1
   102    35    38    1
   103    83    82    1
   104    82    84    1
   105    25    24    3
