@<TRIPOS>MOLECULE
mol_data/opt/b3lyp/geoms/mol2/4ad12lf-13dh6fl-6hl-4hf-4ii6fd-.out
 105 112 0 0 0
SMALL
GASTEIGER

@<TRIPOS>ATOM
      1 C          -0.3716   -0.2405    0.4848 C.ar    1  LIG1       -0.0610
      2 C           1.0156   -0.2400    0.4381 C.ar    1  LIG1       -0.0497
      3 C          -1.0927    0.9428    0.2999 C.ar    1  LIG1       -0.0605
      4 C           1.7489    0.9427    0.1965 C.ar    1  LIG1        0.0384
      5 H           1.5619   -1.1605    0.5952 H       1  LIG1        0.0625
      6 C          -0.4015    2.1231    0.0681 C.ar    1  LIG1       -0.0437
      7 C           1.0058    2.1431    0.0125 C.ar    1  LIG1        0.0625
      8 H          -0.9366    3.0556   -0.0758 H       1  LIG1        0.0631
      9 H          -2.1768    0.9452    0.3399 H       1  LIG1        0.0618
     10 H          -0.8950   -1.1727    0.6749 H       1  LIG1        0.0618
     11 N           1.9262    4.5215   -0.4533 N.1     1  LIG1       -0.1908
     12 C           1.5857    3.4284   -0.2421 C.1     1  LIG1        0.0999
     13 C           3.1963    0.8677    0.1504 C.ar    1  LIG1        0.1822
     14 C           4.0795   -0.1979    0.1766 C.ar    1  LIG1        0.2084
     15 C           5.4044    0.3392    0.1387 C.ar    1  LIG1        0.2075
     16 C           5.2657    1.7161    0.0774 C.ar    1  LIG1        0.1981
     17 O           3.9227    2.0275    0.0965 O.2     1  LIG1       -0.4457
     18 O           3.7373   -1.5059    0.2894 O.3     1  LIG1       -0.4884
     19 C           4.3239   -2.4068   -0.6685 C.3     1  LIG1        0.0791
     20 H           3.9029   -3.3876   -0.4447 H       1  LIG1        0.0660
     21 H           4.0505   -2.1134   -1.6885 H       1  LIG1        0.0660
     22 H           5.4102   -2.4335   -0.5693 H       1  LIG1        0.0660
     23 O           6.4844   -0.4692    0.1635 O.3     1  LIG1       -0.5008
     24 H           7.3243    0.0201    0.1759 H       1  LIG1        0.2924
     25 C           6.1520    2.8429    0.0179 C.ar    1  LIG1        0.1058
     26 C           7.5618    2.9503    0.0546 C.ar    1  LIG1        0.1013
     27 C           7.8973    4.3356   -0.0541 C.ar    1  LIG1        0.0687
     28 C           6.6988    5.0461   -0.1446 C.ar    1  LIG1        0.0745
     29 N           5.6757    4.1043   -0.1100 N.ar    1  LIG1       -0.3490
     30 H           4.7008    4.3532   -0.2361 H       1  LIG1        0.1661
     31 N           9.2450    1.0079    0.2322 N.1     1  LIG1       -0.1907
     32 C           8.4843    1.8933    0.1569 C.1     1  LIG1        0.1033
     33 N           9.1942    4.8577   -0.0291 N.pl3   1  LIG1       -0.3553
     34 H           9.9065    4.1396   -0.0983 H       1  LIG1        0.1424
     35 H           9.3520    5.5686   -0.7352 H       1  LIG1        0.1424
     36 C           5.2057    7.0207   -0.5957 C.ar    1  LIG1        0.2225
     37 C           6.4486    6.4784   -0.1974 C.ar    1  LIG1        0.0650
     38 C           7.4037    7.4249    0.2071 C.ar    1  LIG1       -0.0035
     39 C           7.1221    8.7910    0.1886 C.ar    1  LIG1        0.1469
     40 C           5.8439    9.2340   -0.2397 C.ar    1  LIG1        0.1197
     41 N           4.9255    8.3090   -0.6025 N.ar    1  LIG1       -0.2087
     42 H           8.3527    7.0711    0.5875 H       1  LIG1        0.0663
     43 O           4.2482    6.1453   -0.9979 O.3     1  LIG1       -0.4919
     44 H           3.3844    6.5774   -1.0639 H       1  LIG1        0.2937
     45 O           8.0215    9.7365    0.6018 O.3     1  LIG1       -0.4929
     46 C           9.2254    9.3065    1.2211 C.3     1  LIG1        0.0789
     47 H           9.7389   10.2157    1.5360 H       1  LIG1        0.0660
     48 H           9.0259    8.6801    2.0990 H       1  LIG1        0.0660
     49 H           9.8690    8.7540    0.5244 H       1  LIG1        0.0660
     50 C           4.1015   11.0914   -0.0730 C.ar    1  LIG1        0.1264
     51 C           5.4414   10.6572   -0.3077 C.ar    1  LIG1        0.0470
     52 C           6.3688   11.6598   -0.6248 C.ar    1  LIG1       -0.0052
     53 C           5.9920   12.9991   -0.6963 C.ar    1  LIG1        0.1468
     54 C           4.6385   13.3291   -0.4762 C.ar    1  LIG1        0.1165
     55 N           3.7460   12.3807   -0.1600 N.ar    1  LIG1       -0.2280
     56 H           7.3969   11.3788   -0.7958 H       1  LIG1        0.0662
     57 N           3.0977   10.2298    0.3132 N.pl3   1  LIG1       -0.3426
     58 H           2.1783   10.6429    0.2472 H       1  LIG1        0.1437
     59 H           3.1972    9.2817   -0.0224 H       1  LIG1        0.1437
     60 O           6.8568   14.0335   -0.9351 O.3     1  LIG1       -0.4929
     61 C           8.2115   13.7280   -1.2090 C.3     1  LIG1        0.0789
     62 H           8.7044   14.6848   -1.3862 H       1  LIG1        0.0660
     63 H           8.6946   13.2230   -0.3617 H       1  LIG1        0.0660
     64 H           8.3169   13.0985   -2.1032 H       1  LIG1        0.0660
     65 C           4.3005   15.6078   -1.6017 C.ar    1  LIG1        0.0348
     66 C           3.7341   16.8895   -1.5180 C.ar    1  LIG1       -0.0292
     67 C           4.1262   14.7277   -0.5088 C.ar    1  LIG1        0.0281
     68 C           2.9898   17.3273   -0.4204 C.ar    1  LIG1        0.0256
     69 H           3.8646   17.5659   -2.3587 H       1  LIG1        0.0643
     70 C           3.3593   15.1576    0.5839 C.ar    1  LIG1       -0.0085
     71 C           2.7970   16.4273    0.6454 C.ar    1  LIG1        0.1253
     72 H           3.2024   14.4565    1.3998 H       1  LIG1        0.0661
     73 N           5.0110   15.2624   -2.7592 N.pl3   1  LIG1       -0.3574
     74 H           5.1754   14.2711   -2.8668 H       1  LIG1        0.1423
     75 H           4.6208   15.6607   -3.6034 H       1  LIG1        0.1423
     76 O           2.0603   16.8489    1.7274 O.3     1  LIG1       -0.5061
     77 H           2.0292   16.1303    2.3721 H       1  LIG1        0.2922
     78 C           3.1992   19.8579   -0.4637 C.ar    1  LIG1       -0.0420
     79 C           2.5570   21.1000   -0.4715 C.ar    1  LIG1       -0.0501
     80 C           2.3985   18.6974   -0.3992 C.ar    1  LIG1       -0.0111
     81 C           1.1633   21.2350   -0.4132 C.ar    1  LIG1       -0.0096
     82 H           3.1616   22.0022   -0.5234 H       1  LIG1        0.0627
     83 C           1.0061   18.8358   -0.3191 C.ar    1  LIG1       -0.0502
     84 C           0.3607   20.0747   -0.3224 C.ar    1  LIG1       -0.0420
     85 H           0.4052   17.9355   -0.2350 H       1  LIG1        0.0627
     86 C           4.7098   19.8028   -0.5004 C.3     1  LIG1       -0.0391
     87 H           5.1365   20.7649   -0.2035 H       1  LIG1        0.0278
     88 H           5.0890   19.5713   -1.5021 H       1  LIG1        0.0278
     89 H           5.0981   19.0306    0.1687 H       1  LIG1        0.0278
     90 C          -1.1446   20.1482   -0.1881 C.3     1  LIG1       -0.0391
     91 H          -1.5650   19.1539   -0.0203 H       1  LIG1        0.0278
     92 H          -1.6214   20.5651   -1.0822 H       1  LIG1        0.0278
     93 H          -1.4378   20.7850    0.6533 H       1  LIG1        0.0278
     94 C          -0.1838   23.0696   -1.5341 C.ar    1  LIG1        0.2203
     95 C           0.5671   22.6034   -0.4226 C.ar    1  LIG1        0.0450
     96 C           0.7507   23.4995    0.6222 C.ar    1  LIG1       -0.0301
     97 C           0.1807   24.7843    0.5552 C.ar    1  LIG1        0.0706
     98 C          -0.5630   25.1108   -0.5884 C.ar    1  LIG1        0.0488
     99 N          -0.7372   24.2766   -1.6111 N.ar    1  LIG1       -0.2197
    100 H           1.3247   23.2020    1.4937 H       1  LIG1        0.0639
    101 H          -1.0287   26.0897   -0.6736 H       1  LIG1        0.0844
    102 O          -0.3820   22.2893   -2.6178 O.3     1  LIG1       -0.4920
    103 H           0.1191   21.4666   -2.4950 H       1  LIG1        0.2937
    104 N           0.4747   26.4992    2.4781 N.1     1  LIG1       -0.1908
    105 C           0.3435   25.7281    1.6161 C.1     1  LIG1        0.1007
@<TRIPOS>BOND
     1    75    73    1
     2    74    73    1
     3    73    65    1
     4   102   103    1
     5   102    94    1
     6    69    66    1
     7    64    61    1
     8    21    19    1
     9    99    94   ar
    10    99    98   ar
    11    65    66   ar
    12    65    67   ar
    13    94    95   ar
    14    66    68   ar
    15    88    86    1
    16    62    61    1
    17    61    60    1
    18    61    63    1
    19    92    90    1
    20    44    43    1
    21    43    36    1
    22    60    53    1
    23    56    52    1
    24    35    33    1
    25    53    52   ar
    26    53    54   ar
    27   101    98    1
    28    19    22    1
    29    19    20    1
    30    19    18    1
    31    52    51   ar
    32    41    36   ar
    33    41    40   ar
    34    36    37   ar
    35    98    97   ar
    36    82    79    1
    37    67    54    1
    38    67    70   ar
    39    86    78    1
    40    86    87    1
    41    86    89    1
    42    54    55   ar
    43    79    78   ar
    44    79    81   ar
    45    78    80   ar
    46    11    12    3
    47    95    81    1
    48    95    96   ar
    49    68    80    1
    50    68    71   ar
    51    81    84   ar
    52    80    83   ar
    53    84    83   ar
    54    84    90    1
    55    83    85    1
    56    51    40    1
    57    51    50   ar
    58    12     7    1
    59    40    39   ar
    60    30    29    1
    61    37    28    1
    62    37    38   ar
    63    90    91    1
    64    90    93    1
    65    55    50   ar
    66    28    29   ar
    67    28    27   ar
    68    29    25   ar
    69    34    33    1
    70     8     6    1
    71    50    57    1
    72    27    33    1
    73    27    26   ar
    74    59    57    1
    75     7     6   ar
    76     7     4   ar
    77    25    26   ar
    78    25    16    1
    79    26    32    1
    80     6     3   ar
    81    16    17   ar
    82    16    15   ar
    83    17    13   ar
    84    15    23    1
    85    15    14   ar
    86    13    14   ar
    87    13     4    1
    88    32    31    3
    89    23    24    1
    90    14    18    1
    91    39    38   ar
    92    39    45    1
    93     4     2   ar
    94    38    42    1
    95    58    57    1
    96     3     9    1
    97     3     1   ar
    98     2     1   ar
    99     2     5    1
   100     1    10    1
   101    49    46    1
   102    97    96   ar
   103    97   105    1
   104    70    71   ar
   105    70    72    1
   106    45    46    1
   107    96   100    1
   108    71    76    1
   109    46    47    1
   110    46    48    1
   111   105   104    3
   112    76    77    1
