@<TRIPOS>MOLECULE
mol_data/opt/b3lyp/geoms/mol2/4ae.out
 14 14 0 0 0
SMALL
GASTEIGER

@<TRIPOS>ATOM
      1 C           0.0455    0.0073    0.0005 C.ar    1  LIG1       -0.0617
      2 C           1.4419   -0.0175    0.0001 C.ar    1  LIG1       -0.0606
      3 C          -0.6272    1.2312    0.0004 C.ar    1  LIG1       -0.0606
      4 C           2.1654    1.1721   -0.0004 C.ar    1  LIG1       -0.0463
      5 H           1.9693   -0.9668    0.0002 H       1  LIG1        0.0618
      6 C           0.0882    2.4257   -0.0001 C.ar    1  LIG1       -0.0463
      7 C           1.4957    2.4102   -0.0005 C.ar    1  LIG1        0.0247
      8 H          -0.4302    3.3789   -0.0002 H       1  LIG1        0.0630
      9 H           3.2506    1.1577   -0.0007 H       1  LIG1        0.0630
     10 H          -1.7125    1.2553    0.0007 H       1  LIG1        0.0618
     11 H          -0.5157   -0.9225    0.0009 H       1  LIG1        0.0618
     12 C           2.2348    3.6346   -0.0010 C.1     1  LIG1       -0.0697
     13 C           2.8600    4.6708   -0.0015 C.1     1  LIG1       -0.1139
     14 H           3.4105    5.5828   -0.0022 H       1  LIG1        0.1232
@<TRIPOS>BOND
     1    14    13    1
     2    13    12    3
     3    12     7    1
     4     9     4    1
     5     7     4   ar
     6     7     6   ar
     7     4     2   ar
     8     8     6    1
     9     6     3   ar
    10     2     5    1
    11     2     1   ar
    12     3     1   ar
    13     3    10    1
    14     1    11    1
