@<TRIPOS>MOLECULE
mol_data/opt/b3lyp/geoms/mol2/4ae4ae4ae4ae.out
 50 53 0 0 0
SMALL
GASTEIGER

@<TRIPOS>ATOM
      1 C           0.0351    0.7022    1.9422 C.ar    1  LIG1       -0.0611
      2 C           1.4027    0.8014    1.6976 C.ar    1  LIG1       -0.0529
      3 C          -0.8758    1.1264    0.9737 C.ar    1  LIG1       -0.0606
      4 C           1.9021    1.3215    0.4940 C.ar    1  LIG1       -0.0025
      5 H           2.1086    0.4921    2.4623 H       1  LIG1        0.0624
      6 C          -0.4084    1.6402   -0.2306 C.ar    1  LIG1       -0.0457
      7 C           0.9717    1.7442   -0.4916 C.ar    1  LIG1        0.0324
      8 H          -1.1049    1.9630   -0.9973 H       1  LIG1        0.0630
      9 H          -1.9440    1.0564    1.1542 H       1  LIG1        0.0618
     10 H          -0.3167    0.3031    2.8888 H       1  LIG1        0.0618
     11 C           1.3785    2.2418   -1.7701 C.1     1  LIG1       -0.0691
     12 C           1.6638    2.6611   -2.8691 C.1     1  LIG1       -0.1139
     13 H           1.9393    3.0283   -3.8305 H       1  LIG1        0.1232
     14 C           4.1897    0.2994    0.6083 C.ar    1  LIG1       -0.0533
     15 C           5.5707    0.3740    0.4640 C.ar    1  LIG1       -0.0523
     16 C           3.3745    1.3993    0.2987 C.ar    1  LIG1       -0.0155
     17 C           6.2075    1.5397    0.0149 C.ar    1  LIG1       -0.0024
     18 H           6.1798   -0.4867    0.7226 H       1  LIG1        0.0624
     19 C           3.9960    2.5670   -0.1546 C.ar    1  LIG1       -0.0380
     20 C           5.3912    2.6568   -0.3025 C.ar    1  LIG1        0.0329
     21 H           3.3979    3.4354   -0.4024 H       1  LIG1        0.0636
     22 H           3.7354   -0.6248    0.9525 H       1  LIG1        0.0624
     23 C           5.9295    3.8837   -0.8062 C.1     1  LIG1       -0.0690
     24 C           6.3301    4.9391   -1.2426 C.1     1  LIG1       -0.1139
     25 H           6.7045    5.8607   -1.6240 H       1  LIG1        0.1232
     26 C           8.3500    0.4787   -0.7379 C.ar    1  LIG1       -0.0533
     27 C           9.7370    0.4593   -0.8351 C.ar    1  LIG1       -0.0523
     28 C           7.6877    1.5505   -0.1184 C.ar    1  LIG1       -0.0155
     29 C          10.5309    1.4931   -0.3188 C.ar    1  LIG1       -0.0024
     30 H          10.2259   -0.3867   -1.3083 H       1  LIG1        0.0624
     31 C           8.4675    2.5908    0.3969 C.ar    1  LIG1       -0.0380
     32 C           9.8705    2.5819    0.3079 C.ar    1  LIG1        0.0329
     33 H           7.9906    3.4337    0.8819 H       1  LIG1        0.0636
     34 H           7.7715   -0.3383   -1.1584 H       1  LIG1        0.0624
     35 C          10.5784    3.7080    0.8370 C.1     1  LIG1       -0.0690
     36 C          11.1253    4.6868    1.2926 C.1     1  LIG1       -0.1139
     37 H          11.6272    5.5389    1.6888 H       1  LIG1        0.1232
     38 C          12.5781    1.0649   -1.6959 C.ar    1  LIG1       -0.0539
     39 C          13.9603    0.9471   -1.8382 C.ar    1  LIG1       -0.0600
     40 C          12.0095    1.4104   -0.4583 C.ar    1  LIG1       -0.0156
     41 C          14.8013    1.1659   -0.7517 C.ar    1  LIG1       -0.0463
     42 H          14.3828    0.6883   -2.8045 H       1  LIG1        0.0618
     43 C          12.8607    1.6294    0.6320 C.ar    1  LIG1       -0.0386
     44 C          14.2543    1.5093    0.4984 C.ar    1  LIG1        0.0253
     45 H          12.4470    1.8860    1.5997 H       1  LIG1        0.0636
     46 H          15.8774    1.0755   -0.8554 H       1  LIG1        0.0630
     47 H          11.9310    0.9093   -2.5537 H       1  LIG1        0.0624
     48 C          15.1066    1.7270    1.6263 C.1     1  LIG1       -0.0696
     49 C          15.8309    1.9103    2.5783 C.1     1  LIG1       -0.1139
     50 H          16.4663    2.0711    3.4180 H       1  LIG1        0.1232
@<TRIPOS>BOND
     1    13    12    1
     2    12    11    3
     3    42    39    1
     4    47    38    1
     5    39    38   ar
     6    39    41   ar
     7    11     7    1
     8    38    40   ar
     9    25    24    1
    10    30    27    1
    11    24    23    3
    12    34    26    1
    13     8     6    1
    14    46    41    1
    15    27    26   ar
    16    27    29   ar
    17    23    20    1
    18    41    44   ar
    19    26    28   ar
    20     7     6   ar
    21     7     4   ar
    22    40    29    1
    23    40    43   ar
    24    21    19    1
    25    29    32   ar
    26    20    19   ar
    27    20    17   ar
    28     6     3   ar
    29    19    16   ar
    30    28    17    1
    31    28    31   ar
    32    17    15   ar
    33    16     4    1
    34    16    14   ar
    35    32    31   ar
    36    32    35    1
    37    31    33    1
    38    15    14   ar
    39    15    18    1
    40     4     2   ar
    41    44    43   ar
    42    44    48    1
    43    14    22    1
    44    43    45    1
    45    35    36    3
    46     3     9    1
    47     3     1   ar
    48    36    37    1
    49    48    49    3
    50     2     1   ar
    51     2     5    1
    52     1    10    1
    53    49    50    1
