@<TRIPOS>MOLECULE
mol_data/opt/b3lyp/geoms/mol2/4ae4ae-4ae.out
 38 40 0 0 0
SMALL
GASTEIGER

@<TRIPOS>ATOM
      1 C          -0.1262    0.0823    0.5988 C.ar    1  LIG1       -0.0611
      2 C           1.2661    0.0949    0.5639 C.ar    1  LIG1       -0.0529
      3 C          -0.8396    1.2330    0.2608 C.ar    1  LIG1       -0.0606
      4 C           1.9859    1.2413    0.1949 C.ar    1  LIG1       -0.0025
      5 H           1.8183   -0.7951    0.8496 H       1  LIG1        0.0624
      6 C          -0.1521    2.3820   -0.1131 C.ar    1  LIG1       -0.0457
      7 C           1.2555    2.4075   -0.1550 C.ar    1  LIG1        0.0324
      8 H          -0.6935    3.2806   -0.3896 H       1  LIG1        0.0630
      9 H          -1.9250    1.2359    0.2871 H       1  LIG1        0.0618
     10 H          -0.6505   -0.8207    0.8969 H       1  LIG1        0.0618
     11 C           1.8910    3.6128   -0.5929 C.1     1  LIG1       -0.0691
     12 C           2.3694    4.6558   -0.9782 C.1     1  LIG1       -0.1139
     13 H           2.8097    5.5636   -1.3203 H       1  LIG1        0.1232
     14 C           4.2603    2.1789    0.7839 C.ar    1  LIG1       -0.0533
     15 C           5.6464    2.0728    0.7924 C.ar    1  LIG1       -0.0523
     16 C           3.4720    1.1871    0.1800 C.ar    1  LIG1       -0.0155
     17 C           6.3158    0.9892    0.2047 C.ar    1  LIG1       -0.0024
     18 H           6.2335    2.8363    1.2933 H       1  LIG1        0.0624
     19 C           4.1267    0.1025   -0.4129 C.ar    1  LIG1       -0.0380
     20 C           5.5282   -0.0139   -0.4164 C.ar    1  LIG1        0.0329
     21 H           3.5472   -0.6656   -0.9140 H       1  LIG1        0.0636
     22 H           3.7854    3.0252    1.2667 H       1  LIG1        0.0624
     23 C           6.1022   -1.1348   -1.0968 C.1     1  LIG1       -0.0690
     24 C           6.5303   -2.0975   -1.6927 C.1     1  LIG1       -0.1139
     25 H           6.9265   -2.9346   -2.2193 H       1  LIG1        0.1232
     26 C           8.4893   -0.2168    0.6532 C.ar    1  LIG1       -0.0539
     27 C           9.8811   -0.2230    0.7312 C.ar    1  LIG1       -0.0600
     28 C           7.8016    0.9404    0.2521 C.ar    1  LIG1       -0.0156
     29 C          10.6148    0.9157    0.4106 C.ar    1  LIG1       -0.0463
     30 H          10.3973   -1.1234    1.0507 H       1  LIG1        0.0618
     31 C           8.5446    2.0842   -0.0675 C.ar    1  LIG1       -0.0386
     32 C           9.9482    2.0860    0.0054 C.ar    1  LIG1        0.0253
     33 H           8.0350    2.9837   -0.3963 H       1  LIG1        0.0636
     34 H          11.6980    0.9128    0.4691 H       1  LIG1        0.0630
     35 H           7.9302   -1.1076    0.9155 H       1  LIG1        0.0624
     36 C          10.6864    3.2637   -0.3317 C.1     1  LIG1       -0.0696
     37 C          11.3124    4.2599   -0.6147 C.1     1  LIG1       -0.1139
     38 H          11.8630    5.1366   -0.8656 H       1  LIG1        0.1232
@<TRIPOS>BOND
     1    25    24    1
     2    24    23    3
     3    13    12    1
     4    23    20    1
     5    12    11    3
     6    21    19    1
     7    38    37    1
     8    37    36    3
     9    11     7    1
    10    20    19   ar
    11    20    17   ar
    12    19    16   ar
    13    33    31    1
    14     8     6    1
    15    36    32    1
    16     7     6   ar
    17     7     4   ar
    18     6     3   ar
    19    31    32   ar
    20    31    28   ar
    21    32    29   ar
    22    16     4    1
    23    16    14   ar
    24     4     2   ar
    25    17    28    1
    26    17    15   ar
    27    28    26   ar
    28     3     9    1
    29     3     1   ar
    30    29    34    1
    31    29    27   ar
    32     2     1   ar
    33     2     5    1
    34     1    10    1
    35    26    27   ar
    36    26    35    1
    37    27    30    1
    38    14    15   ar
    39    14    22    1
    40    15    18    1
