@<TRIPOS>MOLECULE
mol_data/opt/b3lyp/geoms/mol2/4ae4ae-.out
 26 27 0 0 0
SMALL
GASTEIGER

@<TRIPOS>ATOM
      1 C          -0.0580    0.1861    0.6062 C.ar    1  LIG1       -0.0611
      2 C           1.3346    0.1683    0.6334 C.ar    1  LIG1       -0.0529
      3 C          -0.7290    1.3191    0.1441 C.ar    1  LIG1       -0.0606
      4 C           2.0958    1.2664    0.2060 C.ar    1  LIG1       -0.0025
      5 H           1.8534   -0.7061    1.0141 H       1  LIG1        0.0624
      6 C           0.0006    2.4197   -0.2906 C.ar    1  LIG1       -0.0457
      7 C           1.4089    2.4137   -0.2705 C.ar    1  LIG1        0.0324
      8 H          -0.5073    3.3029   -0.6635 H       1  LIG1        0.0630
      9 H          -1.8142    1.3454    0.1209 H       1  LIG1        0.0618
     10 H          -0.6159   -0.6788    0.9524 H       1  LIG1        0.0618
     11 C           2.0921    3.5659   -0.7745 C.1     1  LIG1       -0.0691
     12 C           2.6126    4.5637   -1.2203 C.1     1  LIG1       -0.1139
     13 H           3.0902    5.4307   -1.6141 H       1  LIG1        0.1232
     14 C           4.3532    2.1995    0.8494 C.ar    1  LIG1       -0.0539
     15 C           5.7397    2.0788    0.9298 C.ar    1  LIG1       -0.0600
     16 C           3.5808    1.1831    0.2639 C.ar    1  LIG1       -0.0156
     17 C           6.3838    0.9511    0.4291 C.ar    1  LIG1       -0.0463
     18 H           6.3219    2.8700    1.3928 H       1  LIG1        0.0618
     19 C           4.2334    0.0491   -0.2361 C.ar    1  LIG1       -0.0386
     20 C           5.6312   -0.0793   -0.1626 C.ar    1  LIG1        0.0253
     21 H           3.6578   -0.7407   -0.7072 H       1  LIG1        0.0636
     22 H           7.4627    0.8556    0.4888 H       1  LIG1        0.0630
     23 H           3.8637    3.0788    1.2520 H       1  LIG1        0.0624
     24 C           6.2772   -1.2426   -0.6869 C.1     1  LIG1       -0.0696
     25 C           6.8253   -2.2267   -1.1291 C.1     1  LIG1       -0.1139
     26 H           7.3071   -3.0925   -1.5203 H       1  LIG1        0.1232
@<TRIPOS>BOND
     1    13    12    1
     2    26    25    1
     3    12    11    3
     4    25    24    3
     5    11     7    1
     6    21    19    1
     7    24    20    1
     8     8     6    1
     9     6     7   ar
    10     6     3   ar
    11     7     4   ar
    12    19    20   ar
    13    19    16   ar
    14    20    17   ar
    15     9     3    1
    16     3     1   ar
    17     4    16    1
    18     4     2   ar
    19    16    14   ar
    20    17    22    1
    21    17    15   ar
    22     1     2   ar
    23     1    10    1
    24     2     5    1
    25    14    15   ar
    26    14    23    1
    27    15    18    1
