@<TRIPOS>MOLECULE
mol_data/opt/b3lyp/geoms/mol2/4ae4ae.out
 26 27 0 0 0
SMALL
GASTEIGER

@<TRIPOS>ATOM
      1 C           0.0703    0.1001    0.7511 C.ar    1  LIG1       -0.0611
      2 C           1.4521    0.1406    0.5794 C.ar    1  LIG1       -0.0529
      3 C          -0.7039    1.2107    0.4126 C.ar    1  LIG1       -0.0606
      4 C           2.1005    1.2762    0.0716 C.ar    1  LIG1       -0.0025
      5 H           2.0541   -0.7170    0.8638 H       1  LIG1        0.0624
      6 C          -0.0877    2.3478   -0.0974 C.ar    1  LIG1       -0.0457
      7 C           1.3082    2.4012   -0.2773 C.ar    1  LIG1        0.0324
      8 H          -0.6780    3.2148   -0.3750 H       1  LIG1        0.0630
      9 H          -1.7814    1.1917    0.5441 H       1  LIG1        0.0618
     10 H          -0.3977   -0.7926    1.1550 H       1  LIG1        0.0618
     11 C           1.8680    3.5890   -0.8460 C.1     1  LIG1       -0.0691
     12 C           2.2838    4.6141   -1.3372 C.1     1  LIG1       -0.1139
     13 H           2.6739    5.5069   -1.7682 H       1  LIG1        0.1232
     14 C           4.1992    0.1516   -0.7077 C.ar    1  LIG1       -0.0539
     15 C           5.5865    0.0943   -0.8373 C.ar    1  LIG1       -0.0600
     16 C           3.5801    1.2508   -0.0895 C.ar    1  LIG1       -0.0156
     17 C           6.3823    1.1261   -0.3500 C.ar    1  LIG1       -0.0463
     18 H           6.0479   -0.7586   -1.3263 H       1  LIG1        0.0618
     19 C           4.3857    2.2863    0.3997 C.ar    1  LIG1       -0.0386
     20 C           5.7846    2.2352    0.2766 C.ar    1  LIG1        0.0253
     21 H           3.9330    3.1391    0.8909 H       1  LIG1        0.0636
     22 H           7.4621    1.0877   -0.4472 H       1  LIG1        0.0630
     23 H           3.5851   -0.6503   -1.1060 H       1  LIG1        0.0624
     24 C           6.5915    3.2981    0.7912 C.1     1  LIG1       -0.0696
     25 C           7.2775    4.1953    1.2259 C.1     1  LIG1       -0.1139
     26 H           7.8792    4.9859    1.6103 H       1  LIG1        0.1232
@<TRIPOS>BOND
     1    13    12    1
     2    12    11    3
     3    18    15    1
     4    23    14    1
     5    11     7    1
     6    15    14   ar
     7    15    17   ar
     8    14    16   ar
     9    22    17    1
    10     8     6    1
    11    17    20   ar
    12     7     6   ar
    13     7     4   ar
    14     6     3   ar
    15    16     4    1
    16    16    19   ar
    17     4     2   ar
    18    20    19   ar
    19    20    24    1
    20    19    21    1
    21     3     9    1
    22     3     1   ar
    23     2     1   ar
    24     2     5    1
    25     1    10    1
    26    24    25    3
    27    25    26    1
