@<TRIPOS>MOLECULE
mol_data/opt/b3lyp/geoms/mol2/4ae4ae4ae.out
 38 40 0 0 0
SMALL
GASTEIGER

@<TRIPOS>ATOM
      1 C           0.0790    0.3271    1.4217 C.ar    1  LIG1       -0.0611
      2 C           1.4528    0.4105    1.2075 C.ar    1  LIG1       -0.0529
      3 C          -0.7865    1.1578    0.7085 C.ar    1  LIG1       -0.0606
      4 C           2.0035    1.3145    0.2866 C.ar    1  LIG1       -0.0025
      5 H           2.1246   -0.2211    1.7807 H       1  LIG1        0.0624
      6 C          -0.2682    2.0589   -0.2145 C.ar    1  LIG1       -0.0457
      7 C           1.1186    2.1518   -0.4424 C.ar    1  LIG1        0.0324
      8 H          -0.9296    2.7028   -0.7846 H       1  LIG1        0.0630
      9 H          -1.8588    1.1037    0.8691 H       1  LIG1        0.0618
     10 H          -0.3122   -0.3781    2.1488 H       1  LIG1        0.0618
     11 C           1.5757    3.0708   -1.4395 C.1     1  LIG1       -0.0691
     12 C           1.9035    3.8576   -2.2989 C.1     1  LIG1       -0.1139
     13 H           2.2165    4.5444   -3.0508 H       1  LIG1        0.1232
     14 C           4.2036    0.1577   -0.0459 C.ar    1  LIG1       -0.0533
     15 C           5.5879    0.1772   -0.1767 C.ar    1  LIG1       -0.0523
     16 C           3.4795    1.3504    0.1069 C.ar    1  LIG1       -0.0155
     17 C           6.3178    1.3740   -0.1554 C.ar    1  LIG1       -0.0024
     18 H           6.1263   -0.7597   -0.2809 H       1  LIG1        0.0624
     19 C           4.1944    2.5520    0.1250 C.ar    1  LIG1       -0.0380
     20 C           5.5941    2.5856   -0.0035 C.ar    1  LIG1        0.0329
     21 H           3.6679    3.4915    0.2408 H       1  LIG1        0.0636
     22 H           3.6750   -0.7902   -0.0749 H       1  LIG1        0.0624
     23 C           6.2318    3.8671   -0.0059 C.1     1  LIG1       -0.0690
     24 C           6.7177    4.9755   -0.0096 C.1     1  LIG1       -0.1139
     25 H           7.1664    5.9418   -0.0139 H       1  LIG1        0.1232
     26 C           8.3762    0.5312   -1.3064 C.ar    1  LIG1       -0.0539
     27 C           9.7618    0.4424   -1.4358 C.ar    1  LIG1       -0.0600
     28 C           7.7972    1.3237   -0.3009 C.ar    1  LIG1       -0.0156
     29 C          10.5963    1.1360   -0.5651 C.ar    1  LIG1       -0.0463
     30 H          10.1916   -0.1676   -2.2247 H       1  LIG1        0.0618
     31 C           8.6420    2.0197    0.5729 C.ar    1  LIG1       -0.0386
     32 C          10.0392    1.9332    0.4518 C.ar    1  LIG1        0.0253
     33 H           8.2210    2.6286    1.3636 H       1  LIG1        0.0636
     34 H          11.6750    1.0711   -0.6600 H       1  LIG1        0.0630
     35 H           7.7331    0.0004   -2.0018 H       1  LIG1        0.0624
     36 C          10.8854    2.6435    1.3603 C.1     1  LIG1       -0.0696
     37 C          11.6046    3.2427    2.1273 C.1     1  LIG1       -0.1139
     38 H          12.2354    3.7704    2.8043 H       1  LIG1        0.1232
@<TRIPOS>BOND
     1    13    12    1
     2    12    11    3
     3    30    27    1
     4    35    26    1
     5    11     7    1
     6    27    26   ar
     7    27    29   ar
     8    26    28   ar
     9     8     6    1
    10    34    29    1
    11    29    32   ar
    12     7     6   ar
    13     7     4   ar
    14    28    17    1
    15    28    31   ar
    16    18    15    1
    17     6     3   ar
    18    15    17   ar
    19    15    14   ar
    20    17    20   ar
    21    22    14    1
    22    14    16   ar
    23    25    24    1
    24    24    23    3
    25    23    20    1
    26    20    19   ar
    27    16    19   ar
    28    16     4    1
    29    19    21    1
    30     4     2   ar
    31    32    31   ar
    32    32    36    1
    33    31    33    1
    34     3     9    1
    35     3     1   ar
    36     2     1   ar
    37     2     5    1
    38    36    37    3
    39     1    10    1
    40    37    38    1
