@<TRIPOS>MOLECULE
mol_data/opt/b3lyp/geoms/mol2/4ae4ae-4ae4ae-.out
 50 53 0 0 0
SMALL
GASTEIGER

@<TRIPOS>ATOM
      1 C          -0.2364    0.1776    0.7549 C.ar    1  LIG1       -0.0611
      2 C           1.1548    0.1798    0.6874 C.ar    1  LIG1       -0.0529
      3 C          -0.9531    1.3029    0.3461 C.ar    1  LIG1       -0.0606
      4 C           1.8700    1.2908    0.2151 C.ar    1  LIG1       -0.0025
      5 H           1.7100   -0.6886    1.0283 H       1  LIG1        0.0624
      6 C          -0.2703    2.4160   -0.1307 C.ar    1  LIG1       -0.0457
      7 C           1.1360    2.4304   -0.2071 C.ar    1  LIG1        0.0324
      8 H          -0.8148    3.2936   -0.4632 H       1  LIG1        0.0630
      9 H          -2.0376    1.3138    0.3971 H       1  LIG1        0.0618
     10 H          -0.7569   -0.6969    1.1335 H       1  LIG1        0.0618
     11 C           1.7654    3.5943   -0.7524 C.1     1  LIG1       -0.0691
     12 C           2.2380    4.6013   -1.2298 C.1     1  LIG1       -0.1139
     13 H           2.6728    5.4770   -1.6528 H       1  LIG1        0.1232
     14 C           4.1599    2.2611    0.6771 C.ar    1  LIG1       -0.0533
     15 C           5.5454    2.1492    0.6639 C.ar    1  LIG1       -0.0523
     16 C           3.3551    1.2283    0.1715 C.ar    1  LIG1       -0.0155
     17 C           6.1984    1.0190    0.1497 C.ar    1  LIG1       -0.0024
     18 H           6.1455    2.9470    1.0904 H       1  LIG1        0.0624
     19 C           3.9931    0.0969   -0.3477 C.ar    1  LIG1       -0.0380
     20 C           5.3937   -0.0264   -0.3726 C.ar    1  LIG1        0.0329
     21 H           3.4003   -0.7056   -0.7736 H       1  LIG1        0.0636
     22 H           3.6985    3.1453    1.1017 H       1  LIG1        0.0624
     23 C           5.9482   -1.2001   -0.9758 C.1     1  LIG1       -0.0690
     24 C           6.3594   -2.2087   -1.5037 C.1     1  LIG1       -0.1139
     25 H           6.7402   -3.0867   -1.9716 H       1  LIG1        0.1232
     26 C           8.3836   -0.1622    0.6238 C.ar    1  LIG1       -0.0533
     27 C           9.7728   -0.1599    0.6737 C.ar    1  LIG1       -0.0523
     28 C           7.6831    0.9661    0.1692 C.ar    1  LIG1       -0.0155
     29 C          10.5325    0.9500    0.2753 C.ar    1  LIG1       -0.0024
     30 H          10.2907   -1.0324    1.0598 H       1  LIG1        0.0624
     31 C           8.4285    2.0790   -0.2344 C.ar    1  LIG1       -0.0380
     32 C           9.8341    2.0919   -0.1948 C.ar    1  LIG1        0.0329
     33 H           7.9187    2.9555   -0.6200 H       1  LIG1        0.0636
     34 H           7.8378   -1.0362    0.9598 H       1  LIG1        0.0624
     35 C          10.5033    3.2600   -0.6816 C.1     1  LIG1       -0.0690
     36 C          11.0127    4.2700   -1.1121 C.1     1  LIG1       -0.1139
     37 H          11.4802    5.1478   -1.4941 H       1  LIG1        0.1232
     38 C          12.7708    1.9119    0.9424 C.ar    1  LIG1       -0.0539
     39 C          14.1570    1.8048    1.0440 C.ar    1  LIG1       -0.0600
     40 C          12.0160    0.8826    0.3559 C.ar    1  LIG1       -0.0156
     41 C          14.8187    0.6782    0.5638 C.ar    1  LIG1       -0.0463
     42 H          14.7252    2.6058    1.5074 H       1  LIG1        0.0618
     43 C          12.6867   -0.2500   -0.1238 C.ar    1  LIG1       -0.0386
     44 C          14.0842   -0.3647   -0.0285 C.ar    1  LIG1        0.0253
     45 H          12.1255   -1.0493   -0.5961 H       1  LIG1        0.0636
     46 H          15.8975    0.5934    0.6401 H       1  LIG1        0.0630
     47 H          12.2678    2.7907    1.3293 H       1  LIG1        0.0624
     48 C          14.7483   -1.5271   -0.5318 C.1     1  LIG1       -0.0696
     49 C          15.3118   -2.5106   -0.9560 C.1     1  LIG1       -0.1139
     50 H          15.8073   -3.3757   -1.3311 H       1  LIG1        0.1232
@<TRIPOS>BOND
     1    25    24    1
     2    13    12    1
     3    24    23    3
     4    37    36    1
     5    50    49    1
     6    12    11    3
     7    36    35    3
     8    23    20    1
     9    49    48    3
    10    21    19    1
    11    11     7    1
    12    35    32    1
    13    33    31    1
    14    45    43    1
    15    48    44    1
    16     8     6    1
    17    20    19   ar
    18    20    17   ar
    19    19    16   ar
    20    31    32   ar
    21    31    28   ar
    22     7     6   ar
    23     7     4   ar
    24    32    29   ar
    25     6     3   ar
    26    43    44   ar
    27    43    40   ar
    28    44    41   ar
    29    17    28    1
    30    17    15   ar
    31    28    26   ar
    32    16     4    1
    33    16    14   ar
    34     4     2   ar
    35    29    40    1
    36    29    27   ar
    37     3     9    1
    38     3     1   ar
    39    40    38   ar
    40    41    46    1
    41    41    39   ar
    42    26    27   ar
    43    26    34    1
    44    15    14   ar
    45    15    18    1
    46    27    30    1
    47    14    22    1
    48     2     1   ar
    49     2     5    1
    50     1    10    1
    51    38    39   ar
    52    38    47    1
    53    39    42    1
