@<TRIPOS>MOLECULE
mol_data/opt/b3lyp/geoms/mol2/4ae4ae4ae4ae-.out
 50 53 0 0 0
SMALL
GASTEIGER

@<TRIPOS>ATOM
      1 C          -0.1430    1.1129    1.6523 C.ar    1  LIG1       -0.0611
      2 C           1.2436    1.1035    1.5216 C.ar    1  LIG1       -0.0529
      3 C          -0.9382    1.5251    0.5822 C.ar    1  LIG1       -0.0606
      4 C           1.8767    1.5006    0.3340 C.ar    1  LIG1       -0.0025
      5 H           1.8600    0.8043    2.3638 H       1  LIG1        0.0624
      6 C          -0.3375    1.9186   -0.6082 C.ar    1  LIG1       -0.0457
      7 C           1.0633    1.9119   -0.7545 C.ar    1  LIG1        0.0324
      8 H          -0.9435    2.2304   -1.4524 H       1  LIG1        0.0630
      9 H          -2.0199    1.5392    0.6733 H       1  LIG1        0.0618
     10 H          -0.5991    0.8075    2.5892 H       1  LIG1        0.0618
     11 C           1.6087    2.2875   -2.0230 C.1     1  LIG1       -0.0691
     12 C           2.0136    2.6058   -3.1183 C.1     1  LIG1       -0.1139
     13 H           2.3933    2.8827   -4.0744 H       1  LIG1        0.1232
     14 C           4.0642    0.3364    0.7164 C.ar    1  LIG1       -0.0533
     15 C           5.4542    0.3067    0.6931 C.ar    1  LIG1       -0.0523
     16 C           3.3618    1.4644    0.2638 C.ar    1  LIG1       -0.0155
     17 C           6.2109    1.3920    0.2290 C.ar    1  LIG1       -0.0024
     18 H           5.9739   -0.5727    1.0609 H       1  LIG1        0.0624
     19 C           4.1040    2.5514   -0.2082 C.ar    1  LIG1       -0.0380
     20 C           5.5097    2.5358   -0.2342 C.ar    1  LIG1        0.0329
     21 H           3.5948    3.4377   -0.5666 H       1  LIG1        0.0636
     22 H           3.5149   -0.5277    1.0775 H       1  LIG1        0.0624
     23 C           6.1794    3.6833   -0.7666 C.1     1  LIG1       -0.0690
     24 C           6.6951    4.6737   -1.2334 C.1     1  LIG1       -0.1139
     25 H           7.1696    5.5363   -1.6405 H       1  LIG1        0.1232
     26 C           8.3286    0.1405   -0.2534 C.ar    1  LIG1       -0.0533
     27 C           9.7134    0.0194   -0.2155 C.ar    1  LIG1       -0.0523
     28 C           7.6940    1.2941    0.2338 C.ar    1  LIG1       -0.0155
     29 C          10.5313    1.0289    0.3112 C.ar    1  LIG1       -0.0024
     30 H          10.1790   -0.8880   -0.5874 H       1  LIG1        0.0624
     31 C           8.4985    2.3120    0.7559 C.ar    1  LIG1       -0.0380
     32 C           9.8993    2.2008    0.8028 C.ar    1  LIG1        0.0329
     33 H           8.0432    3.2169    1.1391 H       1  LIG1        0.0636
     34 H           7.7312   -0.6615   -0.6762 H       1  LIG1        0.0624
     35 C          10.6369    3.3111    1.3250 C.1     1  LIG1       -0.0690
     36 C          11.2083    4.2820    1.7675 C.1     1  LIG1       -0.1139
     37 H          11.7279    5.1296    2.1500 H       1  LIG1        0.1232
     38 C          12.7682    1.0683    1.4837 C.ar    1  LIG1       -0.0539
     39 C          14.1427    0.8355    1.4857 C.ar    1  LIG1       -0.0600
     40 C          12.0060    0.8345    0.3272 C.ar    1  LIG1       -0.0156
     41 C          14.7853    0.3704    0.3419 C.ar    1  LIG1       -0.0463
     42 H          14.7163    1.0137    2.3904 H       1  LIG1        0.0618
     43 C          12.6572    0.3646   -0.8206 C.ar    1  LIG1       -0.0386
     44 C          14.0431    0.1302   -0.8284 C.ar    1  LIG1        0.0253
     45 H          12.0912    0.1941   -1.7302 H       1  LIG1        0.0636
     46 H          15.8550    0.1902    0.3406 H       1  LIG1        0.0630
     47 H          12.2792    1.4214    2.3844 H       1  LIG1        0.0624
     48 C          14.6877   -0.3436   -2.0139 C.1     1  LIG1       -0.0696
     49 C          15.2343   -0.7463   -3.0157 C.1     1  LIG1       -0.1139
     50 H          15.7150   -1.0992   -3.8984 H       1  LIG1        0.1232
@<TRIPOS>BOND
     1    13    12    1
     2    50    49    1
     3    12    11    3
     4    49    48    3
     5    11     7    1
     6    48    44    1
     7    45    43    1
     8    25    24    1
     9     8     6    1
    10    24    23    3
    11    44    43   ar
    12    44    41   ar
    13    43    40   ar
    14    23    20    1
    15     7     6   ar
    16     7     4   ar
    17    34    26    1
    18     6     3   ar
    19    30    27    1
    20    21    19    1
    21    26    27   ar
    22    26    28   ar
    23    20    19   ar
    24    20    17   ar
    25    27    29   ar
    26    19    16   ar
    27    17    28    1
    28    17    15   ar
    29    28    31   ar
    30    16     4    1
    31    16    14   ar
    32    29    40    1
    33    29    32   ar
    34    40    38   ar
    35     4     2   ar
    36    46    41    1
    37    41    39   ar
    38     3     9    1
    39     3     1   ar
    40    15    14   ar
    41    15    18    1
    42    14    22    1
    43    31    32   ar
    44    31    33    1
    45    32    35    1
    46    35    36    3
    47    38    39   ar
    48    38    47    1
    49    39    42    1
    50     2     1   ar
    51     2     5    1
    52     1    10    1
    53    36    37    1
