@<TRIPOS>MOLECULE
mol_data/opt/b3lyp/geoms/mol2/4ae4ae-4ae-4ae.out
 50 53 0 0 0
SMALL
GASTEIGER

@<TRIPOS>ATOM
      1 C          -0.2568   -0.0025    0.2389 C.ar    1  LIG1       -0.0611
      2 C           1.1358    0.0093    0.2152 C.ar    1  LIG1       -0.0529
      3 C          -0.9621    1.2011    0.2039 C.ar    1  LIG1       -0.0606
      4 C           1.8635    1.2075    0.1563 C.ar    1  LIG1       -0.0025
      5 H           1.6817   -0.9278    0.2658 H       1  LIG1        0.0624
      6 C          -0.2665    2.4031    0.1400 C.ar    1  LIG1       -0.0457
      7 C           1.1413    2.4291    0.1127 C.ar    1  LIG1        0.0324
      8 H          -0.8016    3.3461    0.1000 H       1  LIG1        0.0630
      9 H          -2.0476    1.2042    0.2249 H       1  LIG1        0.0618
     10 H          -0.7877   -0.9481    0.2931 H       1  LIG1        0.0618
     11 C           1.7861    3.7018   -0.0002 C.1     1  LIG1       -0.0691
     12 C           2.2724    4.8053   -0.1050 C.1     1  LIG1       -0.1139
     13 H           2.7183    5.7678   -0.2028 H       1  LIG1        0.1232
     14 C           4.1365    1.9476    0.9818 C.ar    1  LIG1       -0.0533
     15 C           5.5221    1.8372    0.9696 C.ar    1  LIG1       -0.0523
     16 C           3.3493    1.1503    0.1365 C.ar    1  LIG1       -0.0155
     17 C           6.1926    0.9411    0.1236 C.ar    1  LIG1       -0.0024
     18 H           6.1073    2.4418    1.6558 H       1  LIG1        0.0624
     19 C           4.0047    0.2539   -0.7139 C.ar    1  LIG1       -0.0380
     20 C           5.4058    0.1368   -0.7409 C.ar    1  LIG1        0.0329
     21 H           3.4264   -0.3558   -1.4001 H       1  LIG1        0.0636
     22 H           3.6610    2.6414    1.6655 H       1  LIG1        0.0624
     23 C           5.9812   -0.7703   -1.6866 C.1     1  LIG1       -0.0690
     24 C           6.4135   -1.5457   -2.5092 C.1     1  LIG1       -0.1139
     25 H           6.8173   -2.2208   -3.2278 H       1  LIG1        0.1232
     26 C           8.4318    2.0663    0.1695 C.ar    1  LIG1       -0.0533
     27 C           9.8197    2.0257    0.2422 C.ar    1  LIG1       -0.0523
     28 C           7.6769    0.8824    0.1610 C.ar    1  LIG1       -0.0155
     29 C          10.5235    0.8153    0.3147 C.ar    1  LIG1       -0.0024
     30 H          10.3794    2.9556    0.2600 H       1  LIG1        0.0624
     31 C           8.3666   -0.3323    0.2290 C.ar    1  LIG1       -0.0380
     32 C           9.7695   -0.3872    0.3043 C.ar    1  LIG1        0.0329
     33 H           7.8172   -1.2656    0.2243 H       1  LIG1        0.0636
     34 H           7.9260    3.0248    0.1049 H       1  LIG1        0.0624
     35 C          10.3823   -1.6808    0.3340 C.1     1  LIG1       -0.0690
     36 C          10.8447   -2.7992    0.3480 C.1     1  LIG1       -0.1139
     37 H          11.2694   -3.7761    0.3565 H       1  LIG1        0.1232
     38 C          12.7132    0.0879    1.3434 C.ar    1  LIG1       -0.0539
     39 C          14.1029    0.1658    1.4228 C.ar    1  LIG1       -0.0600
     40 C          12.0087    0.8429    0.3913 C.ar    1  LIG1       -0.0156
     41 C          14.8180    0.9903    0.5590 C.ar    1  LIG1       -0.0463
     42 H          14.6316   -0.4184    2.1700 H       1  LIG1        0.0618
     43 C          12.7332    1.6726   -0.4745 C.ar    1  LIG1       -0.0386
     44 C          14.1345    1.7549   -0.4035 C.ar    1  LIG1        0.0253
     45 H          12.2115    2.2513   -1.2294 H       1  LIG1        0.0636
     46 H          15.8995    1.0514    0.6179 H       1  LIG1        0.0630
     47 H          12.1690   -0.5512    2.0291 H       1  LIG1        0.0624
     48 C          14.8532    2.6037   -1.3026 C.1     1  LIG1       -0.0696
     49 C          15.4625    3.3227   -2.0618 C.1     1  LIG1       -0.1139
     50 H          15.9981    3.9545   -2.7316 H       1  LIG1        0.1232
@<TRIPOS>BOND
     1    25    24    1
     2    50    49    1
     3    24    23    3
     4    49    48    3
     5    23    20    1
     6    21    19    1
     7    48    44    1
     8    45    43    1
     9    20    19   ar
    10    20    17   ar
    11    19    16   ar
    12    43    44   ar
    13    43    40   ar
    14    44    41   ar
    15    13    12    1
    16    12    11    3
    17    11     7    1
    18     8     6    1
    19    34    26    1
    20     7     6   ar
    21     7     4   ar
    22    17    28    1
    23    17    15   ar
    24    16     4    1
    25    16    14   ar
    26     6     3   ar
    27     4     2   ar
    28    28    26   ar
    29    28    31   ar
    30    26    27   ar
    31     3     9    1
    32     3     1   ar
    33     2     1   ar
    34     2     5    1
    35    33    31    1
    36    31    32   ar
    37     1    10    1
    38    27    30    1
    39    27    29   ar
    40    32    29   ar
    41    32    35    1
    42    29    40    1
    43    35    36    3
    44    36    37    1
    45    40    38   ar
    46    41    46    1
    47    41    39   ar
    48    15    14   ar
    49    15    18    1
    50    14    22    1
    51    38    39   ar
    52    38    47    1
    53    39    42    1
