@<TRIPOS>MOLECULE
mol_data/opt/b3lyp/geoms/mol2/4ae4ae4ae-4ae.out
 50 53 0 0 0
SMALL
GASTEIGER

@<TRIPOS>ATOM
      1 C          -0.1338    0.4822    1.4401 C.ar    1  LIG1       -0.0611
      2 C           1.2521    0.5241    1.3080 C.ar    1  LIG1       -0.0529
      3 C          -0.9348    1.2562    0.5994 C.ar    1  LIG1       -0.0606
      4 C           1.8783    1.3306    0.3457 C.ar    1  LIG1       -0.0025
      5 H           1.8734   -0.0622    1.9781 H       1  LIG1        0.0624
      6 C          -0.3407    2.0599   -0.3670 C.ar    1  LIG1       -0.0457
      7 C           1.0592    2.1106   -0.5122 C.ar    1  LIG1        0.0324
      8 H          -0.9514    2.6581   -1.0351 H       1  LIG1        0.0630
      9 H          -2.0160    1.2336    0.6947 H       1  LIG1        0.0618
     10 H          -0.5849   -0.1464    2.2020 H       1  LIG1        0.0618
     11 C           1.5985    2.9267   -1.5566 C.1     1  LIG1       -0.0691
     12 C           1.9984    3.6258   -2.4601 C.1     1  LIG1       -0.1139
     13 H           2.3738    4.2344   -3.2499 H       1  LIG1        0.1232
     14 C           4.0687    0.1129    0.2586 C.ar    1  LIG1       -0.0533
     15 C           5.4587    0.0973    0.2216 C.ar    1  LIG1       -0.0523
     16 C           3.3632    1.3264    0.2598 C.ar    1  LIG1       -0.0155
     17 C           6.2125    1.2791    0.1912 C.ar    1  LIG1       -0.0024
     18 H           5.9810   -0.8544    0.2356 H       1  LIG1        0.0624
     19 C           4.1022    2.5128    0.2217 C.ar    1  LIG1       -0.0380
     20 C           5.5077    2.5113    0.1869 C.ar    1  LIG1        0.0329
     21 H           3.5907    3.4676    0.2192 H       1  LIG1        0.0636
     22 H           3.5217   -0.8248    0.2754 H       1  LIG1        0.0624
     23 C           6.1720    3.7773    0.1137 C.1     1  LIG1       -0.0690
     24 C           6.6794    4.8738    0.0434 C.1     1  LIG1       -0.1139
     25 H           7.1423    5.8311   -0.0233 H       1  LIG1        0.1232
     26 C           8.5031    1.9579    1.0190 C.ar    1  LIG1       -0.0533
     27 C           9.8860    1.8173    1.0003 C.ar    1  LIG1       -0.0523
     28 C           7.6958    1.1939    0.1616 C.ar    1  LIG1       -0.0155
     29 C          10.5341    0.9232    0.1353 C.ar    1  LIG1       -0.0024
     30 H          10.4870    2.3958    1.6951 H       1  LIG1        0.0624
     31 C           8.3292    0.3005   -0.7087 C.ar    1  LIG1       -0.0380
     32 C           9.7274    0.1537   -0.7421 C.ar    1  LIG1        0.0329
     33 H           7.7358   -0.2824   -1.4049 H       1  LIG1        0.0636
     34 H           8.0449    2.6485    1.7175 H       1  LIG1        0.0624
     35 C          10.2794   -0.7479   -1.7072 C.1     1  LIG1       -0.0690
     36 C          10.6882   -1.5178   -2.5470 C.1     1  LIG1       -0.1139
     37 H          11.0675   -2.1856   -3.2852 H       1  LIG1        0.1232
     38 C          12.6741   -0.4153    0.2289 C.ar    1  LIG1       -0.0539
     39 C          14.0647   -0.4785    0.3030 C.ar    1  LIG1       -0.0600
     40 C          12.0176    0.8251    0.1692 C.ar    1  LIG1       -0.0156
     41 C          14.8283    0.6852    0.3163 C.ar    1  LIG1       -0.0463
     42 H          14.5564   -1.4453    0.3566 H       1  LIG1        0.0618
     43 C          12.7908    1.9934    0.1852 C.ar    1  LIG1       -0.0386
     44 C          14.1934    1.9388    0.2565 C.ar    1  LIG1        0.0253
     45 H          12.3058    2.9617    0.1224 H       1  LIG1        0.0636
     46 H          15.9106    0.6385    0.3722 H       1  LIG1        0.0630
     47 H          12.0916   -1.3294    0.2293 H       1  LIG1        0.0624
     48 C          14.9623    3.1446    0.2638 C.1     1  LIG1       -0.0696
     49 C          15.6140    4.1643    0.2712 C.1     1  LIG1       -0.1139
     50 H          16.1873    5.0622    0.2759 H       1  LIG1        0.1232
@<TRIPOS>BOND
     1    37    36    1
     2    13    12    1
     3    36    35    3
     4    12    11    3
     5    35    32    1
     6    11     7    1
     7    33    31    1
     8     8     6    1
     9    32    31   ar
    10    32    29   ar
    11    31    28   ar
    12     7     6   ar
    13     7     4   ar
    14     6     3   ar
    15    25    24    1
    16    24    23    3
    17    23    20    1
    18    45    43    1
    19    29    40    1
    20    29    27   ar
    21    28    17    1
    22    28    26   ar
    23    40    43   ar
    24    40    38   ar
    25    43    44   ar
    26    20    17   ar
    27    20    19   ar
    28    17    15   ar
    29    21    19    1
    30    15    18    1
    31    15    14   ar
    32    19    16   ar
    33    38    47    1
    34    38    39   ar
    35    44    48    1
    36    44    41   ar
    37    14    16   ar
    38    14    22    1
    39    16     4    1
    40    48    49    3
    41    49    50    1
    42    39    41   ar
    43    39    42    1
    44    41    46    1
    45     4     2   ar
    46     3     9    1
    47     3     1   ar
    48    27    26   ar
    49    27    30    1
    50    26    34    1
    51     2     1   ar
    52     2     5    1
    53     1    10    1
