@<TRIPOS>MOLECULE
mol_data/opt/b3lyp/geoms/mol2/4ae4ae-4ae4ae.out
 50 53 0 0 0
SMALL
GASTEIGER

@<TRIPOS>ATOM
      1 C          -0.1838    0.1277    1.0155 C.ar    1  LIG1       -0.0611
      2 C           1.2025    0.1447    0.8813 C.ar    1  LIG1       -0.0529
      3 C          -0.9349    1.2286    0.6019 C.ar    1  LIG1       -0.0606
      4 C           1.8784    1.2469    0.3363 C.ar    1  LIG1       -0.0025
      5 H           1.7857   -0.7039    1.2252 H       1  LIG1        0.0624
      6 C          -0.2915    2.3323    0.0538 C.ar    1  LIG1       -0.0457
      7 C           1.1093    2.3615   -0.0902 C.ar    1  LIG1        0.0324
      8 H          -0.8635    3.1904   -0.2831 H       1  LIG1        0.0630
      9 H          -2.0158    1.2278    0.7043 H       1  LIG1        0.0618
     10 H          -0.6735   -0.7390    1.4493 H       1  LIG1        0.0618
     11 C           1.6964    3.5126   -0.7053 C.1     1  LIG1       -0.0691
     12 C           2.1329    4.5072   -1.2396 C.1     1  LIG1       -0.1139
     13 H           2.5361    5.3724   -1.7128 H       1  LIG1        0.1232
     14 C           4.1739    2.2597    0.6567 C.ar    1  LIG1       -0.0533
     15 C           5.5586    2.1655    0.5788 C.ar    1  LIG1       -0.0523
     16 C           3.3605    1.2014    0.2227 C.ar    1  LIG1       -0.0155
     17 C           6.2022    1.0286    0.0672 C.ar    1  LIG1       -0.0024
     18 H           6.1668    2.9838    0.9514 H       1  LIG1        0.0624
     19 C           3.9887    0.0627   -0.2921 C.ar    1  LIG1       -0.0380
     20 C           5.3881   -0.0429   -0.3824 C.ar    1  LIG1        0.0329
     21 H           3.3878   -0.7604   -0.6638 H       1  LIG1        0.0636
     22 H           3.7210    3.1505    1.0764 H       1  LIG1        0.0624
     23 C           5.9287   -1.2281   -0.9758 C.1     1  LIG1       -0.0690
     24 C           6.3253   -2.2484   -1.4924 C.1     1  LIG1       -0.1139
     25 H           6.6923   -3.1367   -1.9518 H       1  LIG1        0.1232
     26 C           8.4259   -0.1089    0.4638 C.ar    1  LIG1       -0.0533
     27 C           9.8157   -0.0858    0.4437 C.ar    1  LIG1       -0.0523
     28 C           7.6867    0.9965    0.0140 C.ar    1  LIG1       -0.0155
     29 C          10.5374    1.0233   -0.0219 C.ar    1  LIG1       -0.0024
     30 H          10.3656   -0.9398    0.8270 H       1  LIG1        0.0624
     31 C           8.3941    2.1079   -0.4570 C.ar    1  LIG1       -0.0380
     32 C           9.7994    2.1417   -0.4878 C.ar    1  LIG1        0.0329
     33 H           7.8523    2.9661   -0.8398 H       1  LIG1        0.0636
     34 H           7.9106   -0.9805    0.8508 H       1  LIG1        0.0624
     35 C          10.4275    3.3048   -1.0369 C.1     1  LIG1       -0.0690
     36 C          10.9047    4.3080   -1.5171 C.1     1  LIG1       -0.1139
     37 H          11.3474    5.1811   -1.9376 H       1  LIG1        0.1232
     38 C          12.6928   -0.1582   -0.5024 C.ar    1  LIG1       -0.0539
     39 C          14.0848   -0.2348   -0.4706 C.ar    1  LIG1       -0.0600
     40 C          12.0239    0.9772   -0.0147 C.ar    1  LIG1       -0.0156
     41 C          14.8362    0.8135    0.0511 C.ar    1  LIG1       -0.0463
     42 H          14.5854   -1.1161   -0.8605 H       1  LIG1        0.0618
     43 C          12.7852    2.0294    0.5093 C.ar    1  LIG1       -0.0386
     44 C          14.1879    1.9591    0.5486 C.ar    1  LIG1        0.0253
     45 H          12.2934    2.9108    0.9025 H       1  LIG1        0.0636
     46 H          15.9193    0.7601    0.0794 H       1  LIG1        0.0630
     47 H          12.1160   -0.9738   -0.9274 H       1  LIG1        0.0624
     48 C          14.9475    3.0399    1.0971 C.1     1  LIG1       -0.0696
     49 C          15.5935    3.9522    1.5606 C.1     1  LIG1       -0.1139
     50 H          16.1601    4.7561    1.9700 H       1  LIG1        0.1232
@<TRIPOS>BOND
     1    25    24    1
     2    37    36    1
     3    13    12    1
     4    36    35    3
     5    24    23    3
     6    12    11    3
     7    35    32    1
     8    23    20    1
     9    47    38    1
    10    42    39    1
    11    33    31    1
    12    11     7    1
    13    21    19    1
    14    38    39   ar
    15    38    40   ar
    16    32    31   ar
    17    32    29   ar
    18    39    41   ar
    19    31    28   ar
    20    20    19   ar
    21    20    17   ar
    22    19    16   ar
    23     8     6    1
    24     7     6   ar
    25     7     4   ar
    26    29    40    1
    27    29    27   ar
    28    40    43   ar
    29    28    17    1
    30    28    26   ar
    31    41    46    1
    32    41    44   ar
    33     6     3   ar
    34    17    15   ar
    35    16     4    1
    36    16    14   ar
    37     4     2   ar
    38    27    26   ar
    39    27    30    1
    40    26    34    1
    41    43    44   ar
    42    43    45    1
    43    44    48    1
    44    15    14   ar
    45    15    18    1
    46     3     9    1
    47     3     1   ar
    48    14    22    1
    49     2     1   ar
    50     2     5    1
    51     1    10    1
    52    48    49    3
    53    49    50    1
