@<TRIPOS>MOLECULE
mol_data/opt/b3lyp/geoms/mol2/4ae4ae-4ae-4ae-.out
 50 53 0 0 0
SMALL
GASTEIGER

@<TRIPOS>ATOM
      1 C          -0.2680    0.1720    0.6087 C.ar    1  LIG1       -0.0611
      2 C           1.1178    0.1321    0.4745 C.ar    1  LIG1       -0.0529
      3 C          -0.9315    1.3997    0.5988 C.ar    1  LIG1       -0.0606
      4 C           1.8795    1.3011    0.3278 C.ar    1  LIG1       -0.0025
      5 H           1.6329   -0.8231    0.5055 H       1  LIG1        0.0624
      6 C          -0.2019    2.5736    0.4497 C.ar    1  LIG1       -0.0457
      7 C           1.1994    2.5472    0.3105 C.ar    1  LIG1        0.0324
      8 H          -0.7055    3.5343    0.4280 H       1  LIG1        0.0630
      9 H          -2.0111    1.4431    0.7054 H       1  LIG1        0.0618
     10 H          -0.8256   -0.7520    0.7287 H       1  LIG1        0.0618
     11 C           1.8773    3.7923    0.1145 C.1     1  LIG1       -0.0691
     12 C           2.3922    4.8743   -0.0568 C.1     1  LIG1       -0.1139
     13 H           2.8625    5.8172   -0.2141 H       1  LIG1        0.1232
     14 C           4.2366    1.9735    0.9518 C.ar    1  LIG1       -0.0533
     15 C           5.6120    1.8119    0.8306 C.ar    1  LIG1       -0.0523
     16 C           3.3561    1.1891    0.1906 C.ar    1  LIG1       -0.0155
     17 C           6.1794    0.8744   -0.0455 C.ar    1  LIG1       -0.0024
     18 H           6.2723    2.4078    1.4531 H       1  LIG1        0.0624
     19 C           3.9082    0.2520   -0.6888 C.ar    1  LIG1       -0.0380
     20 C           5.2975    0.0823   -0.8251 C.ar    1  LIG1        0.0329
     21 H           3.2548   -0.3494   -1.3119 H       1  LIG1        0.0636
     22 H           3.8425    2.6974    1.6557 H       1  LIG1        0.0624
     23 C           5.7623   -0.8661   -1.7909 C.1     1  LIG1       -0.0690
     24 C           6.0983   -1.6756   -2.6256 C.1     1  LIG1       -0.1139
     25 H           6.4180   -2.3821   -3.3561 H       1  LIG1        0.1232
     26 C           8.4534    1.9150   -0.2143 C.ar    1  LIG1       -0.0533
     27 C           9.8403    1.8233   -0.2529 C.ar    1  LIG1       -0.0523
     28 C           7.6589    0.7607   -0.1260 C.ar    1  LIG1       -0.0155
     29 C          10.5036    0.5893   -0.1987 C.ar    1  LIG1       -0.0024
     30 H          10.4327    2.7313   -0.3089 H       1  LIG1        0.0624
     31 C           8.3076   -0.4772   -0.0762 C.ar    1  LIG1       -0.0380
     32 C           9.7091   -0.5835   -0.1114 C.ar    1  LIG1        0.0329
     33 H           7.7265   -1.3886   -0.0073 H       1  LIG1        0.0636
     34 H           7.9785    2.8899   -0.2667 H       1  LIG1        0.0624
     35 C          10.2779   -1.8969   -0.0879 C.1     1  LIG1       -0.0690
     36 C          10.7051   -3.0292   -0.0736 C.1     1  LIG1       -0.1139
     37 H          11.1028   -4.0174   -0.0607 H       1  LIG1        0.1232
     38 C          12.6759    1.3304   -1.2008 C.ar    1  LIG1       -0.0539
     39 C          14.0698    1.3468   -1.2365 C.ar    1  LIG1       -0.0600
     40 C          11.9900    0.5626   -0.2445 C.ar    1  LIG1       -0.0156
     41 C          14.8066    0.6045   -0.3190 C.ar    1  LIG1       -0.0463
     42 H          14.5830    1.9387   -1.9885 H       1  LIG1        0.0618
     43 C          12.7367   -0.1825    0.6767 C.ar    1  LIG1       -0.0386
     44 C          14.1415   -0.1689    0.6503 C.ar    1  LIG1        0.0253
     45 H          12.2324   -0.7734    1.4315 H       1  LIG1        0.0636
     46 H          15.8912    0.6132   -0.3409 H       1  LIG1        0.0630
     47 H          12.1096    1.8996   -1.9316 H       1  LIG1        0.0624
     48 C          14.8865   -0.9288    1.6061 C.1     1  LIG1       -0.0696
     49 C          15.5199   -1.5705    2.4133 C.1     1  LIG1       -0.1139
     50 H          16.0753   -2.1353    3.1254 H       1  LIG1        0.1232
@<TRIPOS>BOND
     1    25    24    1
     2    24    23    3
     3    42    39    1
     4    47    38    1
     5    23    20    1
     6    21    19    1
     7    39    38   ar
     8    39    41   ar
     9    38    40   ar
    10    20    19   ar
    11    20    17   ar
    12    19    16   ar
    13    46    41    1
    14    41    44   ar
    15    30    27    1
    16    34    26    1
    17    27    26   ar
    18    27    29   ar
    19    40    29    1
    20    40    43   ar
    21    26    28   ar
    22    13    12    1
    23    29    32   ar
    24    28    31   ar
    25    28    17    1
    26    32    35    1
    27    32    31   ar
    28    35    36    3
    29    31    33    1
    30    36    37    1
    31    12    11    3
    32    17    15   ar
    33    11     7    1
    34    16     4    1
    35    16    14   ar
    36     7     4   ar
    37     7     6   ar
    38     4     2   ar
    39     8     6    1
    40     6     3   ar
    41     2     5    1
    42     2     1   ar
    43     3     1   ar
    44     3     9    1
    45     1    10    1
    46    44    43   ar
    47    44    48    1
    48    43    45    1
    49    15    14   ar
    50    15    18    1
    51    14    22    1
    52    48    49    3
    53    49    50    1
