@<TRIPOS>MOLECULE
mol_data/opt/b3lyp/geoms/mol2/4ae4ae4ae-4ae-.out
 50 53 0 0 0
SMALL
GASTEIGER

@<TRIPOS>ATOM
      1 C          -0.1297    0.4796    1.4179 C.ar    1  LIG1       -0.0611
      2 C           1.2567    0.5217    1.2908 C.ar    1  LIG1       -0.0529
      3 C          -0.9268    1.2727    0.5916 C.ar    1  LIG1       -0.0606
      4 C           1.8874    1.3468    0.3474 C.ar    1  LIG1       -0.0025
      5 H           1.8745   -0.0797    1.9507 H       1  LIG1        0.0624
      6 C          -0.3284    2.0957   -0.3557 C.ar    1  LIG1       -0.0457
      7 C           1.0721    2.1465   -0.4960 C.ar    1  LIG1        0.0324
      8 H          -0.9359    2.7093   -1.0126 H       1  LIG1        0.0630
      9 H          -2.0084    1.2502    0.6833 H       1  LIG1        0.0618
     10 H          -0.5841   -0.1642    2.1651 H       1  LIG1        0.0618
     11 C           1.6154    2.9839   -1.5213 C.1     1  LIG1       -0.0691
     12 C           2.0185    3.7017   -2.4085 C.1     1  LIG1       -0.1139
     13 H           2.3968    4.3267   -3.1840 H       1  LIG1        0.1232
     14 C           4.0767    0.1281    0.2413 C.ar    1  LIG1       -0.0533
     15 C           5.4666    0.1120    0.2042 C.ar    1  LIG1       -0.0523
     16 C           3.3724    1.3421    0.2652 C.ar    1  LIG1       -0.0155
     17 C           6.2218    1.2934    0.1958 C.ar    1  LIG1       -0.0024
     18 H           5.9883   -0.8400    0.1993 H       1  LIG1        0.0624
     19 C           4.1128    2.5281    0.2518 C.ar    1  LIG1       -0.0380
     20 C           5.5184    2.5261    0.2174 C.ar    1  LIG1        0.0329
     21 H           3.6021    3.4832    0.2690 H       1  LIG1        0.0636
     22 H           3.5292   -0.8095    0.2395 H       1  LIG1        0.0624
     23 C           6.1834    3.7930    0.1714 C.1     1  LIG1       -0.0690
     24 C           6.6905    4.8910    0.1256 C.1     1  LIG1       -0.1139
     25 H           7.1525    5.8499    0.0803 H       1  LIG1        0.1232
     26 C           8.5181    1.9498    1.0286 C.ar    1  LIG1       -0.0533
     27 C           9.9004    1.8041    1.0017 C.ar    1  LIG1       -0.0523
     28 C           7.7049    1.2057    0.1596 C.ar    1  LIG1       -0.0155
     29 C          10.5418    0.9236    0.1178 C.ar    1  LIG1       -0.0024
     30 H          10.5059    2.3656    1.7065 H       1  LIG1        0.0624
     31 C           8.3318    0.3274   -0.7308 C.ar    1  LIG1       -0.0380
     32 C           9.7291    0.1754   -0.7723 C.ar    1  LIG1        0.0329
     33 H           7.7338   -0.2396   -1.4363 H       1  LIG1        0.0636
     34 H           8.0653    2.6279    1.7427 H       1  LIG1        0.0624
     35 C          10.2756   -0.7095   -1.7556 C.1     1  LIG1       -0.0690
     36 C          10.6830   -1.4639   -2.6098 C.1     1  LIG1       -0.1139
     37 H          11.0644   -2.1219   -3.3559 H       1  LIG1        0.1232
     38 C          12.8105    1.9830    0.1820 C.ar    1  LIG1       -0.0539
     39 C          14.2010    1.9041    0.2487 C.ar    1  LIG1       -0.0600
     40 C          12.0250    0.8185    0.1470 C.ar    1  LIG1       -0.0156
     41 C          14.8352    0.6662    0.2866 C.ar    1  LIG1       -0.0463
     42 H          14.7927    2.8145    0.2659 H       1  LIG1        0.0618
     43 C          12.6686   -0.4248    0.1854 C.ar    1  LIG1       -0.0386
     44 C          14.0690   -0.5137    0.2560 C.ar    1  LIG1        0.0253
     45 H          12.0855   -1.3376    0.1718 H       1  LIG1        0.0636
     46 H          15.9165    0.5977    0.3391 H       1  LIG1        0.0630
     47 H          12.3254    2.9532    0.1356 H       1  LIG1        0.0624
     48 C          14.7074   -1.7928    0.3043 C.1     1  LIG1       -0.0696
     49 C          15.2510   -2.8732    0.3453 C.1     1  LIG1       -0.1139
     50 H          15.7272   -3.8254    0.3822 H       1  LIG1        0.1232
@<TRIPOS>BOND
     1    37    36    1
     2    13    12    1
     3    36    35    3
     4    12    11    3
     5    35    32    1
     6    11     7    1
     7    33    31    1
     8     8     6    1
     9    32    31   ar
    10    32    29   ar
    11    31    28   ar
    12     7     6   ar
    13     7     4   ar
    14     6     3   ar
    15    25    24    1
    16    29    40    1
    17    29    27   ar
    18    24    23    3
    19    47    38    1
    20    40    38   ar
    21    40    43   ar
    22    28    17    1
    23    28    26   ar
    24    23    20    1
    25    45    43    1
    26    38    39   ar
    27    43    44   ar
    28    17    15   ar
    29    17    20   ar
    30    18    15    1
    31    15    14   ar
    32    20    19   ar
    33    22    14    1
    34    14    16   ar
    35    39    42    1
    36    39    41   ar
    37    19    16   ar
    38    19    21    1
    39    44    41   ar
    40    44    48    1
    41    16     4    1
    42    41    46    1
    43    48    49    3
    44    49    50    1
    45     4     2   ar
    46     3     9    1
    47     3     1   ar
    48    27    26   ar
    49    27    30    1
    50    26    34    1
    51     2     1   ar
    52     2     5    1
    53     1    10    1
