@<TRIPOS>MOLECULE
mol_data/opt/b3lyp/geoms/mol2/4ae6hf13fe-12ei-.out
 49 52 0 0 0
SMALL
GASTEIGER

@<TRIPOS>ATOM
      1 C          -0.0812    0.8870   -1.3721 C.ar    1  LIG1       -0.0611
      2 C           1.3009    0.7767   -1.2254 C.ar    1  LIG1       -0.0528
      3 C          -0.8083    1.7007   -0.5018 C.ar    1  LIG1       -0.0606
      4 C           1.9897    1.4654   -0.2165 C.ar    1  LIG1        0.0009
      5 H           1.8707    0.1521   -1.9069 H       1  LIG1        0.0624
      6 C          -0.1507    2.3872    0.5136 C.ar    1  LIG1       -0.0457
      7 C           1.2439    2.2786    0.6768 C.ar    1  LIG1        0.0325
      8 H          -0.7072    3.0096    1.2066 H       1  LIG1        0.0630
      9 H          -1.8845    1.7962   -0.6096 H       1  LIG1        0.0618
     10 H          -0.5860    0.3432   -2.1649 H       1  LIG1        0.0618
     11 C           1.8679    2.9611    1.7672 C.1     1  LIG1       -0.0691
     12 C           2.3551    3.5407    2.7106 C.1     1  LIG1       -0.1139
     13 H           2.8090    4.0493    3.5292 H       1  LIG1        0.1232
     14 C           4.3775    2.3590   -0.3652 C.ar    1  LIG1        0.1249
     15 C           3.4655    1.3014   -0.0987 C.ar    1  LIG1        0.0263
     16 C           4.0176    0.0645    0.2085 C.ar    1  LIG1       -0.0070
     17 C           5.4019   -0.1313    0.2911 C.ar    1  LIG1        0.1450
     18 C           6.2255    0.9828    0.0359 C.ar    1  LIG1        0.1341
     19 N           5.6933    2.1840   -0.2976 N.ar    1  LIG1       -0.2266
     20 H           3.3749   -0.7868    0.4092 H       1  LIG1        0.0662
     21 N           3.9376    3.6323   -0.6929 N.pl3   1  LIG1       -0.3426
     22 H           4.6430    4.2045   -1.1340 H       1  LIG1        0.1437
     23 H           3.0206    3.6991   -1.1091 H       1  LIG1        0.1437
     24 O           5.8102   -1.3893    0.6024 O.3     1  LIG1       -0.5045
     25 H           6.7795   -1.4600    0.6649 H       1  LIG1        0.2922
     26 C           7.6882    0.9913    0.0748 C.ar    1  LIG1        0.1124
     27 C           8.6977    0.0815    0.3643 C.ar    1  LIG1        0.1598
     28 C           9.9644    0.7125    0.2146 C.ar    1  LIG1        0.0950
     29 C           9.6978    2.0442   -0.1648 C.ar    1  LIG1        0.1030
     30 N           8.3412    2.1657   -0.2396 N.ar    1  LIG1       -0.3465
     31 H           7.8149    2.9953   -0.4774 H       1  LIG1        0.1662
     32 O           8.5218   -1.2243    0.7253 O.3     1  LIG1       -0.5034
     33 H           9.3932   -1.6468    0.7903 H       1  LIG1        0.2923
     34 C          11.1684   -0.0155    0.3456 C.1     1  LIG1       -0.0637
     35 C          12.1063   -0.7753    0.4689 C.1     1  LIG1       -0.1137
     36 H          12.9724   -1.3883    0.5615 H       1  LIG1        0.1232
     37 C          10.5401    3.1659   -0.4805 C.ar    1  LIG1        0.1677
     38 C          11.8326    3.5575   -0.1716 C.ar    1  LIG1        0.0747
     39 C          12.0356    4.8426   -0.8123 C.ar    1  LIG1        0.0034
     40 C          10.8637    5.1330   -1.4324 C.ar    1  LIG1        0.0968
     41 O           9.9459    4.1352   -1.2464 O.2     1  LIG1       -0.4599
     42 H          10.5322    5.9708   -2.0260 H       1  LIG1        0.1032
     43 C          12.7762    2.9223    0.6695 C.1     1  LIG1       -0.0656
     44 C          13.6170    2.4453    1.3984 C.1     1  LIG1       -0.1138
     45 H          14.3350    2.0002    2.0468 H       1  LIG1        0.1232
     46 C          13.2862    5.6616   -0.7638 C.3     1  LIG1       -0.0355
     47 H          13.1614    6.6048   -1.3020 H       1  LIG1        0.0279
     48 H          14.1289    5.1228   -1.2104 H       1  LIG1        0.0279
     49 H          13.5658    5.8915    0.2699 H       1  LIG1        0.0279
@<TRIPOS>BOND
     1    10     1    1
     2    42    40    1
     3     5     2    1
     4    40    41   ar
     5    40    39   ar
     6     1     2   ar
     7     1     3   ar
     8    47    46    1
     9    41    37   ar
    10     2     4   ar
    11    48    46    1
    12    22    21    1
    13    23    21    1
    14    39    46    1
    15    39    38   ar
    16    46    49    1
    17    21    14    1
    18     9     3    1
    19     3     6   ar
    20    37    38   ar
    21    37    29    1
    22    31    30    1
    23    14    19   ar
    24    14    15   ar
    25    19    18   ar
    26    30    29   ar
    27    30    26   ar
    28     4    15    1
    29     4     7   ar
    30    38    43    1
    31    29    28   ar
    32    15    16   ar
    33    18    26    1
    34    18    17   ar
    35    26    27   ar
    36    16    17   ar
    37    16    20    1
    38    28    34    1
    39    28    27   ar
    40    17    24    1
    41    34    35    3
    42    27    32    1
    43    35    36    1
    44     6     7   ar
    45     6     8    1
    46    24    25    1
    47    43    44    3
    48     7    11    1
    49    32    33    1
    50    44    45    1
    51    11    12    3
    52    12    13    1
