@<TRIPOS>MOLECULE
mol_data/opt/b3lyp/geoms/mol2/4af12eh13la6fh6ee4ai-6ah6dd.out
 96 103 0 0 0
SMALL
GASTEIGER

@<TRIPOS>ATOM
      1 C           0.4927    0.1964    3.5033 C.ar    1  LIG1       -0.0609
      2 C           1.6913    0.0753    2.8115 C.ar    1  LIG1       -0.0475
      3 C          -0.0795    1.4569    3.6789 C.ar    1  LIG1       -0.0583
      4 C           2.3658    1.1924    2.2761 C.ar    1  LIG1        0.0599
      5 H           2.1269   -0.9061    2.6699 H       1  LIG1        0.0626
      6 C           0.5598    2.5793    3.1608 C.ar    1  LIG1       -0.0195
      7 C           1.7686    2.4677    2.4670 C.ar    1  LIG1        0.1275
      8 H           0.1226    3.5670    3.2941 H       1  LIG1        0.0654
      9 H          -1.0172    1.5708    4.2139 H       1  LIG1        0.0619
     10 H           0.0057   -0.6896    3.8975 H       1  LIG1        0.0618
     11 O           2.3872    3.5832    1.9761 O.3     1  LIG1       -0.5061
     12 H           1.8483    4.3563    2.1919 H       1  LIG1        0.2922
     13 C           3.6199    1.0020    1.5643 C.ar    1  LIG1        0.1564
     14 C           4.4831   -0.0810    1.4033 C.ar    1  LIG1        0.0918
     15 C           5.5715    0.3671    0.5666 C.ar    1  LIG1        0.0888
     16 C           5.2957    1.6820    0.2567 C.ar    1  LIG1        0.1771
     17 O           4.1171    2.0534    0.8684 O.2     1  LIG1       -0.4499
     18 C           4.4130   -1.3921    1.9307 C.1     1  LIG1       -0.0640
     19 C           4.4271   -2.5372    2.3295 C.1     1  LIG1       -0.1137
     20 H           4.4259   -3.5317    2.7113 H       1  LIG1        0.1232
     21 N           6.6874   -0.3819    0.2496 N.pl3   1  LIG1       -0.3540
     22 H           6.5304   -1.3809    0.2561 H       1  LIG1        0.1425
     23 H           7.2035   -0.0473   -0.5553 H       1  LIG1        0.1425
     24 C           5.9311    2.7339   -0.4775 C.ar    1  LIG1        0.1266
     25 C           6.9971    2.7784   -1.3786 C.ar    1  LIG1        0.1489
     26 C           7.1874    4.1210   -1.7805 C.ar    1  LIG1        0.0063
     27 C           6.2275    4.8952   -1.1279 C.ar    1  LIG1        0.0557
     28 N           5.4650    4.0286   -0.3658 N.ar    1  LIG1       -0.3486
     29 H           4.8104    4.3032    0.3543 H       1  LIG1        0.1661
     30 O           7.6582    1.6496   -1.7848 O.3     1  LIG1       -0.4929
     31 C           8.7553    1.8537   -2.6645 C.3     1  LIG1        0.0789
     32 H           9.1813    0.8691   -2.8620 H       1  LIG1        0.0660
     33 H           8.4266    2.3020   -3.6105 H       1  LIG1        0.0660
     34 H           9.5186    2.4956   -2.2070 H       1  LIG1        0.0660
     35 H           7.9002    4.4888   -2.5027 H       1  LIG1        0.0676
     36 C           4.7205    6.9150   -0.9021 C.ar    1  LIG1        0.2223
     37 C           5.9909    6.3313   -1.1613 C.ar    1  LIG1        0.0615
     38 C           7.0233    7.2264   -1.4610 C.ar    1  LIG1       -0.0247
     39 C           6.8153    8.6100   -1.4652 C.ar    1  LIG1        0.0519
     40 C           5.5213    9.0666   -1.1262 C.ar    1  LIG1        0.0981
     41 N           4.5148    8.2134   -0.8760 N.ar    1  LIG1       -0.2105
     42 H           8.0184    6.8376   -1.6597 H       1  LIG1        0.0645
     43 O           3.6131    6.1486   -0.6280 O.3     1  LIG1       -0.4919
     44 H           3.7091    5.2935   -1.0728 H       1  LIG1        0.2937
     45 N           7.8766    9.4861   -1.7274 N.pl3   1  LIG1       -0.3563
     46 H           8.6188    9.0767   -2.2797 H       1  LIG1        0.1424
     47 H           7.5962   10.3832   -2.1022 H       1  LIG1        0.1424
     48 C           4.0772   11.0959   -1.6750 C.ar    1  LIG1        0.1231
     49 C           5.1938   10.5133   -1.0206 C.ar    1  LIG1        0.0373
     50 C           5.9670   11.3701   -0.2391 C.ar    1  LIG1       -0.0323
     51 C           5.6284   12.7233   -0.0722 C.ar    1  LIG1        0.0513
     52 C           4.4462   13.1897   -0.7106 C.ar    1  LIG1        0.0877
     53 N           3.7319   12.3814   -1.5041 N.ar    1  LIG1       -0.2365
     54 H           6.8537   10.9900    0.2566 H       1  LIG1        0.0638
     55 C           3.2691   10.3566   -2.6001 C.1     1  LIG1       -0.0491
     56 C           2.5891    9.7801   -3.4165 C.1     1  LIG1       -0.1124
     57 H           1.9825    9.2548   -4.1173 H       1  LIG1        0.1232
     58 C           6.5136   13.5462    0.6877 C.1     1  LIG1       -0.0675
     59 C           7.3209   14.1826    1.3274 C.1     1  LIG1       -0.1138
     60 H           8.0176   14.7660    1.8838 H       1  LIG1        0.1232
     61 C           4.0339   15.3307    0.5878 C.ar    1  LIG1       -0.0519
     62 C           3.4844   16.6062    0.6481 C.ar    1  LIG1       -0.0531
     63 C           3.9220   14.5767   -0.5880 C.ar    1  LIG1        0.0019
     64 C           2.8240   17.1801   -0.4496 C.ar    1  LIG1       -0.0134
     65 H           3.5829   17.1843    1.5623 H       1  LIG1        0.0624
     66 C           3.2328   15.1385   -1.6732 C.ar    1  LIG1       -0.0490
     67 C           2.6906   16.4249   -1.6385 C.ar    1  LIG1       -0.0421
     68 H           3.1075   14.5323   -2.5639 H       1  LIG1        0.0627
     69 H           4.5334   14.9231    1.4575 H       1  LIG1        0.0624
     70 C           1.9539   16.9386   -2.8567 C.3     1  LIG1       -0.0391
     71 H           1.6147   16.1032   -3.4746 H       1  LIG1        0.0278
     72 H           2.5925   17.5684   -3.4868 H       1  LIG1        0.0278
     73 H           1.0807   17.5378   -2.5852 H       1  LIG1        0.0278
     74 C           2.5951   19.5904   -1.1996 C.ar    1  LIG1        0.0361
     75 C           2.2726   18.5536   -0.3038 C.ar    1  LIG1        0.0023
     76 C           1.4483   18.8838    0.7725 C.ar    1  LIG1       -0.0298
     77 C           0.9552   20.1870    0.9313 C.ar    1  LIG1        0.0516
     78 C           1.3190   21.1366   -0.0543 C.ar    1  LIG1        0.0943
     79 N           2.1333   20.8294   -1.0742 N.ar    1  LIG1       -0.2524
     80 H           1.1773   18.1192    1.4962 H       1  LIG1        0.0643
     81 H           3.2659   19.4084   -2.0342 H       1  LIG1        0.0836
     82 N           0.1069   20.4971    1.9925 N.pl3   1  LIG1       -0.3563
     83 H           0.1237   19.8303    2.7529 H       1  LIG1        0.1424
     84 H           0.1547   21.4493    2.3295 H       1  LIG1        0.1424
     85 C           1.6685   23.6406   -0.2914 C.ar    1  LIG1        0.1493
     86 C           0.8171   22.5359   -0.0451 C.ar    1  LIG1        0.0392
     87 C          -0.5392   22.8244    0.1407 C.ar    1  LIG1       -0.0309
     88 C          -0.9888   24.1472    0.0584 C.ar    1  LIG1        0.0705
     89 C          -0.0509   25.1595   -0.2136 C.ar    1  LIG1        0.0464
     90 N           1.2435   24.9130   -0.3767 N.ar    1  LIG1       -0.2427
     91 H          -1.2425   22.0220    0.3335 H       1  LIG1        0.0638
     92 H          -0.3685   26.1957   -0.2935 H       1  LIG1        0.0843
     93 N           4.2573   23.4180   -0.4704 N.1     1  LIG1       -0.1893
     94 C           3.0982   23.4791   -0.4175 C.1     1  LIG1        0.1198
     95 N          -3.4936   24.7396    0.3882 N.1     1  LIG1       -0.1908
     96 C          -2.3723   24.4701    0.2377 C.1     1  LIG1        0.1007
@<TRIPOS>BOND
     1    57    56    1
     2    33    31    1
     3    72    70    1
     4    71    70    1
     5    56    55    3
     6    32    31    1
     7    70    73    1
     8    70    67    1
     9    31    34    1
    10    31    30    1
    11    55    48    1
    12    68    66    1
    13    35    26    1
    14    46    45    1
    15    47    45    1
    16    81    74    1
    17    30    25    1
    18    26    25   ar
    19    26    27   ar
    20    45    39    1
    21    48    53   ar
    22    48    49   ar
    23    66    67   ar
    24    66    63   ar
    25    42    38    1
    26    67    64   ar
    27    53    52   ar
    28    39    38   ar
    29    39    40   ar
    30    38    37   ar
    31    25    24   ar
    32    74    79   ar
    33    74    75   ar
    34    37    27    1
    35    37    36   ar
    36    27    28   ar
    37    40    49    1
    38    40    41   ar
    39    79    78   ar
    40    44    43    1
    41    49    50   ar
    42    36    41   ar
    43    36    43    1
    44    52    63    1
    45    52    51   ar
    46    63    61   ar
    47    23    21    1
    48    24    28   ar
    49    24    16    1
    50    93    94    3
    51    64    75    1
    52    64    62   ar
    53    94    85    1
    54    90    85   ar
    55    90    89   ar
    56    28    29    1
    57    75    76   ar
    58    92    89    1
    59    85    86   ar
    60    50    51   ar
    61    50    54    1
    62    89    88   ar
    63    51    58    1
    64    78    86    1
    65    78    77   ar
    66    86    87   ar
    67    88    87   ar
    68    88    96    1
    69    87    91    1
    70    96    95    3
    71    21    22    1
    72    21    15    1
    73    16    15   ar
    74    16    17   ar
    75    15    14   ar
    76    61    62   ar
    77    61    69    1
    78    62    65    1
    79    58    59    3
    80    76    77   ar
    81    76    80    1
    82    17    13   ar
    83    77    82    1
    84    59    60    1
    85    14    13   ar
    86    14    18    1
    87    13     4    1
    88    18    19    3
    89    11    12    1
    90    11     7    1
    91    82    84    1
    92    82    83    1
    93     4     7   ar
    94     4     2   ar
    95    19    20    1
    96     7     6   ar
    97     5     2    1
    98     2     1   ar
    99     6     8    1
   100     6     3   ar
   101     1     3   ar
   102     1    10    1
   103     3     9    1
