@<TRIPOS>MOLECULE
mol_data/opt/b3lyp/geoms/mol2/4af12ea-12ah-6fl.out
 45 48 0 0 0
SMALL
GASTEIGER

@<TRIPOS>ATOM
      1 C          -0.0721   -0.0395    0.5673 C.ar    1  LIG1       -0.0609
      2 C           1.3157   -0.0240    0.4967 C.ar    1  LIG1       -0.0475
      3 C          -0.7908    1.1169    0.2607 C.ar    1  LIG1       -0.0583
      4 C           2.0306    1.1286    0.1152 C.ar    1  LIG1        0.0599
      5 H           1.8738   -0.9180    0.7469 H       1  LIG1        0.0626
      6 C          -0.1137    2.2723   -0.1180 C.ar    1  LIG1       -0.0195
      7 C           1.2825    2.2957   -0.1984 C.ar    1  LIG1        0.1275
      8 H          -0.6673    3.1763   -0.3625 H       1  LIG1        0.0654
      9 H          -1.8751    1.1244    0.3154 H       1  LIG1        0.0619
     10 H          -0.5877   -0.9453    0.8685 H       1  LIG1        0.0618
     11 O           1.9397    3.4219   -0.5912 O.3     1  LIG1       -0.5061
     12 H           1.3060    4.1359   -0.7442 H       1  LIG1        0.2922
     13 C           3.4857    1.0883    0.0568 C.ar    1  LIG1        0.1546
     14 C           4.4309    0.0632    0.0145 C.ar    1  LIG1        0.0712
     15 C           5.7178    0.6975   -0.0316 C.ar    1  LIG1        0.0033
     16 C           5.4868    2.0466   -0.0183 C.ar    1  LIG1        0.1719
     17 O           4.1429    2.2779    0.0436 O.2     1  LIG1       -0.4504
     18 C           4.2202   -1.3385   -0.0136 C.1     1  LIG1       -0.0658
     19 C           4.0886   -2.5421   -0.0397 C.1     1  LIG1       -0.1138
     20 H           3.9633   -3.5995   -0.0710 H       1  LIG1        0.1232
     21 H           6.6715    0.1943   -0.0810 H       1  LIG1        0.0669
     22 C           6.2897    3.2343   -0.0993 C.ar    1  LIG1        0.1725
     23 C           7.6238    3.5111   -0.2639 C.ar    1  LIG1        0.0086
     24 C           7.7460    4.9329   -0.3426 C.ar    1  LIG1        0.0718
     25 C           6.4713    5.4556   -0.2014 C.ar    1  LIG1        0.1615
     26 O           5.5896    4.4032   -0.0542 O.2     1  LIG1       -0.4497
     27 H           8.4247    2.7897   -0.3426 H       1  LIG1        0.0675
     28 N           8.9418    5.6440   -0.5052 N.pl3   1  LIG1       -0.3550
     29 H           9.6891    5.0656   -0.8695 H       1  LIG1        0.1424
     30 H           8.8352    6.4680   -1.0867 H       1  LIG1        0.1424
     31 C           4.5299    7.0548   -0.4633 C.ar    1  LIG1        0.2235
     32 C           5.9063    6.7911   -0.2019 C.ar    1  LIG1        0.0838
     33 C           6.7349    7.9038    0.0495 C.ar    1  LIG1       -0.0026
     34 C           6.2072    9.1909   -0.0103 C.ar    1  LIG1        0.1390
     35 C           4.8482    9.3276   -0.3189 C.ar    1  LIG1        0.0730
     36 N           4.0414    8.2901   -0.5261 N.ar    1  LIG1       -0.2172
     37 H           7.7684    7.7350    0.3252 H       1  LIG1        0.0663
     38 H           4.4154   10.3233   -0.3863 H       1  LIG1        0.0868
     39 O           3.6042    6.0882   -0.6790 O.3     1  LIG1       -0.4919
     40 H           3.9796    5.2087   -0.5107 H       1  LIG1        0.2937
     41 O           6.9017   10.3474    0.2141 O.3     1  LIG1       -0.4936
     42 C           8.2720   10.2400    0.5579 C.3     1  LIG1        0.0789
     43 H           8.6304   11.2606    0.6994 H       1  LIG1        0.0660
     44 H           8.4155    9.6753    1.4886 H       1  LIG1        0.0660
     45 H           8.8563    9.7628   -0.2409 H       1  LIG1        0.0660
@<TRIPOS>BOND
     1    30    28    1
     2    29    28    1
     3    12    11    1
     4    39    40    1
     5    39    31    1
     6    11     7    1
     7    36    31   ar
     8    36    35   ar
     9    28    24    1
    10    31    32   ar
    11    38    35    1
    12     8     6    1
    13    27    23    1
    14    24    23   ar
    15    24    25   ar
    16    35    34   ar
    17    23    22   ar
    18    45    42    1
    19    32    25    1
    20    32    33   ar
    21    25    26   ar
    22     7     6   ar
    23     7     4   ar
    24     6     3   ar
    25    22    26   ar
    26    22    16    1
    27    21    15    1
    28    20    19    1
    29    19    18    3
    30    15    16   ar
    31    15    14   ar
    32    16    17   ar
    33    18    14    1
    34    34    33   ar
    35    34    41    1
    36    14    13   ar
    37    17    13   ar
    38    33    37    1
    39    13     4    1
    40     4     2   ar
    41    41    42    1
    42     3     9    1
    43     3     1   ar
    44     2     1   ar
    45     2     5    1
    46    42    43    1
    47    42    44    1
    48     1    10    1
