@<TRIPOS>MOLECULE
mol_data/opt/b3lyp/geoms/mol2/4af13al-6if-6hl-.out
 53 56 0 0 0
SMALL
GASTEIGER

@<TRIPOS>ATOM
      1 C          -0.1386   -0.2745   -0.7315 C.ar    1  LIG1       -0.0609
      2 C           1.1902   -0.1559   -0.3410 C.ar    1  LIG1       -0.0491
      3 C          -0.7954    0.8176   -1.2997 C.ar    1  LIG1       -0.0583
      4 C           1.9210    1.0390   -0.4965 C.ar    1  LIG1        0.0398
      5 H           1.6863   -1.0114    0.1042 H       1  LIG1        0.0625
      6 C          -0.1048    2.0156   -1.4676 C.ar    1  LIG1       -0.0195
      7 C           1.2288    2.1286   -1.0755 C.ar    1  LIG1        0.1259
      8 H          -0.6013    2.8776   -1.9096 H       1  LIG1        0.0654
      9 H          -1.8328    0.7434   -1.6096 H       1  LIG1        0.0619
     10 H          -0.6596   -1.2161   -0.5906 H       1  LIG1        0.0618
     11 O           1.9074    3.3171   -1.2482 O.3     1  LIG1       -0.5061
     12 H           1.3177    3.9633   -1.6569 H       1  LIG1        0.2922
     13 C           3.3168    1.0993   -0.0699 C.ar    1  LIG1        0.0540
     14 C           4.1288    0.0887    0.4572 C.ar    1  LIG1        0.0061
     15 C           5.3981    0.6530    0.6922 C.ar    1  LIG1        0.1459
     16 C           5.3674    2.0084    0.3247 C.ar    1  LIG1        0.0910
     17 N           4.0817    2.2342   -0.1277 N.ar    1  LIG1       -0.3511
     18 H           3.7418    3.0893   -0.5367 H       1  LIG1        0.1660
     19 H           3.8329   -0.9306    0.6467 H       1  LIG1        0.0676
     20 O           6.5119    0.0556    1.2026 O.3     1  LIG1       -0.4930
     21 C           6.3648   -1.2939    1.6164 C.3     1  LIG1        0.0789
     22 H           7.3329   -1.5993    2.0159 H       1  LIG1        0.0660
     23 H           5.6012   -1.3908    2.3989 H       1  LIG1        0.0660
     24 H           6.0986   -1.9457    0.7741 H       1  LIG1        0.0660
     25 C           6.1924    4.4163    0.4786 C.ar    1  LIG1        0.0484
     26 C           6.4214    3.0168    0.3547 C.ar    1  LIG1        0.0264
     27 C           7.7615    2.6033    0.2901 C.ar    1  LIG1       -0.0071
     28 C           8.7945    3.5309    0.2919 C.ar    1  LIG1        0.1435
     29 C           8.4816    4.9068    0.3271 C.ar    1  LIG1        0.1159
     30 N           7.1991    5.2937    0.4589 N.ar    1  LIG1       -0.2475
     31 H           8.0089    1.5503    0.2505 H       1  LIG1        0.0662
     32 C           4.8214    5.0255    0.6704 C.3     1  LIG1       -0.0217
     33 H           4.2062    4.4453    1.3639 H       1  LIG1        0.0293
     34 H           4.2661    5.1132   -0.2736 H       1  LIG1        0.0293
     35 H           4.9379    6.0383    1.0597 H       1  LIG1        0.0293
     36 O          10.0719    3.0457    0.2604 O.3     1  LIG1       -0.5046
     37 H          10.6799    3.7733    0.4603 H       1  LIG1        0.2922
     38 C           9.4792    7.1440    1.0373 C.ar    1  LIG1        0.1257
     39 C           9.5277    5.9582    0.2499 C.ar    1  LIG1        0.0469
     40 C          10.6100    5.8236   -0.6387 C.ar    1  LIG1       -0.0059
     41 C          11.6045    6.8010   -0.6940 C.ar    1  LIG1        0.1389
     42 C          11.4747    7.9047    0.1552 C.ar    1  LIG1        0.0713
     43 N          10.4460    8.0773    0.9805 N.ar    1  LIG1       -0.2364
     44 H          10.6406    4.9683   -1.3041 H       1  LIG1        0.0662
     45 H          12.2395    8.6787    0.1393 H       1  LIG1        0.0868
     46 N           8.4611    7.3754    1.9348 N.pl3   1  LIG1       -0.3426
     47 H           8.4360    8.3279    2.2701 H       1  LIG1        0.1437
     48 H           7.5746    6.9574    1.6773 H       1  LIG1        0.1437
     49 O          12.6999    6.7821   -1.5166 O.3     1  LIG1       -0.4936
     50 C          12.8494    5.6749   -2.3877 C.3     1  LIG1        0.0789
     51 H          13.7736    5.8464   -2.9415 H       1  LIG1        0.0660
     52 H          12.9328    4.7290   -1.8349 H       1  LIG1        0.0660
     53 H          12.0145    5.5982   -3.0971 H       1  LIG1        0.0660
@<TRIPOS>BOND
     1    53    50    1
     2    51    50    1
     3    50    52    1
     4    50    49    1
     5     8     6    1
     6    12    11    1
     7     9     3    1
     8    49    41    1
     9     6     3   ar
    10     6     7   ar
    11    44    40    1
    12     3     1   ar
    13    11     7    1
    14     7     4   ar
    15     1    10    1
    16     1     2   ar
    17    41    40   ar
    18    41    42   ar
    19    40    39   ar
    20    18    17    1
    21     4     2   ar
    22     4    13    1
    23     2     5    1
    24    34    32    1
    25    17    13   ar
    26    17    16   ar
    27    13    14   ar
    28    45    42    1
    29    42    43   ar
    30    39    29    1
    31    39    38   ar
    32    31    27    1
    33    36    28    1
    34    36    37    1
    35    27    28   ar
    36    27    26   ar
    37    28    29   ar
    38    16    26    1
    39    16    15   ar
    40    29    30   ar
    41    26    25   ar
    42    14    19    1
    43    14    15   ar
    44    30    25   ar
    45    25    32    1
    46    32    35    1
    47    32    33    1
    48    15    20    1
    49    24    21    1
    50    43    38   ar
    51    38    46    1
    52    20    21    1
    53    21    22    1
    54    21    23    1
    55    48    46    1
    56    46    47    1
