@<TRIPOS>MOLECULE
mol_data/opt/b3lyp/geoms/mol2/4af4af-4af-4af-.out
 46 49 0 0 0
SMALL
GASTEIGER

@<TRIPOS>ATOM
      1 C          -0.2805    0.0886    0.1245 C.ar    1  LIG1       -0.0610
      2 C           1.1126    0.1002    0.0899 C.ar    1  LIG1       -0.0505
      3 C          -0.9730    1.2967    0.1842 C.ar    1  LIG1       -0.0583
      4 C           1.8553    1.2916    0.1138 C.ar    1  LIG1        0.0237
      5 H           1.6553   -0.8397    0.0637 H       1  LIG1        0.0625
      6 C          -0.2665    2.4974    0.2098 C.ar    1  LIG1       -0.0196
      7 C           1.1313    2.5026    0.1759 C.ar    1  LIG1        0.1245
      8 H          -0.8003    3.4452    0.2507 H       1  LIG1        0.0654
      9 H          -2.0584    1.3115    0.2139 H       1  LIG1        0.0619
     10 H          -0.8170   -0.8548    0.1124 H       1  LIG1        0.0618
     11 O           1.8315    3.6794    0.1836 O.3     1  LIG1       -0.5062
     12 H           1.2025    4.4127    0.1844 H       1  LIG1        0.2922
     13 C           4.1462    2.0590    0.8749 C.ar    1  LIG1       -0.0531
     14 C           5.5293    1.9407    0.8301 C.ar    1  LIG1       -0.0500
     15 C           3.3406    1.2435    0.0603 C.ar    1  LIG1       -0.0109
     16 C           6.1754    1.0183   -0.0092 C.ar    1  LIG1        0.0237
     17 H           6.1392    2.5578    1.4835 H       1  LIG1        0.0625
     18 C           3.9714    0.3325   -0.7960 C.ar    1  LIG1       -0.0117
     19 C           5.3621    0.2160   -0.8376 C.ar    1  LIG1        0.1251
     20 H           3.3926   -0.2857   -1.4738 H       1  LIG1        0.0660
     21 H           3.6868    2.7735    1.5461 H       1  LIG1        0.0624
     22 O           5.8695   -0.6837   -1.7321 O.3     1  LIG1       -0.5061
     23 H           6.8349   -0.6016   -1.7450 H       1  LIG1        0.2922
     24 C           8.4445    2.0897   -0.1163 C.ar    1  LIG1       -0.0531
     25 C           9.8310    2.0000   -0.1269 C.ar    1  LIG1       -0.0500
     26 C           7.6577    0.9265   -0.0374 C.ar    1  LIG1       -0.0109
     27 C          10.4997    0.7675   -0.0608 C.ar    1  LIG1        0.0237
     28 H          10.4266    2.9071   -0.1754 H       1  LIG1        0.0625
     29 C           8.3123   -0.3140    0.0200 C.ar    1  LIG1       -0.0117
     30 C           9.7085   -0.3990    0.0067 C.ar    1  LIG1        0.1251
     31 H           7.7528   -1.2388    0.1212 H       1  LIG1        0.0660
     32 H           7.9620    3.0592   -0.1805 H       1  LIG1        0.0624
     33 O          10.2386   -1.6541    0.0522 O.3     1  LIG1       -0.5061
     34 H          11.2024   -1.5928   -0.0328 H       1  LIG1        0.2922
     35 C          12.7093    1.4197   -1.0581 C.ar    1  LIG1       -0.0537
     36 C          14.1006    1.3692   -1.0734 C.ar    1  LIG1       -0.0577
     37 C          11.9853    0.7053   -0.0864 C.ar    1  LIG1       -0.0110
     38 C          14.8006    0.6067   -0.1378 C.ar    1  LIG1       -0.0201
     39 H          14.6521    1.9212   -1.8288 H       1  LIG1        0.0619
     40 C          12.6911   -0.0575    0.8586 C.ar    1  LIG1       -0.0124
     41 C          14.0898   -0.1065    0.8318 C.ar    1  LIG1        0.1174
     42 H          12.1741   -0.5779    1.6588 H       1  LIG1        0.0660
     43 H          15.8873    0.5681   -0.1585 H       1  LIG1        0.0654
     44 H          12.1750    1.9960   -1.8059 H       1  LIG1        0.0624
     45 O          14.7009   -0.8635    1.7892 O.3     1  LIG1       -0.5067
     46 H          15.6591   -0.8040    1.6792 H       1  LIG1        0.2921
@<TRIPOS>BOND
     1    39    36    1
     2    44    35    1
     3    23    22    1
     4    22    19    1
     5    20    18    1
     6    36    35   ar
     7    36    38   ar
     8    35    37   ar
     9    19    18   ar
    10    19    16   ar
    11    18    15   ar
    12    32    24    1
    13    28    25    1
    14    43    38    1
    15    38    41   ar
    16    25    24   ar
    17    25    27   ar
    18    24    26   ar
    19    37    27    1
    20    37    40   ar
    21    27    30   ar
    22    26    16    1
    23    26    29   ar
    24    34    33    1
    25    16    14   ar
    26    30    29   ar
    27    30    33    1
    28    29    31    1
    29    15     4    1
    30    15    13   ar
    31     5     2    1
    32     2     4   ar
    33     2     1   ar
    34    10     1    1
    35     4     7   ar
    36     1     3   ar
    37     7    11    1
    38     7     6   ar
    39    11    12    1
    40     3     6   ar
    41     3     9    1
    42     6     8    1
    43    14    13   ar
    44    14    17    1
    45    41    40   ar
    46    41    45    1
    47    40    42    1
    48    13    21    1
    49    46    45    1
