@<TRIPOS>MOLECULE
mol_data/opt/b3lyp/geoms/mol2/4af4af4af.out
 35 37 0 0 0
SMALL
GASTEIGER

@<TRIPOS>ATOM
      1 C          -0.0752    0.2601    1.0126 C.ar    1  LIG1       -0.0610
      2 C           1.3123    0.3334    0.9080 C.ar    1  LIG1       -0.0505
      3 C          -0.8637    1.1576    0.2947 C.ar    1  LIG1       -0.0583
      4 C           1.9575    1.2841    0.0997 C.ar    1  LIG1        0.0237
      5 H           1.9277   -0.3511    1.4833 H       1  LIG1        0.0625
      6 C          -0.2564    2.1164   -0.5131 C.ar    1  LIG1       -0.0196
      7 C           1.1364    2.1858   -0.6130 C.ar    1  LIG1        0.1245
      8 H          -0.8649    2.8197   -1.0787 H       1  LIG1        0.0654
      9 H          -1.9468    1.1198    0.3623 H       1  LIG1        0.0619
     10 H          -0.5332   -0.4855    1.6543 H       1  LIG1        0.0618
     11 O           1.7369    3.1209   -1.4153 O.3     1  LIG1       -0.5062
     12 H           1.0493    3.6142   -1.8816 H       1  LIG1        0.2922
     13 C           4.1563    0.0869   -0.0217 C.ar    1  LIG1       -0.0531
     14 C           5.5464    0.0894   -0.0569 C.ar    1  LIG1       -0.0500
     15 C           3.4412    1.2947    0.0116 C.ar    1  LIG1       -0.0109
     16 C           6.3006    1.2732   -0.0621 C.ar    1  LIG1        0.0237
     17 H           6.0767   -0.8577   -0.0676 H       1  LIG1        0.0625
     18 C           4.1783    2.4867    0.0051 C.ar    1  LIG1       -0.0117
     19 C           5.5731    2.4824   -0.0298 C.ar    1  LIG1        0.1251
     20 H           3.6560    3.4383    0.0210 H       1  LIG1        0.0660
     21 H           3.6216   -0.8569   -0.0374 H       1  LIG1        0.0624
     22 O           6.2696    3.6638   -0.0411 O.3     1  LIG1       -0.5061
     23 H           5.6349    4.3905   -0.0950 H       1  LIG1        0.2922
     24 C           8.4151    0.2552   -0.9345 C.ar    1  LIG1       -0.0537
     25 C           9.8063    0.1602   -0.9648 C.ar    1  LIG1       -0.0577
     26 C           7.7846    1.2132   -0.1226 C.ar    1  LIG1       -0.0110
     27 C          10.5988    1.0082   -0.1965 C.ar    1  LIG1       -0.0201
     28 H          10.2801   -0.5804   -1.6029 H       1  LIG1        0.0619
     29 C           8.5871    2.0701    0.6475 C.ar    1  LIG1       -0.0124
     30 C           9.9786    1.9680    0.6096 C.ar    1  LIG1        0.1174
     31 H           8.1201    2.8207    1.2772 H       1  LIG1        0.0660
     32 H          11.6818    0.9491   -0.2114 H       1  LIG1        0.0654
     33 H           7.8146   -0.3962   -1.5606 H       1  LIG1        0.0624
     34 O          10.7891    2.7840    1.3522 O.3     1  LIG1       -0.5067
     35 H          10.2371    3.4069    1.8428 H       1  LIG1        0.2921
@<TRIPOS>BOND
     1    12    11    1
     2    28    25    1
     3    33    24    1
     4    11     7    1
     5     8     6    1
     6    25    24   ar
     7    25    27   ar
     8    24    26   ar
     9     7     6   ar
    10     7     4   ar
    11     6     3   ar
    12    32    27    1
    13    27    30   ar
    14    26    16    1
    15    26    29   ar
    16    23    22    1
    17    17    14    1
    18    16    14   ar
    19    16    19   ar
    20    14    13   ar
    21    22    19    1
    22    21    13    1
    23    19    18   ar
    24    13    15   ar
    25    18    15   ar
    26    18    20    1
    27    15     4    1
    28     4     2   ar
    29     3     9    1
    30     3     1   ar
    31    30    29   ar
    32    30    34    1
    33    29    31    1
    34     2     1   ar
    35     2     5    1
    36     1    10    1
    37    34    35    1
