@<TRIPOS>MOLECULE
mol_data/opt/b3lyp/geoms/mol2/4af4af-4af.out
 35 37 0 0 0
SMALL
GASTEIGER

@<TRIPOS>ATOM
      1 C          -0.1494    0.0429    0.3011 C.ar    1  LIG1       -0.0610
      2 C           1.2437    0.0773    0.2952 C.ar    1  LIG1       -0.0505
      3 C          -0.8633    1.2166    0.0653 C.ar    1  LIG1       -0.0583
      4 C           1.9656    1.2583    0.0592 C.ar    1  LIG1        0.0237
      5 H           1.8022   -0.8312    0.4983 H       1  LIG1        0.0625
      6 C          -0.1779    2.4062   -0.1713 C.ar    1  LIG1       -0.0196
      7 C           1.2201    2.4347   -0.1750 C.ar    1  LIG1        0.1245
      8 H          -0.7281    3.3260   -0.3613 H       1  LIG1        0.0654
      9 H          -1.9492    1.2135    0.0673 H       1  LIG1        0.0619
     10 H          -0.6695   -0.8896    0.4955 H       1  LIG1        0.0618
     11 O           1.8998    3.5974   -0.4236 O.3     1  LIG1       -0.5062
     12 H           1.2586    4.2967   -0.6064 H       1  LIG1        0.2922
     13 C           4.2249    2.2340    0.6616 C.ar    1  LIG1       -0.0531
     14 C           5.6105    2.1377    0.6741 C.ar    1  LIG1       -0.0500
     15 C           3.4526    1.2310    0.0491 C.ar    1  LIG1       -0.0109
     16 C           6.2909    1.0560    0.0921 C.ar    1  LIG1        0.0237
     17 H           6.1942    2.9047    1.1753 H       1  LIG1        0.0625
     18 C           4.1186    0.1552   -0.5516 C.ar    1  LIG1       -0.0117
     19 C           5.5115    0.0614   -0.5356 C.ar    1  LIG1        0.1251
     20 H           3.5661   -0.6186   -1.0736 H       1  LIG1        0.0660
     21 H           3.7379    3.0774    1.1343 H       1  LIG1        0.0624
     22 O           6.0575   -1.0146   -1.1765 O.3     1  LIG1       -0.5061
     23 H           7.0218   -0.9154   -1.1839 H       1  LIG1        0.2922
     24 C           8.4489   -0.1890    0.5014 C.ar    1  LIG1       -0.0537
     25 C           9.8460   -0.2235    0.5226 C.ar    1  LIG1       -0.0577
     26 C           7.7754    0.9846    0.1148 C.ar    1  LIG1       -0.0110
     27 C          10.5962    0.8919    0.1672 C.ar    1  LIG1       -0.0201
     28 H          10.3547   -1.1316    0.8329 H       1  LIG1        0.0619
     29 C           8.5378    2.1079   -0.2453 C.ar    1  LIG1       -0.0124
     30 C           9.9332    2.0650   -0.2140 C.ar    1  LIG1        0.1174
     31 H           8.0304    3.0140   -0.5686 H       1  LIG1        0.0660
     32 H          11.6806    0.8790    0.1791 H       1  LIG1        0.0654
     33 H           7.8814   -1.0528    0.8336 H       1  LIG1        0.0624
     34 O          10.7066    3.1364   -0.5577 O.3     1  LIG1       -0.5067
     35 H          10.1337    3.8761   -0.7999 H       1  LIG1        0.2921
@<TRIPOS>BOND
     1    23    22    1
     2    22    19    1
     3    20    18    1
     4    35    34    1
     5    12    11    1
     6    31    29    1
     7    34    30    1
     8    18    19   ar
     9    18    15   ar
    10    19    16   ar
    11    11     7    1
    12     8     6    1
    13    29    30   ar
    14    29    26   ar
    15    30    27   ar
    16     7     6   ar
    17     7     4   ar
    18     6     3   ar
    19    15     4    1
    20    15    13   ar
    21     4     2   ar
    22     3     9    1
    23     3     1   ar
    24    16    26    1
    25    16    14   ar
    26    26    24   ar
    27    27    32    1
    28    27    25   ar
    29     2     1   ar
    30     2     5    1
    31     1    10    1
    32    24    25   ar
    33    24    33    1
    34    25    28    1
    35    13    14   ar
    36    13    21    1
    37    14    17    1
