@<TRIPOS>MOLECULE
mol_data/opt/b3lyp/geoms/mol2/4af4af-4af4af-.out
 46 49 0 0 0
SMALL
GASTEIGER

@<TRIPOS>ATOM
      1 C          -0.2464    0.0570    0.5171 C.ar    1  LIG1       -0.0610
      2 C           1.1458    0.1039    0.4779 C.ar    1  LIG1       -0.0505
      3 C          -0.9788    1.1907    0.1692 C.ar    1  LIG1       -0.0583
      4 C           1.8487    1.2588    0.0985 C.ar    1  LIG1        0.0237
      5 H           1.7190   -0.7712    0.7679 H       1  LIG1        0.0625
      6 C          -0.3125    2.3536   -0.2112 C.ar    1  LIG1       -0.0196
      7 C           1.0846    2.3948   -0.2481 C.ar    1  LIG1        0.1245
      8 H          -0.8775    3.2414   -0.4897 H       1  LIG1        0.0654
      9 H          -2.0643    1.1774    0.1947 H       1  LIG1        0.0619
     10 H          -0.7513   -0.8534    0.8237 H       1  LIG1        0.0618
     11 O           1.7453    3.5293   -0.6381 O.3     1  LIG1       -0.5062
     12 H           1.0922    4.1976   -0.8840 H       1  LIG1        0.2922
     13 C           4.1072    2.3167    0.5442 C.ar    1  LIG1       -0.0531
     14 C           5.4936    2.2358    0.5393 C.ar    1  LIG1       -0.0500
     15 C           3.3351    1.2453    0.0605 C.ar    1  LIG1       -0.0109
     16 C           6.1764    1.1039    0.0642 C.ar    1  LIG1        0.0237
     17 H           6.0772    3.0580    0.9438 H       1  LIG1        0.0625
     18 C           4.0025    0.1174   -0.4337 C.ar    1  LIG1       -0.0117
     19 C           5.3963    0.0398   -0.4368 C.ar    1  LIG1        0.1251
     20 H           3.4495   -0.7139   -0.8575 H       1  LIG1        0.0660
     21 H           3.6192    3.2017    0.9326 H       1  LIG1        0.0624
     22 O           5.9419   -1.0935   -0.9701 O.3     1  LIG1       -0.5061
     23 H           6.9038   -0.9835   -1.0182 H       1  LIG1        0.2922
     24 C           8.3641   -0.0718    0.5387 C.ar    1  LIG1       -0.0531
     25 C           9.7576   -0.0791    0.5380 C.ar    1  LIG1       -0.0500
     26 C           7.6599    1.0500    0.0655 C.ar    1  LIG1       -0.0109
     27 C          10.5198    1.0043    0.0789 C.ar    1  LIG1        0.0237
     28 H          10.2813   -0.9420    0.9374 H       1  LIG1        0.0625
     29 C           8.4090    2.1411   -0.3985 C.ar    1  LIG1       -0.0117
     30 C           9.8047    2.1298   -0.3896 C.ar    1  LIG1        0.1251
     31 H           7.8886    3.0091   -0.7979 H       1  LIG1        0.0660
     32 H           7.8246   -0.9129    0.9633 H       1  LIG1        0.0624
     33 O          10.5158    3.1965   -0.8639 O.3     1  LIG1       -0.5061
     34 H           9.8963    3.8643   -1.1869 H       1  LIG1        0.2922
     35 C          12.7989    2.0160    0.5077 C.ar    1  LIG1       -0.0537
     36 C          14.1842    1.8898    0.5502 C.ar    1  LIG1       -0.0577
     37 C          12.0051    0.9331    0.0875 C.ar    1  LIG1       -0.0110
     38 C          14.8097    0.6996    0.1764 C.ar    1  LIG1       -0.0201
     39 H          14.7905    2.7276    0.8823 H       1  LIG1        0.0619
     40 C          12.6356   -0.2600   -0.2914 C.ar    1  LIG1       -0.0124
     41 C          14.0269   -0.3774   -0.2473 C.ar    1  LIG1        0.1174
     42 H          12.0582   -1.1066   -0.6469 H       1  LIG1        0.0660
     43 H          15.8935    0.6103    0.2090 H       1  LIG1        0.0654
     44 H          12.3289    2.9458    0.8016 H       1  LIG1        0.0624
     45 O          14.5642   -1.5738   -0.6388 O.3     1  LIG1       -0.5067
     46 H          15.5267   -1.5212   -0.5750 H       1  LIG1        0.2921
@<TRIPOS>BOND
     1    34    33    1
     2    23    22    1
     3    22    19    1
     4    12    11    1
     5    33    30    1
     6    20    18    1
     7    31    29    1
     8    42    40    1
     9    45    46    1
    10    45    41    1
    11    11     7    1
    12     8     6    1
    13    19    18   ar
    14    19    16   ar
    15    18    15   ar
    16    29    30   ar
    17    29    26   ar
    18    30    27   ar
    19    40    41   ar
    20    40    37   ar
    21     7     6   ar
    22     7     4   ar
    23    41    38   ar
    24     6     3   ar
    25    15     4    1
    26    15    13   ar
    27    16    26    1
    28    16    14   ar
    29    26    24   ar
    30    27    37    1
    31    27    25   ar
    32    37    35   ar
    33     4     2   ar
    34     3     9    1
    35     3     1   ar
    36    38    43    1
    37    38    36   ar
    38     2     1   ar
    39     2     5    1
    40    35    36   ar
    41    35    44    1
    42     1    10    1
    43    25    24   ar
    44    25    28    1
    45    24    32    1
    46    14    13   ar
    47    14    17    1
    48    13    21    1
    49    36    39    1
