@<TRIPOS>MOLECULE
mol_data/opt/b3lyp/geoms/mol2/4af4af-.out
 24 25 0 0 0
SMALL
GASTEIGER

@<TRIPOS>ATOM
      1 C          -0.0359    0.1222    0.4803 C.ar    1  LIG1       -0.0610
      2 C           1.3578    0.1403    0.4759 C.ar    1  LIG1       -0.0505
      3 C          -0.7354    1.2563    0.0716 C.ar    1  LIG1       -0.0583
      4 C           2.0935    1.2660    0.0726 C.ar    1  LIG1        0.0237
      5 H           1.9058   -0.7347    0.8118 H       1  LIG1        0.0625
      6 C          -0.0358    2.3910   -0.3336 C.ar    1  LIG1       -0.0196
      7 C           1.3625    2.4034   -0.3348 C.ar    1  LIG1        0.1245
      8 H          -0.5750    3.2787   -0.6593 H       1  LIG1        0.0654
      9 H          -1.8212    1.2655    0.0686 H       1  LIG1        0.0619
     10 H          -0.5674   -0.7662    0.8070 H       1  LIG1        0.0618
     11 O           2.0570    3.5093   -0.7468 O.3     1  LIG1       -0.5062
     12 H           1.4254    4.1814   -1.0344 H       1  LIG1        0.2922
     13 C           4.3571    2.2891    0.5614 C.ar    1  LIG1       -0.0537
     14 C           5.7447    2.1866    0.5922 C.ar    1  LIG1       -0.0577
     15 C           3.5815    1.2217    0.0738 C.ar    1  LIG1       -0.0110
     16 C           6.3909    1.0350    0.1407 C.ar    1  LIG1       -0.0201
     17 H           6.3367    3.0123    0.9767 H       1  LIG1        0.0619
     18 C           4.2327    0.0676   -0.3832 C.ar    1  LIG1       -0.0124
     19 C           5.6261   -0.0263   -0.3501 C.ar    1  LIG1        0.1174
     20 H           3.6689   -0.7646   -0.7906 H       1  LIG1        0.0660
     21 H           7.4763    0.9636    0.1647 H       1  LIG1        0.0654
     22 H           3.8706    3.1894    0.9151 H       1  LIG1        0.0624
     23 O           6.1846   -1.1848   -0.8201 O.3     1  LIG1       -0.5067
     24 H           7.1460   -1.1186   -0.7514 H       1  LIG1        0.2921
@<TRIPOS>BOND
     1    12    11    1
     2    23    24    1
     3    23    19    1
     4    20    18    1
     5    11     7    1
     6     8     6    1
     7    18    19   ar
     8    18    15   ar
     9    19    16   ar
    10     7     6   ar
    11     7     4   ar
    12     6     3   ar
    13     9     3    1
    14     3     1   ar
    15     4    15    1
    16     4     2   ar
    17    15    13   ar
    18    16    21    1
    19    16    14   ar
    20     2     1   ar
    21     2     5    1
    22     1    10    1
    23    13    14   ar
    24    13    22    1
    25    14    17    1
