@<TRIPOS>MOLECULE
mol_data/opt/b3lyp/geoms/mol2/4af4af.out
 24 25 0 0 0
SMALL
GASTEIGER

@<TRIPOS>ATOM
      1 C          -0.0131    0.0930    0.5335 C.ar    1  LIG1       -0.0610
      2 C           1.3786    0.1306    0.4697 C.ar    1  LIG1       -0.0505
      3 C          -0.7461    1.2124    0.1434 C.ar    1  LIG1       -0.0583
      4 C           2.0811    1.2616    0.0235 C.ar    1  LIG1        0.0237
      5 H           1.9523   -0.7327    0.7923 H       1  LIG1        0.0625
      6 C          -0.0804    2.3528   -0.3006 C.ar    1  LIG1       -0.0196
      7 C           1.3161    2.3847   -0.3611 C.ar    1  LIG1        0.1245
      8 H          -0.6454    3.2303   -0.6098 H       1  LIG1        0.0654
      9 H          -1.8311    1.2059    0.1862 H       1  LIG1        0.0619
     10 H          -0.5171   -0.7992    0.8913 H       1  LIG1        0.0618
     11 O           1.9748    3.5005   -0.8078 O.3     1  LIG1       -0.5062
     12 H           1.3196    4.1529   -1.0885 H       1  LIG1        0.2922
     13 C           4.2228    0.0768   -0.5034 C.ar    1  LIG1       -0.0537
     14 C           5.6164    0.0207   -0.5322 C.ar    1  LIG1       -0.0577
     15 C           3.5672    1.2316   -0.0455 C.ar    1  LIG1       -0.0110
     16 C           6.3852    1.1016   -0.1110 C.ar    1  LIG1       -0.0201
     17 H           6.1102   -0.8760   -0.8957 H       1  LIG1        0.0619
     18 C           4.3451    2.3217    0.3750 C.ar    1  LIG1       -0.0124
     19 C           5.7391    2.2564    0.3416 C.ar    1  LIG1        0.1174
     20 H           3.8578    3.2254    0.7273 H       1  LIG1        0.0660
     21 H           7.4694    1.0747   -0.1300 H       1  LIG1        0.0654
     22 H           3.6395   -0.7657   -0.8596 H       1  LIG1        0.0624
     23 O           6.5270    3.2988    0.7491 O.3     1  LIG1       -0.5067
     24 H           5.9582    4.0314    1.0200 H       1  LIG1        0.2921
@<TRIPOS>BOND
     1    12    11    1
     2    17    14    1
     3    22    13    1
     4    11     7    1
     5     8     6    1
     6    14    13   ar
     7    14    16   ar
     8    13    15   ar
     9     7     6   ar
    10     7     4   ar
    11     6     3   ar
    12    21    16    1
    13    16    19   ar
    14    15     4    1
    15    15    18   ar
    16     4     2   ar
    17     3     9    1
    18     3     1   ar
    19    19    18   ar
    20    19    23    1
    21    18    20    1
    22     2     1   ar
    23     2     5    1
    24     1    10    1
    25    23    24    1
