@<TRIPOS>MOLECULE
mol_data/opt/b3lyp/geoms/mol2/4af4af4af-4af-.out
 46 49 0 0 0
SMALL
GASTEIGER

@<TRIPOS>ATOM
      1 C          -0.1991    0.2241    0.9417 C.ar    1  LIG1       -0.0610
      2 C           1.1903    0.3063    0.8754 C.ar    1  LIG1       -0.0505
      3 C          -0.9734    1.1414    0.2334 C.ar    1  LIG1       -0.0583
      4 C           1.8515    1.2853    0.1153 C.ar    1  LIG1        0.0237
      5 H           1.7943   -0.3944    1.4433 H       1  LIG1        0.0625
      6 C          -0.3500    2.1282   -0.5271 C.ar    1  LIG1       -0.0196
      7 C           1.0445    2.2064   -0.5888 C.ar    1  LIG1        0.1245
      8 H          -0.9470    2.8469   -1.0856 H       1  LIG1        0.0654
      9 H          -2.0576    1.0971    0.2718 H       1  LIG1        0.0619
     10 H          -0.6698   -0.5440    1.5468 H       1  LIG1        0.0618
     11 O           1.6609    3.1690   -1.3451 O.3     1  LIG1       -0.5062
     12 H           0.9829    3.6732   -1.8140 H       1  LIG1        0.2922
     13 C           4.0570    0.1003    0.0054 C.ar    1  LIG1       -0.0531
     14 C           5.4474    0.1086    0.0035 C.ar    1  LIG1       -0.0500
     15 C           3.3368    1.3040    0.0646 C.ar    1  LIG1       -0.0109
     16 C           6.1961    1.2945    0.0599 C.ar    1  LIG1        0.0237
     17 H           5.9821   -0.8356   -0.0294 H       1  LIG1        0.0625
     18 C           4.0684    2.4982    0.1174 C.ar    1  LIG1       -0.0117
     19 C           5.4638    2.5003    0.1160 C.ar    1  LIG1        0.1251
     20 H           3.5417    3.4469    0.1524 H       1  LIG1        0.0660
     21 H           3.5263   -0.8440   -0.0565 H       1  LIG1        0.0624
     22 O           6.1565    3.6818    0.1566 O.3     1  LIG1       -0.5061
     23 H           5.5206    4.4089    0.1309 H       1  LIG1        0.2922
     24 C           8.4714    2.0741    0.8543 C.ar    1  LIG1       -0.0531
     25 C           9.8547    1.9519    0.8418 C.ar    1  LIG1       -0.0500
     26 C           7.6805    1.2441    0.0390 C.ar    1  LIG1       -0.0109
     27 C          10.5169    1.0120    0.0353 C.ar    1  LIG1        0.0237
     28 H          10.4515    2.5808    1.4964 H       1  LIG1        0.0625
     29 C           8.3290    0.3163   -0.7865 C.ar    1  LIG1       -0.0117
     30 C           9.7196    0.1961   -0.7953 C.ar    1  LIG1        0.1251
     31 H           7.7648   -0.3131   -1.4661 H       1  LIG1        0.0660
     32 H           7.9996    2.8028    1.5010 H       1  LIG1        0.0624
     33 O          10.2444   -0.7217   -1.6616 O.3     1  LIG1       -0.5061
     34 H          11.2099   -0.6405   -1.6556 H       1  LIG1        0.2922
     35 C          12.7906    2.0748   -0.0395 C.ar    1  LIG1       -0.0537
     36 C          14.1793    1.9820   -0.0172 C.ar    1  LIG1       -0.0577
     37 C          11.9997    0.9137    0.0436 C.ar    1  LIG1       -0.0110
     38 C          14.8140    0.7428    0.0772 C.ar    1  LIG1       -0.0201
     39 H          14.7813    2.8836   -0.0853 H       1  LIG1        0.0619
     40 C          12.6409   -0.3326    0.1445 C.ar    1  LIG1       -0.0124
     41 C          14.0377   -0.4164    0.1601 C.ar    1  LIG1        0.1174
     42 H          12.0703   -1.2480    0.2652 H       1  LIG1        0.0660
     43 H          15.8997    0.6770    0.0888 H       1  LIG1        0.0654
     44 H          12.3086    3.0415   -0.1390 H       1  LIG1        0.0624
     45 O          14.5826   -1.6644    0.2687 O.3     1  LIG1       -0.5067
     46 H          15.5456   -1.5891    0.2892 H       1  LIG1        0.2921
@<TRIPOS>BOND
     1    12    11    1
     2    33    34    1
     3    33    30    1
     4    31    29    1
     5    11     7    1
     6     8     6    1
     7    30    29   ar
     8    30    27   ar
     9    29    26   ar
    10     7     6   ar
    11     7     4   ar
    12     6     3   ar
    13    44    35    1
    14    39    36    1
    15    21    13    1
    16    35    36   ar
    17    35    37   ar
    18    17    14    1
    19    36    38   ar
    20    14    13   ar
    21    14    16   ar
    22    13    15   ar
    23    27    37    1
    24    27    25   ar
    25    26    16    1
    26    26    24   ar
    27    37    40   ar
    28    16    19   ar
    29    15     4    1
    30    15    18   ar
    31    38    43    1
    32    38    41   ar
    33     4     2   ar
    34    19    18   ar
    35    19    22    1
    36    18    20    1
    37    23    22    1
    38    40    41   ar
    39    40    42    1
    40    41    45    1
    41     3     9    1
    42     3     1   ar
    43    45    46    1
    44    25    24   ar
    45    25    28    1
    46    24    32    1
    47     2     1   ar
    48     2     5    1
    49     1    10    1
