@<TRIPOS>MOLECULE
mol_data/opt/b3lyp/geoms/mol2/4af4af-4af-4af.out
 46 49 0 0 0
SMALL
GASTEIGER

@<TRIPOS>ATOM
      1 C          -0.2707    0.0272   -0.0468 C.ar    1  LIG1       -0.0610
      2 C           1.1226    0.0582   -0.0340 C.ar    1  LIG1       -0.0505
      3 C          -0.9820    1.2230    0.0353 C.ar    1  LIG1       -0.0583
      4 C           1.8470    1.2574    0.0598 C.ar    1  LIG1        0.0237
      5 H           1.6789   -0.8730   -0.0776 H       1  LIG1        0.0625
      6 C          -0.2939    2.4308    0.1303 C.ar    1  LIG1       -0.0196
      7 C           1.1040    2.4555    0.1439 C.ar    1  LIG1        0.1245
      8 H          -0.8422    3.3694    0.1893 H       1  LIG1        0.0654
      9 H          -2.0679    1.2224    0.0291 H       1  LIG1        0.0619
     10 H          -0.7929   -0.9219   -0.1126 H       1  LIG1        0.0618
     11 O           1.7864    3.6404    0.2199 O.3     1  LIG1       -0.5062
     12 H           1.1471    4.3648    0.2281 H       1  LIG1        0.2922
     13 C           4.1020    2.0280    0.9194 C.ar    1  LIG1       -0.0531
     14 C           5.4873    1.9298    0.9141 C.ar    1  LIG1       -0.0500
     15 C           3.3337    1.2304    0.0527 C.ar    1  LIG1       -0.0109
     16 C           6.1725    1.0458    0.0644 C.ar    1  LIG1        0.0237
     17 H           6.0674    2.5321    1.6074 H       1  LIG1        0.0625
     18 C           4.0040    0.3580   -0.8138 C.ar    1  LIG1       -0.0117
     19 C           5.3968    0.2617   -0.8158 C.ar    1  LIG1        0.1251
     20 H           3.4557   -0.2442   -1.5303 H       1  LIG1        0.0660
     21 H           3.6119    2.7130    1.5996 H       1  LIG1        0.0624
     22 O           5.9444   -0.5992   -1.7249 O.3     1  LIG1       -0.5061
     23 H           6.9082   -0.5007   -1.7084 H       1  LIG1        0.2922
     24 C           8.4259    2.1540    0.0736 C.ar    1  LIG1       -0.0531
     25 C           9.8134    2.0863    0.1062 C.ar    1  LIG1       -0.0500
     26 C           7.6563    0.9767    0.0800 C.ar    1  LIG1       -0.0109
     27 C          10.5001    0.8627    0.1438 C.ar    1  LIG1        0.0237
     28 H          10.3942    3.0042    0.1171 H       1  LIG1        0.0625
     29 C           8.3293   -0.2550    0.1092 C.ar    1  LIG1       -0.0117
     30 C           9.7265   -0.3177    0.1382 C.ar    1  LIG1        0.1251
     31 H           7.7824   -1.1916    0.1558 H       1  LIG1        0.0660
     32 H           7.9293    3.1176    0.0331 H       1  LIG1        0.0624
     33 O          10.2775   -1.5644    0.1506 O.3     1  LIG1       -0.5061
     34 H          11.2426   -1.4814    0.1034 H       1  LIG1        0.2922
     35 C          12.6793    0.0309    1.1060 C.ar    1  LIG1       -0.0537
     36 C          14.0772    0.0137    1.1119 C.ar    1  LIG1       -0.0577
     37 C          11.9861    0.8183    0.1686 C.ar    1  LIG1       -0.0110
     38 C          14.8065    0.7694    0.2013 C.ar    1  LIG1       -0.0201
     39 H          14.6025   -0.5890    1.8469 H       1  LIG1        0.0619
     40 C          12.7269    1.5787   -0.7507 C.ar    1  LIG1       -0.0124
     41 C          14.1233    1.5597   -0.7316 C.ar    1  LIG1        0.1174
     42 H          12.2034    2.1737   -1.4956 H       1  LIG1        0.0660
     43 H          15.8910    0.7656    0.1946 H       1  LIG1        0.0654
     44 H          12.1282   -0.5219    1.8608 H       1  LIG1        0.0624
     45 O          14.8780    2.2831   -1.6083 O.3     1  LIG1       -0.5067
     46 H          14.2948    2.7798   -2.1974 H       1  LIG1        0.2921
@<TRIPOS>BOND
     1    46    45    1
     2    22    23    1
     3    22    19    1
     4    45    41    1
     5    20    18    1
     6    42    40    1
     7    19    18   ar
     8    19    16   ar
     9    18    15   ar
    10    40    41   ar
    11    40    37   ar
    12    41    38   ar
    13    10     1    1
    14     5     2    1
    15     1     2   ar
    16     1     3   ar
    17     2     4   ar
    18     9     3    1
    19    32    24    1
    20     3     6   ar
    21    15     4    1
    22    15    13   ar
    23     4     7   ar
    24    16    26    1
    25    16    14   ar
    26    24    26   ar
    27    24    25   ar
    28    26    29   ar
    29    34    33    1
    30    25    28    1
    31    25    27   ar
    32    29    30   ar
    33    29    31    1
    34     6     7   ar
    35     6     8    1
    36    30    27   ar
    37    30    33    1
    38    27    37    1
    39     7    11    1
    40    37    35   ar
    41    43    38    1
    42    38    36   ar
    43    11    12    1
    44    14    13   ar
    45    14    17    1
    46    13    21    1
    47    35    36   ar
    48    35    44    1
    49    36    39    1
