@<TRIPOS>MOLECULE
mol_data/opt/b3lyp/geoms/mol2/4af4af-4af4af.out
 46 49 0 0 0
SMALL
GASTEIGER

@<TRIPOS>ATOM
      1 C          -0.2502    0.0406    0.5504 C.ar    1  LIG1       -0.0610
      2 C           1.1416    0.0917    0.5017 C.ar    1  LIG1       -0.0505
      3 C          -0.9887    1.1660    0.1890 C.ar    1  LIG1       -0.0583
      4 C           1.8379    1.2430    0.1000 C.ar    1  LIG1        0.0237
      5 H           1.7195   -0.7768    0.8021 H       1  LIG1        0.0625
      6 C          -0.3289    2.3252   -0.2137 C.ar    1  LIG1       -0.0196
      7 C           1.0678    2.3709   -0.2594 C.ar    1  LIG1        0.1245
      8 H          -0.8988    3.2065   -0.5027 H       1  LIG1        0.0654
      9 H          -2.0740    1.1494    0.2211 H       1  LIG1        0.0619
     10 H          -0.7501   -0.8666    0.8743 H       1  LIG1        0.0618
     11 O           1.7221    3.5015   -0.6705 O.3     1  LIG1       -0.5062
     12 H           1.0653    4.1644   -0.9209 H       1  LIG1        0.2922
     13 C           4.0949    2.3147    0.5182 C.ar    1  LIG1       -0.0531
     14 C           5.4816    2.2394    0.5048 C.ar    1  LIG1       -0.0500
     15 C           3.3241    1.2343    0.0528 C.ar    1  LIG1       -0.0109
     16 C           6.1657    1.1046    0.0390 C.ar    1  LIG1        0.0237
     17 H           6.0643    3.0689    0.8957 H       1  LIG1        0.0625
     18 C           3.9927    0.1030   -0.4317 C.ar    1  LIG1       -0.0117
     19 C           5.3868    0.0311   -0.4433 C.ar    1  LIG1        0.1251
     20 H           3.4405   -0.7356   -0.8418 H       1  LIG1        0.0660
     21 H           3.6057    3.2023    0.8988 H       1  LIG1        0.0624
     22 O           5.9336   -1.1065   -0.9662 O.3     1  LIG1       -0.5061
     23 H           6.8942   -0.9919   -1.0244 H       1  LIG1        0.2922
     24 C           8.3619   -0.0564    0.5127 C.ar    1  LIG1       -0.0531
     25 C           9.7551   -0.0592    0.5003 C.ar    1  LIG1       -0.0500
     26 C           7.6496    1.0563    0.0302 C.ar    1  LIG1       -0.0109
     27 C          10.5110    1.0196    0.0191 C.ar    1  LIG1        0.0237
     28 H          10.2847   -0.9149    0.9072 H       1  LIG1        0.0625
     29 C           8.3914    2.1441   -0.4526 C.ar    1  LIG1       -0.0117
     30 C           9.7870    2.1373   -0.4550 C.ar    1  LIG1        0.1251
     31 H           7.8650    3.0063   -0.8568 H       1  LIG1        0.0660
     32 H           7.8290   -0.8938    0.9526 H       1  LIG1        0.0624
     33 O          10.4889    3.2050   -0.9443 O.3     1  LIG1       -0.5061
     34 H           9.8626    3.8578   -1.2845 H       1  LIG1        0.2922
     35 C          12.6312   -0.2585   -0.3404 C.ar    1  LIG1       -0.0537
     36 C          14.0224   -0.3564   -0.3105 C.ar    1  LIG1       -0.0577
     37 C          11.9957    0.9445    0.0094 C.ar    1  LIG1       -0.0110
     38 C          14.8080    0.7296    0.0638 C.ar    1  LIG1       -0.0201
     39 H          14.5010   -1.2903   -0.5905 H       1  LIG1        0.0619
     40 C          12.7908    2.0397    0.3823 C.ar    1  LIG1       -0.0124
     41 C          14.1823    1.9320    0.4086 C.ar    1  LIG1        0.1174
     42 H          12.3195    2.9796    0.6520 H       1  LIG1        0.0660
     43 H          15.8908    0.6704    0.0893 H       1  LIG1        0.0654
     44 H          12.0360   -1.1075   -0.6597 H       1  LIG1        0.0624
     45 O          14.9871    2.9767    0.7727 O.3     1  LIG1       -0.5067
     46 H          14.4335    3.7443    0.9676 H       1  LIG1        0.2921
@<TRIPOS>BOND
     1    34    33    1
     2    23    22    1
     3    22    19    1
     4    33    30    1
     5    12    11    1
     6    31    29    1
     7    20    18    1
     8    11     7    1
     9    44    35    1
    10    39    36    1
    11     8     6    1
    12    30    29   ar
    13    30    27   ar
    14    29    26   ar
    15    19    18   ar
    16    19    16   ar
    17    18    15   ar
    18    35    36   ar
    19    35    37   ar
    20    36    38   ar
    21     7     6   ar
    22     7     4   ar
    23     6     3   ar
    24    37    27    1
    25    37    40   ar
    26    27    25   ar
    27    26    16    1
    28    26    24   ar
    29    16    14   ar
    30    15     4    1
    31    15    13   ar
    32    38    43    1
    33    38    41   ar
    34     4     2   ar
    35     3     9    1
    36     3     1   ar
    37    40    41   ar
    38    40    42    1
    39    41    45    1
    40    25    24   ar
    41    25    28    1
    42     2     1   ar
    43     2     5    1
    44    14    13   ar
    45    14    17    1
    46    24    32    1
    47    13    21    1
    48     1    10    1
    49    45    46    1
