@<TRIPOS>MOLECULE
mol_data/opt/b3lyp/geoms/mol2/4af4af4af-4af.out
 46 49 0 0 0
SMALL
GASTEIGER

@<TRIPOS>ATOM
      1 C          -0.2113    0.0241   -0.5233 C.ar    1  LIG1       -0.0610
      2 C           1.1782    0.1204   -0.4873 C.ar    1  LIG1       -0.0505
      3 C          -0.9833    1.0964   -0.0795 C.ar    1  LIG1       -0.0583
      4 C           1.8418    1.2655   -0.0164 C.ar    1  LIG1        0.0237
      5 H           1.7803   -0.7056   -0.8525 H       1  LIG1        0.0625
      6 C          -0.3575    2.2491    0.3900 C.ar    1  LIG1       -0.0196
      7 C           1.0372    2.3403    0.4228 C.ar    1  LIG1        0.1245
      8 H          -0.9527    3.0902    0.7409 H       1  LIG1        0.0654
      9 H          -2.0676    1.0439   -0.1001 H       1  LIG1        0.0619
     10 H          -0.6841   -0.8766   -0.9015 H       1  LIG1        0.0618
     11 O           1.6557    3.4684    0.8954 O.3     1  LIG1       -0.5062
     12 H           0.9790    4.0785    1.2171 H       1  LIG1        0.2922
     13 C           4.0497    0.1514    0.3916 C.ar    1  LIG1       -0.0531
     14 C           5.4400    0.1612    0.3874 C.ar    1  LIG1       -0.0500
     15 C           3.3272    1.2965    0.0197 C.ar    1  LIG1       -0.0109
     16 C           6.1865    1.2922    0.0211 C.ar    1  LIG1        0.0237
     17 H           5.9762   -0.7269    0.7071 H       1  LIG1        0.0625
     18 C           4.0569    2.4364   -0.3443 C.ar    1  LIG1       -0.0117
     19 C           5.4522    2.4412   -0.3438 C.ar    1  LIG1        0.1251
     20 H           3.5289    3.3383   -0.6381 H       1  LIG1        0.0660
     21 H           3.5210   -0.7383    0.7173 H       1  LIG1        0.0624
     22 O           6.1430    3.5614   -0.7255 O.3     1  LIG1       -0.5061
     23 H           5.5049    4.2463   -0.9649 H       1  LIG1        0.2922
     24 C           8.4577    2.3063    0.5001 C.ar    1  LIG1       -0.0531
     25 C           9.8414    2.1919    0.5317 C.ar    1  LIG1       -0.0500
     26 C           7.6710    1.2421    0.0230 C.ar    1  LIG1       -0.0109
     27 C          10.5075    1.0328    0.1017 C.ar    1  LIG1        0.0237
     28 H          10.4352    3.0101    0.9296 H       1  LIG1        0.0625
     29 C           8.3234    0.0863   -0.4262 C.ar    1  LIG1       -0.0117
     30 C           9.7143   -0.0249   -0.3916 C.ar    1  LIG1        0.1251
     31 H           7.7611   -0.7418   -0.8440 H       1  LIG1        0.0660
     32 H           7.9821    3.2119    0.8540 H       1  LIG1        0.0624
     33 O          10.2456   -1.1846   -0.8820 O.3     1  LIG1       -0.5061
     34 H          11.2111   -1.1008   -0.9003 H       1  LIG1        0.2922
     35 C          12.6470   -0.1791    0.6755 C.ar    1  LIG1       -0.0537
     36 C          14.0434   -0.2299    0.7062 C.ar    1  LIG1       -0.0577
     37 C          11.9905    0.9444    0.1393 C.ar    1  LIG1       -0.0110
     38 C          14.8099    0.8206    0.2139 C.ar    1  LIG1       -0.0201
     39 H          14.5387   -1.0975    1.1322 H       1  LIG1        0.0619
     40 C          12.7697    2.0019   -0.3584 C.ar    1  LIG1       -0.0124
     41 C          14.1642    1.9442   -0.3166 C.ar    1  LIG1        0.1174
     42 H          12.2757    2.8663   -0.7964 H       1  LIG1        0.0660
     43 H          15.8940    0.7944    0.2313 H       1  LIG1        0.0654
     44 H          12.0668   -0.9854    1.1135 H       1  LIG1        0.0624
     45 O          14.9533    2.9520   -0.7920 O.3     1  LIG1       -0.5067
     46 H          14.3914    3.6614   -1.1311 H       1  LIG1        0.2921
@<TRIPOS>BOND
     1    46    45    1
     2    23    22    1
     3    10     1    1
     4    34    33    1
     5    33    30    1
     6     5     2    1
     7    31    29    1
     8    42    40    1
     9    45    41    1
    10    22    19    1
    11    20    18    1
    12     1     2   ar
    13     1     3   ar
    14     2     4   ar
    15    29    30   ar
    16    29    26   ar
    17    30    27   ar
    18    40    41   ar
    19    40    37   ar
    20    18    19   ar
    21    18    15   ar
    22    19    16   ar
    23    41    38   ar
    24     9     3    1
    25     3     6   ar
    26     4    15    1
    27     4     7   ar
    28    15    13   ar
    29    16    26    1
    30    16    14   ar
    31    26    24   ar
    32    27    37    1
    33    27    25   ar
    34    37    35   ar
    35    38    43    1
    36    38    36   ar
    37    14    13   ar
    38    14    17    1
    39     6     7   ar
    40     6     8    1
    41    13    21    1
    42     7    11    1
    43    24    25   ar
    44    24    32    1
    45    25    28    1
    46    35    36   ar
    47    35    44    1
    48    36    39    1
    49    11    12    1
