@<TRIPOS>MOLECULE
mol_data/opt/b3lyp/geoms/mol2/4af4af4af4af.out
 46 49 0 0 0
SMALL
GASTEIGER

@<TRIPOS>ATOM
      1 C          -0.2468   -0.2019    0.0047 C.ar    1  LIG1       -0.0610
      2 C           1.1336   -0.0416    0.0055 C.ar    1  LIG1       -0.0505
      3 C          -1.0703    0.9222   -0.0022 C.ar    1  LIG1       -0.0583
      4 C           1.7757    1.2152   -0.0005 C.ar    1  LIG1        0.0237
      5 H           1.7377   -0.9392    0.0115 H       1  LIG1        0.0625
      6 C          -0.4846    2.1816   -0.0082 C.ar    1  LIG1       -0.0196
      7 C           0.9062    2.3370   -0.0074 C.ar    1  LIG1        0.1245
      8 H          -1.1089    3.0737   -0.0137 H       1  LIG1        0.0654
      9 H          -2.1514    0.8250   -0.0029 H       1  LIG1        0.0619
     10 H          -0.6728   -1.1998    0.0096 H       1  LIG1        0.0618
     11 O           1.4229    3.6083   -0.0138 O.3     1  LIG1       -0.5062
     12 H           0.6886    4.2361   -0.0183 H       1  LIG1        0.2922
     13 C           4.0556    0.1200    0.0034 C.ar    1  LIG1       -0.0531
     14 C           5.4386    0.1769    0.0049 C.ar    1  LIG1       -0.0500
     15 C           3.2667    1.2893    0.0008 C.ar    1  LIG1       -0.0109
     16 C           6.1808    1.3763    0.0041 C.ar    1  LIG1        0.0237
     17 H           5.9653   -0.7685    0.0070 H       1  LIG1        0.0625
     18 C           3.9859    2.4938   -0.0001 C.ar    1  LIG1       -0.0117
     19 C           5.3824    2.5441    0.0015 C.ar    1  LIG1        0.1251
     20 H           3.4545    3.4354   -0.0019 H       1  LIG1        0.0660
     21 H           3.6029   -0.8628    0.0037 H       1  LIG1        0.0624
     22 O           5.9789    3.7817    0.0004 O.3     1  LIG1       -0.5061
     23 H           5.2816    4.4505   -0.0018 H       1  LIG1        0.2922
     24 C           8.3742    0.1237    0.0058 C.ar    1  LIG1       -0.0531
     25 C           9.7578    0.0863    0.0075 C.ar    1  LIG1       -0.0500
     26 C           7.6686    1.3449    0.0059 C.ar    1  LIG1       -0.0109
     27 C          10.5829    1.2305    0.0096 C.ar    1  LIG1        0.0237
     28 H          10.2171   -0.8935    0.0077 H       1  LIG1        0.0625
     29 C           8.4692    2.4966    0.0080 C.ar    1  LIG1       -0.0117
     30 C           9.8660    2.4507    0.0098 C.ar    1  LIG1        0.1251
     31 H           8.0010    3.4715    0.0083 H       1  LIG1        0.0660
     32 H           7.8529   -0.8246    0.0041 H       1  LIG1        0.0624
     33 O          10.5425    3.6469    0.0115 O.3     1  LIG1       -0.5061
     34 H           9.8894    4.3589    0.0109 H       1  LIG1        0.2922
     35 C          12.6728   -0.1828    0.0071 C.ar    1  LIG1       -0.0537
     36 C          14.0569   -0.3300    0.0087 C.ar    1  LIG1       -0.0577
     37 C          12.0699    1.0939    0.0112 C.ar    1  LIG1       -0.0110
     38 C          14.9031    0.7753    0.0145 C.ar    1  LIG1       -0.0201
     39 H          14.4833   -1.3291    0.0053 H       1  LIG1        0.0619
     40 C          12.9377    2.2041    0.0170 C.ar    1  LIG1       -0.0124
     41 C          14.3252    2.0449    0.0186 C.ar    1  LIG1        0.1174
     42 H          12.5309    3.2053    0.0205 H       1  LIG1        0.0660
     43 H          15.9829    0.6754    0.0158 H       1  LIG1        0.0654
     44 H          12.0718   -1.0825    0.0020 H       1  LIG1        0.0624
     45 O          15.1701    3.1231    0.0243 O.3     1  LIG1       -0.5067
     46 H          14.6388    3.9302    0.0264 H       1  LIG1        0.2921
@<TRIPOS>BOND
     1    12    11    1
     2    11     7    1
     3     8     6    1
     4     6     7   ar
     5     6     3   ar
     6     7     4   ar
     7     9     3    1
     8     3     1   ar
     9    20    18    1
    10    23    22    1
    11     4    15    1
    12     4     2   ar
    13    18    15   ar
    14    18    19   ar
    15    22    19    1
    16    15    13   ar
    17    19    16   ar
    18    44    35    1
    19    13    21    1
    20    13    14   ar
    21    32    24    1
    22    16    14   ar
    23    16    26    1
    24     1     2   ar
    25     1    10    1
    26    14    17    1
    27    39    36    1
    28     2     5    1
    29    24    26   ar
    30    24    25   ar
    31    26    29   ar
    32    35    36   ar
    33    35    37   ar
    34    25    28    1
    35    25    27   ar
    36    29    31    1
    37    29    30   ar
    38    36    38   ar
    39    27    30   ar
    40    27    37    1
    41    30    33    1
    42    34    33    1
    43    37    40   ar
    44    38    43    1
    45    38    41   ar
    46    40    41   ar
    47    40    42    1
    48    41    45    1
    49    45    46    1
