@<TRIPOS>MOLECULE
mol_data/opt/b3lyp/geoms/mol2/4af4af4af4af-.out
 46 49 0 0 0
SMALL
GASTEIGER

@<TRIPOS>ATOM
      1 C          -0.2284   -0.1876    0.0019 C.ar    1  LIG1       -0.0610
      2 C           1.1522   -0.0279    0.0030 C.ar    1  LIG1       -0.0505
      3 C          -1.0514    0.9368   -0.0026 C.ar    1  LIG1       -0.0583
      4 C           1.7947    1.2286   -0.0003 C.ar    1  LIG1        0.0237
      5 H           1.7563   -0.9254    0.0068 H       1  LIG1        0.0625
      6 C          -0.4652    2.1960   -0.0059 C.ar    1  LIG1       -0.0196
      7 C           0.9256    2.3509   -0.0048 C.ar    1  LIG1        0.1245
      8 H          -1.0890    3.0884   -0.0095 H       1  LIG1        0.0654
      9 H          -2.1325    0.8401   -0.0035 H       1  LIG1        0.0619
     10 H          -0.6548   -1.1855    0.0047 H       1  LIG1        0.0618
     11 O           1.4434    3.6218   -0.0084 O.3     1  LIG1       -0.5062
     12 H           0.7100    4.2507   -0.0113 H       1  LIG1        0.2922
     13 C           4.0741    0.1325    0.0037 C.ar    1  LIG1       -0.0531
     14 C           5.4571    0.1892    0.0052 C.ar    1  LIG1       -0.0500
     15 C           3.2858    1.3021    0.0011 C.ar    1  LIG1       -0.0109
     16 C           6.2000    1.3882    0.0043 C.ar    1  LIG1        0.0237
     17 H           5.9839   -0.7561    0.0072 H       1  LIG1        0.0625
     18 C           4.0055    2.5062    0.0000 C.ar    1  LIG1       -0.0117
     19 C           5.4021    2.5563    0.0016 C.ar    1  LIG1        0.1251
     20 H           3.4738    3.4476   -0.0019 H       1  LIG1        0.0660
     21 H           3.6210   -0.8500    0.0044 H       1  LIG1        0.0624
     22 O           5.9987    3.7934    0.0003 O.3     1  LIG1       -0.5061
     23 H           5.3016    4.4624   -0.0015 H       1  LIG1        0.2922
     24 C           8.3915    0.1325    0.0079 C.ar    1  LIG1       -0.0531
     25 C           9.7752    0.0933    0.0098 C.ar    1  LIG1       -0.0500
     26 C           7.6878    1.3549    0.0061 C.ar    1  LIG1       -0.0109
     27 C          10.6014    1.2366    0.0100 C.ar    1  LIG1        0.0237
     28 H          10.2324   -0.8875    0.0118 H       1  LIG1        0.0625
     29 C           8.4897    2.5055    0.0062 C.ar    1  LIG1       -0.0117
     30 C           9.8871    2.4585    0.0081 C.ar    1  LIG1        0.1251
     31 H           8.0237    3.4816    0.0048 H       1  LIG1        0.0660
     32 H           7.8691   -0.8153    0.0080 H       1  LIG1        0.0624
     33 O          10.5647    3.6515    0.0075 O.3     1  LIG1       -0.5061
     34 H           9.9141    4.3658    0.0060 H       1  LIG1        0.2922
     35 C          12.9660    2.2098    0.0180 C.ar    1  LIG1       -0.0537
     36 C          14.3468    2.0283    0.0202 C.ar    1  LIG1       -0.0577
     37 C          12.0892    1.1019    0.0121 C.ar    1  LIG1       -0.0110
     38 C          14.9143    0.7567    0.0164 C.ar    1  LIG1       -0.0201
     39 H          14.9945    2.9005    0.0249 H       1  LIG1        0.0619
     40 C          12.6784   -0.1776    0.0082 C.ar    1  LIG1       -0.0124
     41 C          14.0612   -0.3490    0.0104 C.ar    1  LIG1        0.1174
     42 H          12.0890   -1.0847    0.0029 H       1  LIG1        0.0660
     43 H          15.9941    0.6241    0.0181 H       1  LIG1        0.0654
     44 H          12.5701    3.2117    0.0213 H       1  LIG1        0.0624
     45 O          14.5248   -1.6395    0.0062 O.3     1  LIG1       -0.5067
     46 H          15.4906   -1.6227    0.0077 H       1  LIG1        0.2921
@<TRIPOS>BOND
     1    12    11    1
     2     8     6    1
     3    11     7    1
     4     6     7   ar
     5     6     3   ar
     6     7     4   ar
     7     9     3    1
     8     3     1   ar
     9    20    18    1
    10    23    22    1
    11     4    15    1
    12     4     2   ar
    13    18    15   ar
    14    18    19   ar
    15    22    19    1
    16    15    13   ar
    17    19    16   ar
    18     1     2   ar
    19     1    10    1
    20    42    40    1
    21     2     5    1
    22    13    21    1
    23    13    14   ar
    24    16    14   ar
    25    16    26    1
    26    31    29    1
    27    14    17    1
    28    34    33    1
    29    26    29   ar
    30    26    24   ar
    31    45    46    1
    32    45    41    1
    33    29    30   ar
    34    33    30    1
    35    24    32    1
    36    24    25   ar
    37    30    27   ar
    38    40    41   ar
    39    40    37   ar
    40    25    27   ar
    41    25    28    1
    42    27    37    1
    43    41    38   ar
    44    37    35   ar
    45    38    43    1
    46    38    36   ar
    47    35    36   ar
    48    35    44    1
    49    36    39    1
