@<TRIPOS>MOLECULE
mol_data/opt/b3lyp/geoms/mol2/4af6el-6he12hi12ae13ea6da-6ld-.out
 96 103 0 0 0
SMALL
GASTEIGER

@<TRIPOS>ATOM
      1 C          -0.3614   -0.5826   -0.4397 C.ar    1  LIG1       -0.0610
      2 C           1.0238   -0.4392   -0.5209 C.ar    1  LIG1       -0.0505
      3 C          -1.0476    0.0109    0.6187 C.ar    1  LIG1       -0.0583
      4 C           1.7465    0.2920    0.4309 C.ar    1  LIG1        0.0263
      5 H           1.5669   -0.8839   -1.3499 H       1  LIG1        0.0625
      6 C          -0.3509    0.7299    1.5887 C.ar    1  LIG1       -0.0196
      7 C           1.0379    0.8682    1.5042 C.ar    1  LIG1        0.1246
      8 H          -0.8823    1.1792    2.4251 H       1  LIG1        0.0654
      9 H          -2.1263   -0.0865    0.6979 H       1  LIG1        0.0619
     10 H          -0.8969   -1.1446   -1.1980 H       1  LIG1        0.0618
     11 O           1.7604    1.5257    2.4556 O.3     1  LIG1       -0.5062
     12 H           1.1567    1.9328    3.0904 H       1  LIG1        0.2922
     13 C           3.8934    1.6351    0.1301 C.ar    1  LIG1        0.1219
     14 C           3.2245    0.4116    0.3175 C.ar    1  LIG1        0.0229
     15 C           4.0228   -0.7372    0.3660 C.ar    1  LIG1       -0.0073
     16 C           5.4065   -0.6602    0.2359 C.ar    1  LIG1        0.1467
     17 C           6.0128    0.6170    0.0236 C.ar    1  LIG1        0.1172
     18 N           5.2302    1.7052   -0.0082 N.ar    1  LIG1       -0.2340
     19 H           3.5394   -1.6915    0.5344 H       1  LIG1        0.0662
     20 C           3.1874    2.8802    0.0373 C.1     1  LIG1       -0.0492
     21 C           2.6078    3.9370   -0.0618 C.1     1  LIG1       -0.1124
     22 H           2.0970    4.8681   -0.1431 H       1  LIG1        0.1232
     23 O           6.2197   -1.7474    0.3276 O.3     1  LIG1       -0.4929
     24 C           5.6496   -3.0082    0.6555 C.3     1  LIG1        0.0789
     25 H           6.4882   -3.7014    0.7273 H       1  LIG1        0.0660
     26 H           5.1232   -2.9718    1.6168 H       1  LIG1        0.0660
     27 H           4.9592   -3.3545   -0.1233 H       1  LIG1        0.0660
     28 C           8.1258    2.0678    0.1744 C.ar    1  LIG1        0.1264
     29 C           7.4705    0.8181   -0.1383 C.ar    1  LIG1        0.0447
     30 C           8.3013   -0.1724   -0.6561 C.ar    1  LIG1       -0.0316
     31 C           9.6910   -0.0094   -0.7883 C.ar    1  LIG1        0.0545
     32 C          10.2461    1.2054   -0.2916 C.ar    1  LIG1        0.1253
     33 N           9.4627    2.1959    0.1393 N.ar    1  LIG1       -0.2274
     34 H           7.8716   -1.1027   -0.9986 H       1  LIG1        0.0638
     35 N           7.4555    3.1726    0.5612 N.pl3   1  LIG1       -0.3426
     36 H           7.9988    4.0220    0.6594 H       1  LIG1        0.1437
     37 H           6.4549    3.1902    0.4095 H       1  LIG1        0.1437
     38 C          10.4313   -1.0045   -1.4834 C.1     1  LIG1       -0.0674
     39 C          11.0306   -1.8764   -2.0802 C.1     1  LIG1       -0.1138
     40 H          11.5414   -2.6020   -2.6692 H       1  LIG1        0.1232
     41 C          11.6749    1.4825   -0.2170 C.ar    1  LIG1        0.1760
     42 C          12.8292    0.7410    0.0175 C.ar    1  LIG1        0.0762
     43 C          13.9100    1.6764    0.1303 C.ar    1  LIG1        0.0197
     44 C          13.3438    2.9202   -0.0438 C.ar    1  LIG1        0.1754
     45 O          12.0091    2.8219   -0.2400 O.2     1  LIG1       -0.4480
     46 N          12.9714   -0.6170    0.2606 N.pl3   1  LIG1       -0.3548
     47 H          12.2789   -1.2039   -0.1925 H       1  LIG1        0.1424
     48 H          13.9066   -0.9582    0.0809 H       1  LIG1        0.1424
     49 C          15.3321    1.3315    0.4465 C.3     1  LIG1       -0.0342
     50 H          15.8662    2.1925    0.8568 H       1  LIG1        0.0279
     51 H          15.8874    0.9884   -0.4366 H       1  LIG1        0.0279
     52 H          15.3784    0.5313    1.1940 H       1  LIG1        0.0279
     53 C          13.9177    4.2378   -0.0704 C.ar    1  LIG1        0.1722
     54 C          15.1867    4.6983   -0.3069 C.ar    1  LIG1        0.0034
     55 C          15.1487    6.1260   -0.1929 C.ar    1  LIG1        0.0726
     56 C          13.8357    6.4483    0.1277 C.ar    1  LIG1        0.1684
     57 O          13.0897    5.3003    0.1921 O.2     1  LIG1       -0.4489
     58 H          16.0477    4.1127   -0.5884 H       1  LIG1        0.0669
     59 C          16.2296    6.9888   -0.4961 C.1     1  LIG1       -0.0658
     60 C          17.1787    7.6736   -0.8027 C.1     1  LIG1       -0.1138
     61 H          17.9954    8.3047   -1.0653 H       1  LIG1        0.1232
     62 C          13.1085    7.6704    0.3315 C.ar    1  LIG1        0.0993
     63 C          13.5095    8.9527    0.7636 C.ar    1  LIG1        0.0536
     64 C          12.3573    9.7744    0.7166 C.ar    1  LIG1       -0.0202
     65 C          11.2772    9.0064    0.2948 C.ar    1  LIG1        0.0509
     66 N          11.7595    7.7279    0.0813 N.ar    1  LIG1       -0.3507
     67 H          11.2190    6.9226   -0.2044 H       1  LIG1        0.1660
     68 C          14.7689    9.3528    1.2734 C.1     1  LIG1       -0.0674
     69 C          15.8110    9.7386    1.7527 C.1     1  LIG1       -0.1138
     70 H          16.7396   10.0487    2.1716 H       1  LIG1        0.1232
     71 H          12.3273   10.8110    1.0165 H       1  LIG1        0.0651
     72 C           8.7538    8.6290    0.0425 C.ar    1  LIG1        0.1498
     73 C           9.9101    9.4504    0.0746 C.ar    1  LIG1        0.0342
     74 C           9.6596   10.8245   -0.1339 C.ar    1  LIG1       -0.0479
     75 C           8.3762   11.2881   -0.3483 C.ar    1  LIG1       -0.0348
     76 C           7.3039   10.3736   -0.3716 C.ar    1  LIG1        0.0776
     77 N           7.5061    9.0692   -0.1772 N.ar    1  LIG1       -0.2355
     78 H          10.4939   11.5164   -0.1597 H       1  LIG1        0.0626
     79 N           8.8646    6.0624    0.4656 N.1     1  LIG1       -0.1893
     80 C           8.8249    7.2086    0.2764 C.1     1  LIG1        0.1198
     81 H           8.2002   12.3424   -0.5341 H       1  LIG1        0.0639
     82 C           5.0066   10.1819   -1.4757 C.ar    1  LIG1        0.2239
     83 C           5.9093   10.8361   -0.5863 C.ar    1  LIG1        0.0631
     84 C           5.4223   11.9525    0.0777 C.ar    1  LIG1       -0.0286
     85 C           4.0943   12.3787   -0.1192 C.ar    1  LIG1        0.0707
     86 C           3.2970   11.6358   -0.9960 C.ar    1  LIG1        0.0488
     87 N           3.7456   10.5695   -1.6598 N.ar    1  LIG1       -0.2195
     88 H           6.0588   12.4893    0.7734 H       1  LIG1        0.0639
     89 H           2.2611   11.9174   -1.1672 H       1  LIG1        0.0844
     90 O           5.4741    9.1470   -2.1786 O.3     1  LIG1       -0.4792
     91 C           4.5703    8.4768   -3.0700 C.3     1  LIG1        0.0804
     92 H           5.1562    7.6709   -3.5108 H       1  LIG1        0.0660
     93 H           3.7147    8.0734   -2.5236 H       1  LIG1        0.0660
     94 H           4.2071    9.1584   -3.8432 H       1  LIG1        0.0660
     95 N           3.1430   14.4534    1.1112 N.1     1  LIG1       -0.1908
     96 C           3.5702   13.5212    0.5608 C.1     1  LIG1        0.1007
@<TRIPOS>BOND
     1    94    91    1
     2    92    91    1
     3    91    93    1
     4    91    90    1
     5    40    39    1
     6    90    82    1
     7    39    38    3
     8    87    82   ar
     9    87    86   ar
    10    38    31    1
    11    82    83   ar
    12     5     2    1
    13    10     1    1
    14    89    86    1
    15    61    60    1
    16    34    30    1
    17    86    85   ar
    18    60    59    3
    19    31    30   ar
    20    31    32   ar
    21    30    29   ar
    22    58    54    1
    23    83    76    1
    24    83    84   ar
    25    81    75    1
    26     2     1   ar
    27     2     4   ar
    28    59    55    1
    29     1     3   ar
    30    51    49    1
    31    76    75   ar
    32    76    77   ar
    33    75    74   ar
    34    54    55   ar
    35    54    53   ar
    36    32    41    1
    37    32    33   ar
    38    45    41   ar
    39    45    44   ar
    40    41    42   ar
    41    67    66    1
    42    55    56   ar
    43    47    46    1
    44    77    72   ar
    45    78    74    1
    46    22    21    1
    47    29    17    1
    48    29    28   ar
    49    74    73   ar
    50    27    24    1
    51    85    84   ar
    52    85    96    1
    53    53    44    1
    54    53    57   ar
    55    21    20    3
    56    44    43   ar
    57    18    17   ar
    58    18    13   ar
    59    42    43   ar
    60    42    46    1
    61    17    16   ar
    62    20    13    1
    63    72    73   ar
    64    72    80    1
    65    73    65    1
    66    84    88    1
    67    48    46    1
    68    66    65   ar
    69    66    62   ar
    70    56    57   ar
    71    56    62    1
    72    13    14   ar
    73    43    49    1
    74    33    28   ar
    75    28    35    1
    76    16    23    1
    77    16    15   ar
    78    80    79    3
    79    65    64   ar
    80    14    15   ar
    81    14     4    1
    82    23    24    1
    83    62    63   ar
    84    15    19    1
    85    37    35    1
    86     4     7   ar
    87    49    50    1
    88    49    52    1
    89    96    95    3
    90    35    36    1
    91     3     9    1
    92     3     6   ar
    93    24    25    1
    94    24    26    1
    95    64    63   ar
    96    64    71    1
    97    63    68    1
    98    68    69    3
    99     7     6   ar
   100     7    11    1
   101     6     8    1
   102    69    70    1
   103    11    12    1
