@<TRIPOS>MOLECULE
mol_data/opt/b3lyp/geoms/mol2/4ag.out
 13 13 0 0 0
SMALL
GASTEIGER

@<TRIPOS>ATOM
      1 C           0.0327   -0.0221    0.0005 C.ar    1  LIG1       -0.0617
      2 C           1.4286   -0.0341    0.0001 C.ar    1  LIG1       -0.0607
      3 C          -0.6407    1.1996    0.0004 C.ar    1  LIG1       -0.0607
      4 C           2.1469    1.1602   -0.0004 C.ar    1  LIG1       -0.0486
      5 H           1.9656   -0.9782    0.0003 H       1  LIG1        0.0618
      6 C           0.0687    2.4007   -0.0002 C.ar    1  LIG1       -0.0486
      7 C           1.4689    2.3866   -0.0006 C.ar    1  LIG1        0.0047
      8 H          -0.4695    3.3441   -0.0003 H       1  LIG1        0.0628
      9 H           3.2328    1.1402   -0.0008 H       1  LIG1        0.0628
     10 H          -1.7267    1.2242    0.0007 H       1  LIG1        0.0618
     11 H          -0.5235   -0.9542    0.0010 H       1  LIG1        0.0618
     12 S           2.4528    3.8810   -0.0013 S.3     1  LIG1       -0.1426
     13 H           1.4252    4.7517   -0.0013 H       1  LIG1        0.1071
@<TRIPOS>BOND
     1    12    13    1
     2    12     7    1
     3     9     4    1
     4     7     4   ar
     5     7     6   ar
     6     4     2   ar
     7     8     6    1
     8     6     3   ar
     9     2     5    1
    10     2     1   ar
    11     3     1   ar
    12     3    10    1
    13     1    11    1
