@<TRIPOS>MOLECULE
mol_data/opt/b3lyp/geoms/mol2/4ag4ag-4ag.out
 35 37 0 0 0
SMALL
GASTEIGER

@<TRIPOS>ATOM
      1 C          -0.1187    0.0127   -0.4049 C.ar    1  LIG1       -0.0611
      2 C           1.2712    0.0888   -0.3852 C.ar    1  LIG1       -0.0530
      3 C          -0.8684    1.1238   -0.0205 C.ar    1  LIG1       -0.0607
      4 C           1.9443    1.2552    0.0121 C.ar    1  LIG1       -0.0047
      5 H           1.8652   -0.7651   -0.6974 H       1  LIG1        0.0624
      6 C          -0.2261    2.2914    0.3834 C.ar    1  LIG1       -0.0480
      7 C           1.1732    2.3691    0.4108 C.ar    1  LIG1        0.0124
      8 H          -0.8194    3.1484    0.6885 H       1  LIG1        0.0629
      9 H          -1.9537    1.0869   -0.0315 H       1  LIG1        0.0618
     10 H          -0.6099   -0.9017   -0.7221 H       1  LIG1        0.0618
     11 S           1.9949    3.8558    0.9914 S.3     1  LIG1       -0.1420
     12 H           0.8693    4.4772    1.3943 H       1  LIG1        0.1071
     13 C           4.1489    0.2712    0.7007 C.ar    1  LIG1       -0.0534
     14 C           5.5386    0.2608    0.6658 C.ar    1  LIG1       -0.0524
     15 C           3.4347    1.2585    0.0075 C.ar    1  LIG1       -0.0158
     16 C           6.2727    1.2177   -0.0514 C.ar    1  LIG1       -0.0047
     17 H           6.0846   -0.4934    1.2246 H       1  LIG1        0.0624
     18 C           4.1545    2.2104   -0.7257 C.ar    1  LIG1       -0.0402
     19 C           5.5539    2.2014   -0.7644 C.ar    1  LIG1        0.0130
     20 H           3.6085    2.9545   -1.2964 H       1  LIG1        0.0635
     21 H           3.6130   -0.4715    1.2830 H       1  LIG1        0.0624
     22 S           6.4428    3.3953   -1.7667 S.3     1  LIG1       -0.1420
     23 H           5.3430    3.9736   -2.2874 H       1  LIG1        0.1071
     24 C           8.4077   -0.0466   -0.4126 C.ar    1  LIG1       -0.0539
     25 C           9.7983   -0.1313   -0.3689 C.ar    1  LIG1       -0.0602
     26 C           7.7613    1.1414   -0.0400 C.ar    1  LIG1       -0.0158
     27 C          10.5642    0.9574    0.0416 C.ar    1  LIG1       -0.0485
     28 H          10.2933   -1.0506   -0.6678 H       1  LIG1        0.0618
     29 C           8.5343    2.2310    0.3880 C.ar    1  LIG1       -0.0408
     30 C           9.9299    2.1460    0.4249 C.ar    1  LIG1        0.0053
     31 H           8.0363    3.1399    0.7093 H       1  LIG1        0.0635
     32 H          11.6476    0.8864    0.0614 H       1  LIG1        0.0628
     33 H           7.8177   -0.8923   -0.7511 H       1  LIG1        0.0624
     34 S          10.9593    3.4995    0.9784 S.3     1  LIG1       -0.1426
     35 H           9.9866    4.4290    1.0368 H       1  LIG1        0.1071
@<TRIPOS>BOND
     1    23    22    1
     2    22    19    1
     3    20    18    1
     4    19    18   ar
     5    19    16   ar
     6    33    24    1
     7    18    15   ar
     8    10     1    1
     9     5     2    1
    10    28    25    1
    11    24    25   ar
    12    24    26   ar
    13     1     2   ar
    14     1     3   ar
    15     2     4   ar
    16    25    27   ar
    17    16    26    1
    18    16    14   ar
    19    26    29   ar
    20     9     3    1
    21     3     6   ar
    22    15     4    1
    23    15    13   ar
    24     4     7   ar
    25    27    32    1
    26    27    30   ar
    27     6     7   ar
    28     6     8    1
    29    29    30   ar
    30    29    31    1
    31     7    11    1
    32    30    34    1
    33    14    13   ar
    34    14    17    1
    35    13    21    1
    36    34    35    1
    37    11    12    1
