@<TRIPOS>MOLECULE
mol_data/opt/b3lyp/geoms/mol2/4ag4ag-4ag-4ag.out
 46 49 0 0 0
SMALL
GASTEIGER

@<TRIPOS>ATOM
      1 C          -0.2230    1.3628   -1.3174 C.ar    1  LIG1       -0.0611
      2 C           1.1666    1.3803   -1.2332 C.ar    1  LIG1       -0.0530
      3 C          -0.9769    1.3139   -0.1455 C.ar    1  LIG1       -0.0607
      4 C           1.8350    1.3510    0.0012 C.ar    1  LIG1       -0.0047
      5 H           1.7636    1.4002   -2.1402 H       1  LIG1        0.0624
      6 C          -0.3393    1.2885    1.0923 C.ar    1  LIG1       -0.0480
      7 C           1.0592    1.3131    1.1810 C.ar    1  LIG1        0.0124
      8 H          -0.9362    1.2575    1.9990 H       1  LIG1        0.0629
      9 H          -2.0618    1.2960   -0.1886 H       1  LIG1        0.0618
     10 H          -0.7103    1.3807   -2.2871 H       1  LIG1        0.0618
     11 S           1.8733    1.3417    2.7800 S.3     1  LIG1       -0.1420
     12 H           0.7424    1.4816    3.4989 H       1  LIG1        0.1071
     13 C           4.0738    0.3699    0.6468 C.ar    1  LIG1       -0.0534
     14 C           5.4630    0.4044    0.5998 C.ar    1  LIG1       -0.0524
     15 C           3.3251    1.3722    0.0135 C.ar    1  LIG1       -0.0158
     16 C           6.1625    1.4190   -0.0712 C.ar    1  LIG1       -0.0047
     17 H           6.0347   -0.3873    1.0747 H       1  LIG1        0.0624
     18 C           4.0110    2.3915   -0.6591 C.ar    1  LIG1       -0.0402
     19 C           5.4093    2.4319   -0.7035 C.ar    1  LIG1        0.0130
     20 H           3.4340    3.1787   -1.1348 H       1  LIG1        0.0635
     21 H           3.5704   -0.4467    1.1530 H       1  LIG1        0.0624
     22 S           6.2549    3.7908   -1.5153 S.3     1  LIG1       -0.1420
     23 H           5.1437    4.5162   -1.7483 H       1  LIG1        0.1071
     24 C           8.3594    1.3146    1.1360 C.ar    1  LIG1       -0.0534
     25 C           9.7479    1.2488    1.1279 C.ar    1  LIG1       -0.0524
     26 C           7.6518    1.3880   -0.0722 C.ar    1  LIG1       -0.0158
     27 C          10.4870    1.2516   -0.0650 C.ar    1  LIG1       -0.0047
     28 H          10.2880    1.1834    2.0678 H       1  LIG1        0.0624
     29 C           8.3764    1.3862   -1.2705 C.ar    1  LIG1       -0.0402
     30 C           9.7756    1.3300   -1.2816 C.ar    1  LIG1        0.0130
     31 H           7.8359    1.4197   -2.2108 H       1  LIG1        0.0635
     32 H           7.8194    1.3206    2.0773 H       1  LIG1        0.0624
     33 S          10.6736    1.3863   -2.8333 S.3     1  LIG1       -0.1420
     34 H           9.6019    1.6872   -3.5926 H       1  LIG1        0.1071
     35 C          12.6913    0.1621   -0.6374 C.ar    1  LIG1       -0.0539
     36 C          14.0794    0.1034   -0.5195 C.ar    1  LIG1       -0.0602
     37 C          11.9740    1.1821    0.0053 C.ar    1  LIG1       -0.0158
     38 C          14.7716    1.0482    0.2340 C.ar    1  LIG1       -0.0485
     39 H          14.6292   -0.6909   -1.0155 H       1  LIG1        0.0618
     40 C          12.6735    2.1282    0.7694 C.ar    1  LIG1       -0.0408
     41 C          14.0656    2.0682    0.8850 C.ar    1  LIG1        0.0053
     42 H          12.1171    2.9212    1.2599 H       1  LIG1        0.0635
     43 H          15.8532    0.9952    0.3152 H       1  LIG1        0.0628
     44 H          12.1620   -0.5915   -1.2106 H       1  LIG1        0.0624
     45 S          15.0045    3.2501    1.8447 S.3     1  LIG1       -0.1426
     46 H          13.9699    4.0440    2.1808 H       1  LIG1        0.1071
@<TRIPOS>BOND
     1    34    33    1
     2    33    30    1
     3    10     1    1
     4    31    29    1
     5     5     2    1
     6    23    22    1
     7    22    19    1
     8     1     2   ar
     9     1     3   ar
    10    30    29   ar
    11    30    27   ar
    12    29    26   ar
    13     2     4   ar
    14    44    35    1
    15    20    18    1
    16    39    36    1
    17    19    18   ar
    18    19    16   ar
    19    18    15   ar
    20    35    36   ar
    21    35    37   ar
    22    36    38   ar
    23     9     3    1
    24     3     6   ar
    25    26    16    1
    26    26    24   ar
    27    16    14   ar
    28    27    37    1
    29    27    25   ar
    30     4    15    1
    31     4     7   ar
    32    37    40   ar
    33    15    13   ar
    34    38    43    1
    35    38    41   ar
    36    14    13   ar
    37    14    17    1
    38    13    21    1
    39    40    41   ar
    40    40    42    1
    41    41    45    1
    42     6     7   ar
    43     6     8    1
    44    25    24   ar
    45    25    28    1
    46    24    32    1
    47     7    11    1
    48    45    46    1
    49    11    12    1
