@<TRIPOS>MOLECULE
mol_data/opt/b3lyp/geoms/mol2/4ag4ag4ag-4ag.out
 46 49 0 0 0
SMALL
GASTEIGER

@<TRIPOS>ATOM
      1 C          -0.1852   -0.0192    0.7010 C.ar    1  LIG1       -0.0611
      2 C           1.2009    0.0967    0.6449 C.ar    1  LIG1       -0.0530
      3 C          -0.9770    0.9981    0.1696 C.ar    1  LIG1       -0.0607
      4 C           1.8289    1.2113    0.0662 C.ar    1  LIG1       -0.0047
      5 H           1.8272   -0.6819    1.0702 H       1  LIG1        0.0624
      6 C          -0.3800    2.1119   -0.4151 C.ar    1  LIG1       -0.0480
      7 C           1.0154    2.2283   -0.4797 C.ar    1  LIG1        0.0124
      8 H          -1.0059    2.8947   -0.8333 H       1  LIG1        0.0629
      9 H          -2.0602    0.9293    0.2059 H       1  LIG1        0.0618
     10 H          -0.6409   -0.8910    1.1596 H       1  LIG1        0.0618
     11 S           1.7783    3.6363   -1.2911 S.3     1  LIG1       -0.1420
     12 H           0.6274    4.1535   -1.7639 H       1  LIG1        0.1071
     13 C           4.0569    0.2053   -0.5057 C.ar    1  LIG1       -0.0534
     14 C           5.4462    0.2463   -0.4971 C.ar    1  LIG1       -0.0524
     15 C           3.3181    1.2628    0.0434 C.ar    1  LIG1       -0.0158
     16 C           6.1566    1.3246    0.0528 C.ar    1  LIG1       -0.0047
     17 H           6.0102   -0.5653   -0.9469 H       1  LIG1        0.0624
     18 C           4.0141    2.3377    0.6106 C.ar    1  LIG1       -0.0402
     19 C           5.4134    2.3803    0.6247 C.ar    1  LIG1        0.0130
     20 H           3.4500    3.1416    1.0721 H       1  LIG1        0.0635
     21 H           3.5394   -0.6344   -0.9584 H       1  LIG1        0.0624
     22 S           6.2716    3.7386    1.4234 S.3     1  LIG1       -0.1420
     23 H           5.1591    4.3454    1.8804 H       1  LIG1        0.1071
     24 C           8.3438    0.1900    0.5281 C.ar    1  LIG1       -0.0534
     25 C           9.7323    0.1551    0.4702 C.ar    1  LIG1       -0.0524
     26 C           7.6454    1.2958    0.0226 C.ar    1  LIG1       -0.0158
     27 C          10.4806    1.2033   -0.0864 C.ar    1  LIG1       -0.0047
     28 H          10.2665   -0.6942    0.8856 H       1  LIG1        0.0624
     29 C           8.3793    2.3417   -0.5516 C.ar    1  LIG1       -0.0402
     30 C           9.7774    2.3084   -0.6131 C.ar    1  LIG1        0.0130
     31 H           7.8448    3.1833   -0.9797 H       1  LIG1        0.0635
     32 H           7.7972   -0.6282    0.9861 H       1  LIG1        0.0624
     33 S          10.6841    3.6338   -1.4131 S.3     1  LIG1       -0.1420
     34 H           9.5933    4.3117   -1.8201 H       1  LIG1        0.1071
     35 C          12.5836   -0.0220   -0.6905 C.ar    1  LIG1       -0.0539
     36 C          13.9724   -0.1403   -0.6812 C.ar    1  LIG1       -0.0602
     37 C          11.9670    1.0959   -0.1093 C.ar    1  LIG1       -0.0158
     38 C          14.7660    0.8452   -0.0984 C.ar    1  LIG1       -0.0485
     39 H          14.4443   -1.0035   -1.1414 H       1  LIG1        0.0618
     40 C          12.7679    2.0794    0.4901 C.ar    1  LIG1       -0.0408
     41 C          14.1615    1.9616    0.4933 C.ar    1  LIG1        0.0053
     42 H          12.2928    2.9290    0.9697 H       1  LIG1        0.0635
     43 H          15.8476    0.7502   -0.1057 H       1  LIG1        0.0628
     44 H          11.9720   -0.7845   -1.1622 H       1  LIG1        0.0624
     45 S          15.2256    3.1781    1.2593 S.3     1  LIG1       -0.1426
     46 H          14.2734    4.1011    1.4940 H       1  LIG1        0.1071
@<TRIPOS>BOND
     1    34    33    1
     2    12    11    1
     3    33    30    1
     4    11     7    1
     5    44    35    1
     6    39    36    1
     7    31    29    1
     8    21    13    1
     9    17    14    1
    10     8     6    1
    11    35    36   ar
    12    35    37   ar
    13    36    38   ar
    14    30    29   ar
    15    30    27   ar
    16    29    26   ar
    17    13    14   ar
    18    13    15   ar
    19    14    16   ar
    20     7     6   ar
    21     7     4   ar
    22     6     3   ar
    23    37    27    1
    24    37    40   ar
    25    43    38    1
    26    38    41   ar
    27    27    25   ar
    28    26    16    1
    29    26    24   ar
    30    15     4    1
    31    15    18   ar
    32    16    19   ar
    33     4     2   ar
    34     3     9    1
    35     3     1   ar
    36    25    24   ar
    37    25    28    1
    38    40    41   ar
    39    40    42    1
    40    41    45    1
    41    24    32    1
    42    18    19   ar
    43    18    20    1
    44    19    22    1
    45     2     1   ar
    46     2     5    1
    47     1    10    1
    48    45    46    1
    49    22    23    1
