@<TRIPOS>MOLECULE
mol_data/opt/b3lyp/geoms/mol2/4ag4ag-4ag-4ag-.out
 46 49 0 0 0
SMALL
GASTEIGER

@<TRIPOS>ATOM
      1 C          -0.1860   -0.0146   -0.6997 C.ar    1  LIG1       -0.0611
      2 C           1.2001    0.0993   -0.6413 C.ar    1  LIG1       -0.0530
      3 C          -0.9773    1.0089   -0.1796 C.ar    1  LIG1       -0.0607
      4 C           1.8287    1.2181   -0.0715 C.ar    1  LIG1       -0.0047
      5 H           1.8261   -0.6843   -1.0579 H       1  LIG1        0.0624
      6 C          -0.3797    2.1270    0.3962 C.ar    1  LIG1       -0.0480
      7 C           1.0157    2.2416    0.4632 C.ar    1  LIG1        0.0124
      8 H          -1.0053    2.9148    0.8055 H       1  LIG1        0.0629
      9 H          -2.0605    0.9417   -0.2179 H       1  LIG1        0.0618
     10 H          -0.6423   -0.8898   -1.1513 H       1  LIG1        0.0618
     11 S           1.7790    3.6554    1.2633 S.3     1  LIG1       -0.1420
     12 H           0.6282    4.1783    1.7297 H       1  LIG1        0.1071
     13 C           4.0537    0.2135    0.5146 C.ar    1  LIG1       -0.0534
     14 C           5.4431    0.2522    0.5089 C.ar    1  LIG1       -0.0524
     15 C           3.3179    1.2673   -0.0455 C.ar    1  LIG1       -0.0158
     16 C           6.1565    1.3246   -0.0488 C.ar    1  LIG1       -0.0047
     17 H           6.0048   -0.5563    0.9671 H       1  LIG1        0.0624
     18 C           4.0170    2.3361   -0.6205 C.ar    1  LIG1       -0.0402
     19 C           5.4164    2.3764   -0.6317 C.ar    1  LIG1        0.0130
     20 H           3.4552    3.1367   -1.0905 H       1  LIG1        0.0635
     21 H           3.5339   -0.6213    0.9735 H       1  LIG1        0.0624
     22 S           6.2787    3.7261   -1.4402 S.3     1  LIG1       -0.1420
     23 H           5.1683    4.3309   -1.9049 H       1  LIG1        0.1071
     24 C           8.3433    0.1831   -0.5098 C.ar    1  LIG1       -0.0534
     25 C           9.7317    0.1468   -0.4484 C.ar    1  LIG1       -0.0524
     26 C           7.6453    1.2939   -0.0150 C.ar    1  LIG1       -0.0158
     27 C          10.4800    1.1986    0.1015 C.ar    1  LIG1       -0.0047
     28 H          10.2656   -0.7065   -0.8556 H       1  LIG1        0.0624
     29 C           8.3791    2.3434    0.5526 C.ar    1  LIG1       -0.0402
     30 C           9.7771    2.3088    0.6177 C.ar    1  LIG1        0.0130
     31 H           7.8447    3.1891    0.9727 H       1  LIG1        0.0635
     32 H           7.7968   -0.6381   -0.9624 H       1  LIG1        0.0624
     33 S          10.6837    3.6391    1.4096 S.3     1  LIG1       -0.1420
     34 H           9.5929    4.3221    1.8079 H       1  LIG1        0.1071
     35 C          12.5806   -0.0240    0.7204 C.ar    1  LIG1       -0.0539
     36 C          13.9693   -0.1435    0.7151 C.ar    1  LIG1       -0.0602
     37 C          11.9662    1.0897    0.1288 C.ar    1  LIG1       -0.0158
     38 C          14.7651    0.8365    0.1262 C.ar    1  LIG1       -0.0485
     39 H          14.4393   -1.0034    1.1834 H       1  LIG1        0.0618
     40 C          12.7694    2.0677   -0.4768 C.ar    1  LIG1       -0.0408
     41 C          14.1629    1.9486   -0.4759 C.ar    1  LIG1        0.0053
     42 H          12.2960    2.9136   -0.9644 H       1  LIG1        0.0635
     43 H          15.8466    0.7407    0.1367 H       1  LIG1        0.0628
     44 H          11.9674   -0.7822    1.1968 H       1  LIG1        0.0624
     45 S          15.2298    3.1582   -1.2494 S.3     1  LIG1       -0.1426
     46 H          14.2788    4.0797   -1.4941 H       1  LIG1        0.1071
@<TRIPOS>BOND
     1    23    22    1
     2    46    45    1
     3    22    19    1
     4    45    41    1
     5    10     1    1
     6    20    18    1
     7     5     2    1
     8    42    40    1
     9    32    24    1
    10    28    25    1
    11     1     2   ar
    12     1     3   ar
    13     2     4   ar
    14    19    18   ar
    15    19    16   ar
    16    18    15   ar
    17    24    25   ar
    18    24    26   ar
    19    40    41   ar
    20    40    37   ar
    21    41    38   ar
    22    25    27   ar
    23     9     3    1
    24     3     6   ar
    25     4    15    1
    26     4     7   ar
    27    16    26    1
    28    16    14   ar
    29    15    13   ar
    30    26    29   ar
    31    27    37    1
    32    27    30   ar
    33    38    43    1
    34    38    36   ar
    35    37    35   ar
    36     6     7   ar
    37     6     8    1
    38     7    11    1
    39    14    13   ar
    40    14    17    1
    41    13    21    1
    42    29    30   ar
    43    29    31    1
    44    30    33    1
    45    36    35   ar
    46    36    39    1
    47    35    44    1
    48    11    12    1
    49    33    34    1
