@<TRIPOS>MOLECULE
mol_data/opt/b3lyp/geoms/mol2/4ag4ag4ag.out
 35 37 0 0 0
SMALL
GASTEIGER

@<TRIPOS>ATOM
      1 C          -0.0328    0.4981    1.3247 C.ar    1  LIG1       -0.0611
      2 C           1.3494    0.5491    1.1664 C.ar    1  LIG1       -0.0530
      3 C          -0.8478    1.1983    0.4361 C.ar    1  LIG1       -0.0607
      4 C           1.9505    1.2870    0.1340 C.ar    1  LIG1       -0.0047
      5 H           1.9945    0.0207    1.8620 H       1  LIG1        0.0624
      6 C          -0.2780    1.9333   -0.6003 C.ar    1  LIG1       -0.0480
      7 C           1.1130    1.9810   -0.7669 C.ar    1  LIG1        0.0124
      8 H          -0.9223    2.4684   -1.2916 H       1  LIG1        0.0629
      9 H          -1.9281    1.1747    0.5438 H       1  LIG1        0.0618
     10 H          -0.4674   -0.0773    2.1360 H       1  LIG1        0.0618
     11 S           1.8386    2.8774   -2.1427 S.3     1  LIG1       -0.1420
     12 H           0.6670    3.1679   -2.7413 H       1  LIG1        0.1071
     13 C           4.1486    0.0864   -0.0415 C.ar    1  LIG1       -0.0534
     14 C           5.5374    0.0978   -0.1007 C.ar    1  LIG1       -0.0524
     15 C           3.4371    1.2923    0.0287 C.ar    1  LIG1       -0.0158
     16 C           6.2736    1.2926   -0.0932 C.ar    1  LIG1       -0.0047
     17 H           6.0811   -0.8411   -0.1465 H       1  LIG1        0.0624
     18 C           4.1593    2.4920    0.0426 C.ar    1  LIG1       -0.0402
     19 C           5.5577    2.5075   -0.0289 C.ar    1  LIG1        0.0130
     20 H           3.6174    3.4290    0.1187 H       1  LIG1        0.0635
     21 H           3.6104   -0.8559   -0.0600 H       1  LIG1        0.0624
     22 S           6.4447    4.0671   -0.0713 S.3     1  LIG1       -0.1420
     23 H           5.3483    4.8356   -0.2212 H       1  LIG1        0.1071
     24 C           8.3831    0.5138   -1.2030 C.ar    1  LIG1       -0.0539
     25 C           9.7729    0.4217   -1.2535 C.ar    1  LIG1       -0.0602
     26 C           7.7605    1.2240   -0.1656 C.ar    1  LIG1       -0.0158
     27 C          10.5619    1.0321   -0.2810 C.ar    1  LIG1       -0.0485
     28 H          10.2492   -0.1205   -2.0650 H       1  LIG1        0.0618
     29 C           8.5570    1.8235    0.8214 C.ar    1  LIG1       -0.0408
     30 C           9.9518    1.7362    0.7647 C.ar    1  LIG1        0.0053
     31 H           8.0785    2.3423    1.6458 H       1  LIG1        0.0635
     32 H          11.6443    0.9663   -0.3357 H       1  LIG1        0.0628
     33 H           7.7753    0.0538   -1.9755 H       1  LIG1        0.0624
     34 S          11.0103    2.4675    2.0073 S.3     1  LIG1       -0.1426
     35 H          10.0568    3.1876    2.6286 H       1  LIG1        0.1071
@<TRIPOS>BOND
     1    12    11    1
     2    11     7    1
     3    28    25    1
     4    33    24    1
     5     8     6    1
     6    25    24   ar
     7    25    27   ar
     8    24    26   ar
     9     7     6   ar
    10     7     4   ar
    11     6     3   ar
    12    32    27    1
    13    27    30   ar
    14    23    22    1
    15    26    16    1
    16    26    29   ar
    17    17    14    1
    18    14    16   ar
    19    14    13   ar
    20    16    19   ar
    21    22    19    1
    22    21    13    1
    23    13    15   ar
    24    19    18   ar
    25    15    18   ar
    26    15     4    1
    27    18    20    1
    28     4     2   ar
    29     3     9    1
    30     3     1   ar
    31    30    29   ar
    32    30    34    1
    33    29    31    1
    34     2     1   ar
    35     2     5    1
    36     1    10    1
    37    34    35    1
