@<TRIPOS>MOLECULE
mol_data/opt/b3lyp/geoms/mol2/4ag4ag-4ag4ag-.out
 46 49 0 0 0
SMALL
GASTEIGER

@<TRIPOS>ATOM
      1 C          -0.1839   -0.0277   -0.6911 C.ar    1  LIG1       -0.0611
      2 C           1.2021    0.0885   -0.6334 C.ar    1  LIG1       -0.0530
      3 C          -0.9767    0.9970   -0.1755 C.ar    1  LIG1       -0.0607
      4 C           1.8291    1.2107   -0.0686 C.ar    1  LIG1       -0.0047
      5 H           1.8292   -0.6960   -1.0465 H       1  LIG1        0.0624
      6 C          -0.3807    2.1185    0.3954 C.ar    1  LIG1       -0.0480
      7 C           1.0146    2.2354    0.4617 C.ar    1  LIG1        0.0124
      8 H          -1.0074    2.9071    0.8013 H       1  LIG1        0.0629
      9 H          -2.0598    0.9280   -0.2134 H       1  LIG1        0.0618
     10 H          -0.6389   -0.9056   -1.1389 H       1  LIG1        0.0618
     11 S           1.7761    3.6539    1.2555 S.3     1  LIG1       -0.1420
     12 H           0.6245    4.1771    1.7199 H       1  LIG1        0.1071
     13 C           4.0556    0.2123    0.5221 C.ar    1  LIG1       -0.0534
     14 C           5.4450    0.2531    0.5161 C.ar    1  LIG1       -0.0524
     15 C           3.3182    1.2623   -0.0429 C.ar    1  LIG1       -0.0158
     16 C           6.1566    1.3238   -0.0467 C.ar    1  LIG1       -0.0047
     17 H           6.0078   -0.5524    0.9782 H       1  LIG1        0.0624
     18 C           4.0156    2.3294   -0.6230 C.ar    1  LIG1       -0.0402
     19 C           5.4149    2.3717   -0.6345 C.ar    1  LIG1        0.0130
     20 H           3.4526    3.1270   -1.0966 H       1  LIG1        0.0635
     21 H           3.5370   -0.6212    0.9849 H       1  LIG1        0.0624
     22 S           6.2750    3.7191   -1.4497 S.3     1  LIG1       -0.1420
     23 H           5.1637    4.3188   -1.9186 H       1  LIG1        0.1071
     24 C           8.3449    0.1825   -0.5010 C.ar    1  LIG1       -0.0534
     25 C           9.7333    0.1484   -0.4394 C.ar    1  LIG1       -0.0524
     26 C           7.6454    1.2954   -0.0127 C.ar    1  LIG1       -0.0158
     27 C          10.4803    1.2043    0.1041 C.ar    1  LIG1       -0.0047
     28 H          10.2683   -0.7067   -0.8416 H       1  LIG1        0.0624
     29 C           8.3780    2.3492    0.5486 C.ar    1  LIG1       -0.0402
     30 C           9.7760    2.3167    0.6137 C.ar    1  LIG1        0.0130
     31 H           7.8426    3.1967    0.9636 H       1  LIG1        0.0635
     32 H           7.7994   -0.6420   -0.9487 H       1  LIG1        0.0624
     33 S          10.6810    3.6531    1.3972 S.3     1  LIG1       -0.1420
     34 H           9.5894    4.3365    1.7925 H       1  LIG1        0.1071
     35 C          12.5820   -0.0124    0.7301 C.ar    1  LIG1       -0.0539
     36 C          13.9708   -0.1308    0.7254 C.ar    1  LIG1       -0.0602
     37 C          11.9667    1.0973    0.1318 C.ar    1  LIG1       -0.0158
     38 C          14.7657    0.8465    0.1307 C.ar    1  LIG1       -0.0485
     39 H          14.4417   -0.9874    1.1988 H       1  LIG1        0.0618
     40 C          12.7689    2.0723   -0.4795 C.ar    1  LIG1       -0.0408
     41 C          14.1626    1.9545   -0.4779 C.ar    1  LIG1        0.0053
     42 H          12.2948    2.9150   -0.9720 H       1  LIG1        0.0635
     43 H          15.8473    0.7517    0.1417 H       1  LIG1        0.0628
     44 H          11.9694   -0.7683    1.2110 H       1  LIG1        0.0624
     45 S          15.2282    3.1602   -1.2586 S.3     1  LIG1       -0.1426
     46 H          14.2766    4.0797   -1.5084 H       1  LIG1        0.1071
@<TRIPOS>BOND
     1    23    22    1
     2    46    45    1
     3    22    19    1
     4    45    41    1
     5    10     1    1
     6    20    18    1
     7     5     2    1
     8    42    40    1
     9    32    24    1
    10    28    25    1
    11     1     2   ar
    12     1     3   ar
    13    19    18   ar
    14    19    16   ar
    15     2     4   ar
    16    18    15   ar
    17    24    25   ar
    18    24    26   ar
    19    40    41   ar
    20    40    37   ar
    21    41    38   ar
    22    25    27   ar
    23     9     3    1
    24     3     6   ar
    25     4    15    1
    26     4     7   ar
    27    16    26    1
    28    16    14   ar
    29    15    13   ar
    30    26    29   ar
    31    27    37    1
    32    27    30   ar
    33    38    43    1
    34    38    36   ar
    35    37    35   ar
    36     6     7   ar
    37     6     8    1
    38     7    11    1
    39    14    13   ar
    40    14    17    1
    41    13    21    1
    42    29    30   ar
    43    29    31    1
    44    30    33    1
    45    36    35   ar
    46    36    39    1
    47    35    44    1
    48    11    12    1
    49    33    34    1
