@<TRIPOS>MOLECULE
mol_data/opt/b3lyp/geoms/mol2/4ag4ag-4ag-.out
 35 37 0 0 0
SMALL
GASTEIGER

@<TRIPOS>ATOM
      1 C          -0.0994    0.8348   -1.2791 C.ar    1  LIG1       -0.0611
      2 C           1.2888    0.8384   -1.1728 C.ar    1  LIG1       -0.0530
      3 C          -0.8652    1.3490   -0.2335 C.ar    1  LIG1       -0.0607
      4 C           1.9437    1.3472   -0.0400 C.ar    1  LIG1       -0.0047
      5 H           1.8945    0.4246   -1.9737 H       1  LIG1        0.0624
      6 C          -0.2407    1.8637    0.8998 C.ar    1  LIG1       -0.0480
      7 C           1.1568    1.8752    1.0071 C.ar    1  LIG1        0.0124
      8 H          -0.8463    2.2678    1.7056 H       1  LIG1        0.0629
      9 H          -1.9494    1.3525   -0.2948 H       1  LIG1        0.0618
     10 H          -0.5770    0.4291   -2.1654 H       1  LIG1        0.0618
     11 S           1.9598    2.5932    2.4421 S.3     1  LIG1       -0.1420
     12 H           0.8321    3.0898    2.9875 H       1  LIG1        0.1071
     13 C           4.1284    0.6652    1.0325 C.ar    1  LIG1       -0.0534
     14 C           5.5186    0.6337    1.0213 C.ar    1  LIG1       -0.0524
     15 C           3.4334    1.3191    0.0053 C.ar    1  LIG1       -0.0158
     16 C           6.2710    1.2387    0.0033 C.ar    1  LIG1       -0.0047
     17 H           6.0499    0.1338    1.8256 H       1  LIG1        0.0624
     18 C           4.1719    1.9170   -1.0234 C.ar    1  LIG1       -0.0402
     19 C           5.5710    1.8820   -1.0403 C.ar    1  LIG1        0.0130
     20 H           3.6359    2.4240   -1.8199 H       1  LIG1        0.0635
     21 H           3.5826    0.1734    1.8306 H       1  LIG1        0.0624
     22 S           6.4836    2.6142   -2.4012 S.3     1  LIG1       -0.1420
     23 H           5.3975    2.9197   -3.1377 H       1  LIG1        0.1071
     24 C           8.3952   -0.0824    0.1804 C.ar    1  LIG1       -0.0539
     25 C           9.7842   -0.1528    0.2726 C.ar    1  LIG1       -0.0602
     26 C           7.7584    1.1620    0.0629 C.ar    1  LIG1       -0.0158
     27 C          10.5582    1.0052    0.2471 C.ar    1  LIG1       -0.0485
     28 H          10.2720   -1.1197    0.3543 H       1  LIG1        0.0618
     29 C           8.5392    2.3275    0.0539 C.ar    1  LIG1       -0.0408
     30 C           9.9334    2.2541    0.1389 C.ar    1  LIG1        0.0053
     31 H           8.0483    3.2937    0.0002 H       1  LIG1        0.0635
     32 H          11.6404    0.9400    0.3075 H       1  LIG1        0.0628
     33 H           7.7995   -0.9896    0.1821 H       1  LIG1        0.0624
     34 S          10.9723    3.7100    0.1484 S.3     1  LIG1       -0.1426
     35 H          10.0106    4.5970   -0.1708 H       1  LIG1        0.1071
@<TRIPOS>BOND
     1    23    22    1
     2    22    19    1
     3    10     1    1
     4     5     2    1
     5    20    18    1
     6     1     2   ar
     7     1     3   ar
     8     2     4   ar
     9    19    18   ar
    10    19    16   ar
    11    18    15   ar
    12     9     3    1
    13     3     6   ar
    14    35    34    1
    15     4    15    1
    16     4     7   ar
    17    31    29    1
    18    16    26    1
    19    16    14   ar
    20    15    13   ar
    21    29    26   ar
    22    29    30   ar
    23    26    24   ar
    24    30    34    1
    25    30    27   ar
    26    24    33    1
    27    24    25   ar
    28    27    25   ar
    29    27    32    1
    30    25    28    1
    31     6     7   ar
    32     6     8    1
    33     7    11    1
    34    14    13   ar
    35    14    17    1
    36    13    21    1
    37    11    12    1
