@<TRIPOS>MOLECULE
mol_data/opt/b3lyp/geoms/mol2/4ag4ag4ag-.out
 35 37 0 0 0
SMALL
GASTEIGER

@<TRIPOS>ATOM
      1 C          -0.1171    0.0055    0.3995 C.ar    1  LIG1       -0.0611
      2 C           1.2726    0.0846    0.3854 C.ar    1  LIG1       -0.0530
      3 C          -0.8676    1.1101   -0.0014 C.ar    1  LIG1       -0.0607
      4 C           1.9449    1.2478   -0.0225 C.ar    1  LIG1       -0.0047
      5 H           1.8670   -0.7642    0.7103 H       1  LIG1        0.0624
      6 C          -0.2262    2.2744   -0.4161 C.ar    1  LIG1       -0.0480
      7 C           1.1730    2.3551   -0.4378 C.ar    1  LIG1        0.0124
      8 H          -0.8201    3.1262   -0.7342 H       1  LIG1        0.0629
      9 H          -1.9529    1.0708    0.0051 H       1  LIG1        0.0618
     10 H          -0.6077   -0.9063    0.7253 H       1  LIG1        0.0618
     11 S           1.9940    3.8368   -1.0320 S.3     1  LIG1       -0.1420
     12 H           0.8683    4.4529   -1.4430 H       1  LIG1        0.1071
     13 C           4.1548    0.2617   -0.6905 C.ar    1  LIG1       -0.0534
     14 C           5.5444    0.2549   -0.6493 C.ar    1  LIG1       -0.0524
     15 C           3.4351    1.2547   -0.0112 C.ar    1  LIG1       -0.0158
     16 C           6.2731    1.2212    0.0609 C.ar    1  LIG1       -0.0047
     17 H           6.0946   -0.5041   -1.1973 H       1  LIG1        0.0624
     18 C           4.1495    2.2162    0.7147 C.ar    1  LIG1       -0.0402
     19 C           5.5488    2.2109    0.7599 C.ar    1  LIG1        0.0130
     20 H           3.5993    2.9653    1.2748 H       1  LIG1        0.0635
     21 H           3.6234   -0.4886   -1.2672 H       1  LIG1        0.0624
     22 S           6.4302    3.4176    1.7529 S.3     1  LIG1       -0.1420
     23 H           5.3269    3.9985    2.2630 H       1  LIG1        0.1071
     24 C           8.4096   -0.0332    0.4472 C.ar    1  LIG1       -0.0539
     25 C           9.8006   -0.1147    0.4111 C.ar    1  LIG1       -0.0602
     26 C           7.7618    1.1485    0.0573 C.ar    1  LIG1       -0.0158
     27 C          10.5656    0.9711   -0.0090 C.ar    1  LIG1       -0.0485
     28 H          10.2967   -1.0290    0.7234 H       1  LIG1        0.0618
     29 C           8.5340    2.2349   -0.3802 C.ar    1  LIG1       -0.0408
     30 C           9.9300    2.1532   -0.4095 C.ar    1  LIG1        0.0053
     31 H           8.0351    3.1385   -0.7149 H       1  LIG1        0.0635
     32 H          11.6492    0.9027   -0.0227 H       1  LIG1        0.0628
     33 H           7.8203   -0.8764    0.7932 H       1  LIG1        0.0624
     34 S          10.9584    3.5029   -0.9748 S.3     1  LIG1       -0.1426
     35 H           9.9838    4.4295   -1.0468 H       1  LIG1        0.1071
@<TRIPOS>BOND
     1    12    11    1
     2    21    13    1
     3    17    14    1
     4    35    34    1
     5    11     7    1
     6    34    30    1
     7     8     6    1
     8    31    29    1
     9    13    14   ar
    10    13    15   ar
    11    14    16   ar
    12     7     6   ar
    13     7     4   ar
    14     6     3   ar
    15    30    29   ar
    16    30    27   ar
    17    29    26   ar
    18    32    27    1
    19     4    15    1
    20     4     2   ar
    21    15    18   ar
    22    27    25   ar
    23     3     9    1
    24     3     1   ar
    25    26    16    1
    26    26    24   ar
    27    16    19   ar
    28     2     1   ar
    29     2     5    1
    30     1    10    1
    31    25    24   ar
    32    25    28    1
    33    24    33    1
    34    18    19   ar
    35    18    20    1
    36    19    22    1
    37    22    23    1
