@<TRIPOS>MOLECULE
mol_data/opt/b3lyp/geoms/mol2/4ag4ag.out
 24 25 0 0 0
SMALL
GASTEIGER

@<TRIPOS>ATOM
      1 C           0.0099    0.1256    0.7495 C.ar    1  LIG1       -0.0611
      2 C           1.3959    0.1571    0.6217 C.ar    1  LIG1       -0.0530
      3 C          -0.7430    1.2026    0.2834 C.ar    1  LIG1       -0.0607
      4 C           2.0617    1.2448    0.0347 C.ar    1  LIG1       -0.0047
      5 H           1.9936   -0.6691    0.9952 H       1  LIG1        0.0624
      6 C          -0.1083    2.2921   -0.3077 C.ar    1  LIG1       -0.0480
      7 C           1.2864    2.3239   -0.4435 C.ar    1  LIG1        0.0124
      8 H          -0.7046    3.1224   -0.6745 H       1  LIG1        0.0629
      9 H          -1.8250    1.1998    0.3762 H       1  LIG1        0.0618
     10 H          -0.4753   -0.7276    1.2129 H       1  LIG1        0.0618
     11 S           2.0946    3.7033   -1.2599 S.3     1  LIG1       -0.1420
     12 H           0.9560    4.3084   -1.6507 H       1  LIG1        0.1071
     13 C           4.1828    0.1235   -0.6977 C.ar    1  LIG1       -0.0539
     14 C           5.5739    0.0686   -0.7647 C.ar    1  LIG1       -0.0602
     15 C           3.5488    1.2053   -0.0686 C.ar    1  LIG1       -0.0158
     16 C           6.3529    1.0835   -0.2132 C.ar    1  LIG1       -0.0485
     17 H           6.0585   -0.7666   -1.2617 H       1  LIG1        0.0618
     18 C           4.3362    2.2168    0.5011 C.ar    1  LIG1       -0.0408
     19 C           5.7319    2.1641    0.4256 C.ar    1  LIG1        0.0053
     20 H           3.8507    3.0371    1.0199 H       1  LIG1        0.0635
     21 H           7.4356    1.0396   -0.2822 H       1  LIG1        0.0628
     22 H           3.5812   -0.6604   -1.1465 H       1  LIG1        0.0624
     23 S           6.7796    3.4196    1.1510 S.3     1  LIG1       -0.1426
     24 H           5.8059    4.3139    1.4076 H       1  LIG1        0.1071
@<TRIPOS>BOND
     1    12    11    1
     2    17    14    1
     3    11     7    1
     4    22    13    1
     5    14    13   ar
     6    14    16   ar
     7    13    15   ar
     8     8     6    1
     9     7     6   ar
    10     7     4   ar
    11     6     3   ar
    12    21    16    1
    13    16    19   ar
    14    15     4    1
    15    15    18   ar
    16     4     2   ar
    17     3     9    1
    18     3     1   ar
    19    19    18   ar
    20    19    23    1
    21    18    20    1
    22     2     1   ar
    23     2     5    1
    24     1    10    1
    25    23    24    1
