@<TRIPOS>MOLECULE
mol_data/opt/b3lyp/geoms/mol2/4ag4ag4ag4ag-.out
 46 49 0 0 0
SMALL
GASTEIGER

@<TRIPOS>ATOM
      1 C          -0.1715    0.4916    1.2738 C.ar    1  LIG1       -0.0611
      2 C           1.2134    0.5683    1.1545 C.ar    1  LIG1       -0.0530
      3 C          -0.9742    1.1242    0.3252 C.ar    1  LIG1       -0.0607
      4 C           1.8289    1.2663    0.1032 C.ar    1  LIG1       -0.0047
      5 H           1.8487    0.0923    1.8955 H       1  LIG1        0.0624
      6 C          -0.3894    1.8180   -0.7311 C.ar    1  LIG1       -0.0480
      7 C           1.0045    1.8917   -0.8577 C.ar    1  LIG1        0.0124
      8 H          -1.0240    2.2997   -1.4692 H       1  LIG1        0.0629
      9 H          -2.0565    1.0794    0.4013 H       1  LIG1        0.0618
     10 H          -0.6180   -0.0513    2.1009 H       1  LIG1        0.0618
     11 S           1.7532    2.7337   -2.2552 S.3     1  LIG1       -0.1420
     12 H           0.5949    2.9697   -2.9015 H       1  LIG1        0.1071
     13 C           4.0570    0.1109    0.0475 C.ar    1  LIG1       -0.0534
     14 C           5.4463    0.1515    0.0318 C.ar    1  LIG1       -0.0524
     15 C           3.3177    1.3021    0.0426 C.ar    1  LIG1       -0.0158
     16 C           6.1557    1.3624    0.0114 C.ar    1  LIG1       -0.0047
     17 H           6.0113   -0.7758    0.0443 H       1  LIG1        0.0624
     18 C           4.0128    2.5176    0.0257 C.ar    1  LIG1       -0.0402
     19 C           5.4121    2.5622   -0.0013 C.ar    1  LIG1        0.0130
     20 H           3.4487    3.4444    0.0424 H       1  LIG1        0.0635
     21 H           3.5398   -0.8433    0.0535 H       1  LIG1        0.0624
     22 S           6.2664    4.1381   -0.0840 S.3     1  LIG1       -0.1420
     23 H           5.1600    4.8739   -0.3062 H       1  LIG1        0.1071
     24 C           8.3229    0.5807   -0.9839 C.ar    1  LIG1       -0.0534
     25 C           9.7119    0.5256   -0.9786 C.ar    1  LIG1       -0.0524
     26 C           7.6445    1.3240   -0.0078 C.ar    1  LIG1       -0.0158
     27 C          10.4804    1.1950   -0.0140 C.ar    1  LIG1       -0.0047
     28 H          10.2304   -0.0313   -1.7532 H       1  LIG1        0.0624
     29 C           8.3984    1.9843    0.9706 C.ar    1  LIG1       -0.0402
     30 C           9.7972    1.9273    0.9811 C.ar    1  LIG1        0.0130
     31 H           7.8798    2.5293    1.7527 H       1  LIG1        0.0635
     32 H           7.7606    0.0688   -1.7583 H       1  LIG1        0.0624
     33 S          10.7290    2.7272    2.2891 S.3     1  LIG1       -0.1420
     34 H           9.6513    3.1397    2.9845 H       1  LIG1        0.1071
     35 C          12.5810   -0.1707   -0.1097 C.ar    1  LIG1       -0.0539
     36 C          13.9682   -0.2714   -0.2023 C.ar    1  LIG1       -0.0602
     37 C          11.9659    1.0896   -0.0758 C.ar    1  LIG1       -0.0158
     38 C          14.7616    0.8721   -0.2604 C.ar    1  LIG1       -0.0485
     39 H          14.4391   -1.2499   -0.2190 H       1  LIG1        0.0618
     40 C          12.7664    2.2393   -0.1500 C.ar    1  LIG1       -0.0408
     41 C          14.1586    2.1361   -0.2361 C.ar    1  LIG1        0.0053
     42 H          12.2920    3.2151   -0.1583 H       1  LIG1        0.0635
     43 H          15.8422    0.7842   -0.3211 H       1  LIG1        0.0628
     44 H          11.9700   -1.0655   -0.0462 H       1  LIG1        0.0624
     45 S          15.2220    3.5698   -0.3475 S.3     1  LIG1       -0.1426
     46 H          14.2722    4.4941   -0.1086 H       1  LIG1        0.1071
@<TRIPOS>BOND
     1    12    11    1
     2    11     7    1
     3    32    24    1
     4    28    25    1
     5     8     6    1
     6    24    25   ar
     7    24    26   ar
     8    25    27   ar
     9     7     6   ar
    10     7     4   ar
    11     6     3   ar
    12    45    41    1
    13    45    46    1
    14    43    38    1
    15    23    22    1
    16    38    41   ar
    17    38    36   ar
    18    41    40   ar
    19    39    36    1
    20    36    35   ar
    21    42    40    1
    22    40    37   ar
    23    35    37   ar
    24    35    44    1
    25    22    19    1
    26    37    27    1
    27    27    30   ar
    28    26    16    1
    29    26    29   ar
    30    19    16   ar
    31    19    18   ar
    32    16    14   ar
    33    18    20    1
    34    18    15   ar
    35    14    17    1
    36    14    13   ar
    37    15    13   ar
    38    15     4    1
    39    13    21    1
    40     4     2   ar
    41     3     9    1
    42     3     1   ar
    43    29    30   ar
    44    29    31    1
    45    30    33    1
    46     2     1   ar
    47     2     5    1
    48     1    10    1
    49    33    34    1
