@<TRIPOS>MOLECULE
mol_data/opt/b3lyp/geoms/mol2/4ag4ag4ag-4ag-.out
 46 49 0 0 0
SMALL
GASTEIGER

@<TRIPOS>ATOM
      1 C          -0.1876   -0.0030    0.7078 C.ar    1  LIG1       -0.0611
      2 C           1.1987    0.1105    0.6518 C.ar    1  LIG1       -0.0530
      3 C          -0.9776    1.0093    0.1644 C.ar    1  LIG1       -0.0607
      4 C           1.8286    1.2179    0.0616 C.ar    1  LIG1       -0.0047
      5 H           1.8237   -0.6641    1.0862 H       1  LIG1        0.0624
      6 C          -0.3787    2.1159   -0.4320 C.ar    1  LIG1       -0.0480
      7 C           1.0169    2.2299   -0.4964 C.ar    1  LIG1        0.0124
      8 H          -1.0033    2.8947   -0.8595 H       1  LIG1        0.0629
      9 H          -2.0609    0.9422    0.2004 H       1  LIG1        0.0618
     10 H          -0.6449   -0.8691    1.1756 H       1  LIG1        0.0618
     11 S           1.7825    3.6275   -1.3225 S.3     1  LIG1       -0.1420
     12 H           0.6327    4.1423   -1.8005 H       1  LIG1        0.1071
     13 C           4.0560    0.2032   -0.4973 C.ar    1  LIG1       -0.0534
     14 C           5.4454    0.2427   -0.4876 C.ar    1  LIG1       -0.0524
     15 C           3.3179    1.2674    0.0396 C.ar    1  LIG1       -0.0158
     16 C           6.1564    1.3260    0.0516 C.ar    1  LIG1       -0.0047
     17 H           6.0089   -0.5743   -0.9281 H       1  LIG1        0.0624
     18 C           4.0145    2.3475    0.5961 C.ar    1  LIG1       -0.0402
     19 C           5.4138    2.3886    0.6114 C.ar    1  LIG1        0.0130
     20 H           3.4507    3.1570    1.0483 H       1  LIG1        0.0635
     21 H           3.5380   -0.6407   -0.9416 H       1  LIG1        0.0624
     22 S           6.2728    3.7542    1.3966 S.3     1  LIG1       -0.1420
     23 H           5.1606    4.3667    1.8468 H       1  LIG1        0.1071
     24 C           8.3417    0.1939    0.5411 C.ar    1  LIG1       -0.0534
     25 C           9.7303    0.1568    0.4852 C.ar    1  LIG1       -0.0524
     26 C           7.6452    1.2952    0.0235 C.ar    1  LIG1       -0.0158
     27 C          10.4803    1.1986   -0.0812 C.ar    1  LIG1       -0.0047
     28 H          10.2631   -0.6887    0.9098 H       1  LIG1        0.0624
     29 C           8.3808    2.3344   -0.5606 C.ar    1  LIG1       -0.0402
     30 C           9.7790    2.2991   -0.6200 C.ar    1  LIG1        0.0130
     31 H           7.8477    3.1720   -0.9981 H       1  LIG1        0.0635
     32 H           7.7938   -0.6190    1.0068 H       1  LIG1        0.0624
     33 S          10.6881    3.6150   -1.4324 S.3     1  LIG1       -0.1420
     34 H           9.5986    4.2925   -1.8437 H       1  LIG1        0.1071
     35 C          12.5825   -0.0354   -0.6704 C.ar    1  LIG1       -0.0539
     36 C          13.9711   -0.1556   -0.6581 C.ar    1  LIG1       -0.0602
     37 C          11.9667    1.0892   -0.1012 C.ar    1  LIG1       -0.0158
     38 C          14.7653    0.8346   -0.0842 C.ar    1  LIG1       -0.0485
     39 H          14.4423   -1.0240   -1.1090 H       1  LIG1        0.0618
     40 C          12.7682    2.0776    0.4893 C.ar    1  LIG1       -0.0408
     41 C          14.1617    1.9578    0.4955 C.ar    1  LIG1        0.0053
     42 H          12.2937    2.9326    0.9595 H       1  LIG1        0.0635
     43 H          15.8468    0.7380   -0.0890 H       1  LIG1        0.0628
     44 H          11.9704   -0.8018   -1.1351 H       1  LIG1        0.0624
     45 S          15.2266    3.1807    1.2505 S.3     1  LIG1       -0.1426
     46 H          14.2749    4.1062    1.4770 H       1  LIG1        0.1071
@<TRIPOS>BOND
     1    34    33    1
     2    12    11    1
     3    33    30    1
     4    11     7    1
     5    44    35    1
     6    39    36    1
     7    31    29    1
     8    21    13    1
     9    17    14    1
    10     8     6    1
    11    35    36   ar
    12    35    37   ar
    13    36    38   ar
    14    30    29   ar
    15    30    27   ar
    16    29    26   ar
    17    13    14   ar
    18    13    15   ar
    19     7     6   ar
    20     7     4   ar
    21    14    16   ar
    22     6     3   ar
    23    37    27    1
    24    37    40   ar
    25    43    38    1
    26    38    41   ar
    27    27    25   ar
    28    26    16    1
    29    26    24   ar
    30    15     4    1
    31    15    18   ar
    32    16    19   ar
    33     4     2   ar
    34     3     9    1
    35     3     1   ar
    36    25    24   ar
    37    25    28    1
    38    40    41   ar
    39    40    42    1
    40    41    45    1
    41    24    32    1
    42    18    19   ar
    43    18    20    1
    44    19    22    1
    45     2     1   ar
    46     2     5    1
    47     1    10    1
    48    45    46    1
    49    22    23    1
