@<TRIPOS>MOLECULE
mol_data/opt/b3lyp/geoms/mol2/4ag4ag-4ag4ag.out
 46 49 0 0 0
SMALL
GASTEIGER

@<TRIPOS>ATOM
      1 C          -0.1861   -0.0125   -0.6964 C.ar    1  LIG1       -0.0611
      2 C           1.2001    0.1021   -0.6393 C.ar    1  LIG1       -0.0530
      3 C          -0.9774    1.0069   -0.1682 C.ar    1  LIG1       -0.0607
      4 C           1.8287    1.2175   -0.0628 C.ar    1  LIG1       -0.0047
      5 H           1.8260   -0.6781   -1.0622 H       1  LIG1        0.0624
      6 C          -0.3798    2.1215    0.4143 C.ar    1  LIG1       -0.0480
      7 C           1.0157    2.2367    0.4799 C.ar    1  LIG1        0.0124
      8 H          -1.0053    2.9059    0.8299 H       1  LIG1        0.0629
      9 H          -2.0606    0.9392   -0.2054 H       1  LIG1        0.0618
     10 H          -0.6423   -0.8849   -1.1534 H       1  LIG1        0.0618
     11 S           1.7790    3.6457    1.2887 S.3     1  LIG1       -0.1420
     12 H           0.6283    4.1652    1.7591 H       1  LIG1        0.1071
     13 C           4.0549    0.2097    0.5125 C.ar    1  LIG1       -0.0534
     14 C           5.4443    0.2489    0.5050 C.ar    1  LIG1       -0.0524
     15 C           3.3179    1.2673   -0.0388 C.ar    1  LIG1       -0.0158
     16 C           6.1565    1.3255   -0.0458 C.ar    1  LIG1       -0.0047
     17 H           6.0069   -0.5628    0.9565 H       1  LIG1        0.0624
     18 C           4.0158    2.3405   -0.6069 C.ar    1  LIG1       -0.0402
     19 C           5.4152    2.3813   -0.6199 C.ar    1  LIG1        0.0130
     20 H           3.4532    3.1445   -1.0701 H       1  LIG1        0.0635
     21 H           3.5360   -0.6287    0.9660 H       1  LIG1        0.0624
     22 S           6.2759    3.7373   -1.4198 S.3     1  LIG1       -0.1420
     23 H           5.1647    4.3445   -1.8793 H       1  LIG1        0.1071
     24 C           8.3428    0.1878   -0.5183 C.ar    1  LIG1       -0.0534
     25 C           9.7312    0.1514   -0.4593 C.ar    1  LIG1       -0.0524
     26 C           7.6453    1.2949   -0.0144 C.ar    1  LIG1       -0.0158
     27 C          10.4802    1.1993    0.0970 C.ar    1  LIG1       -0.0047
     28 H          10.2647   -0.6989   -0.8734 H       1  LIG1        0.0624
     29 C           8.3798    2.3406    0.5595 C.ar    1  LIG1       -0.0402
     30 C           9.7779    2.3057    0.6222 C.ar    1  LIG1        0.0130
     31 H           7.8459    3.1832    0.9862 H       1  LIG1        0.0635
     32 H           7.7957   -0.6302   -0.9759 H       1  LIG1        0.0624
     33 S          10.6855    3.6308    1.4217 S.3     1  LIG1       -0.1420
     34 H           9.5951    4.3101    1.8275 H       1  LIG1        0.1071
     35 C          12.5813   -0.0278    0.7042 C.ar    1  LIG1       -0.0539
     36 C          13.9700   -0.1478    0.6961 C.ar    1  LIG1       -0.0602
     37 C          11.9665    1.0902    0.1212 C.ar    1  LIG1       -0.0158
     38 C          14.7652    0.8362    0.1130 C.ar    1  LIG1       -0.0485
     39 H          14.4405   -1.0110    1.1577 H       1  LIG1        0.0618
     40 C          12.7690    2.0721   -0.4786 C.ar    1  LIG1       -0.0408
     41 C          14.1625    1.9527   -0.4804 C.ar    1  LIG1        0.0053
     42 H          12.2953    2.9217   -0.9595 H       1  LIG1        0.0635
     43 H          15.8467    0.7400    0.1213 H       1  LIG1        0.0628
     44 H          11.9685   -0.7892    1.1761 H       1  LIG1        0.0624
     45 S          15.2286    3.1672   -1.2469 S.3     1  LIG1       -0.1426
     46 H          14.2777    4.0911   -1.4831 H       1  LIG1        0.1071
@<TRIPOS>BOND
     1    23    22    1
     2    46    45    1
     3    22    19    1
     4    45    41    1
     5    10     1    1
     6    20    18    1
     7     5     2    1
     8    32    24    1
     9    42    40    1
    10    28    25    1
    11     1     2   ar
    12     1     3   ar
    13     2     4   ar
    14    19    18   ar
    15    19    16   ar
    16    18    15   ar
    17    24    25   ar
    18    24    26   ar
    19    41    40   ar
    20    41    38   ar
    21    40    37   ar
    22    25    27   ar
    23     9     3    1
    24     3     6   ar
    25     4    15    1
    26     4     7   ar
    27    16    26    1
    28    16    14   ar
    29    15    13   ar
    30    26    29   ar
    31    27    37    1
    32    27    30   ar
    33    38    43    1
    34    38    36   ar
    35    37    35   ar
    36     6     7   ar
    37     6     8    1
    38     7    11    1
    39    14    13   ar
    40    14    17    1
    41    13    21    1
    42    29    30   ar
    43    29    31    1
    44    30    33    1
    45    36    35   ar
    46    36    39    1
    47    35    44    1
    48    11    12    1
    49    33    34    1
