@<TRIPOS>MOLECULE
mol_data/opt/b3lyp/geoms/mol2/4ag4ag-.out
 24 25 0 0 0
SMALL
GASTEIGER

@<TRIPOS>ATOM
      1 C           0.0122    0.1176   -0.7451 C.ar    1  LIG1       -0.0611
      2 C           1.3978    0.1506   -0.6143 C.ar    1  LIG1       -0.0530
      3 C          -0.7422    1.1988   -0.2911 C.ar    1  LIG1       -0.0607
      4 C           2.0618    1.2441   -0.0359 C.ar    1  LIG1       -0.0047
      5 H           1.9966   -0.6789   -0.9784 H       1  LIG1        0.0624
      6 C          -0.1092    2.2940    0.2912 C.ar    1  LIG1       -0.0480
      7 C           1.2852    2.3274    0.4302 C.ar    1  LIG1        0.0124
      8 H          -0.7066    3.1276    0.6486 H       1  LIG1        0.0629
      9 H          -1.8239    1.1948   -0.3865 H       1  LIG1        0.0618
     10 H          -0.4717   -0.7401   -1.2016 H       1  LIG1        0.0618
     11 S           2.0911    3.7146    1.2358 S.3     1  LIG1       -0.1420
     12 H           0.9513    4.3226    1.6187 H       1  LIG1        0.1071
     13 C           4.1817    0.1304    0.7117 C.ar    1  LIG1       -0.0539
     14 C           5.5727    0.0768    0.7824 C.ar    1  LIG1       -0.0602
     15 C           3.5487    1.2060    0.0713 C.ar    1  LIG1       -0.0158
     16 C           6.3525    1.0869    0.2235 C.ar    1  LIG1       -0.0485
     17 H           6.0565   -0.7538    1.2881 H       1  LIG1        0.0618
     18 C           4.3370    2.2127   -0.5058 C.ar    1  LIG1       -0.0408
     19 C           5.7326    2.1614   -0.4266 C.ar    1  LIG1        0.0053
     20 H           3.8523    3.0280   -1.0332 H       1  LIG1        0.0635
     21 H           7.4351    1.0441    0.2954 H       1  LIG1        0.0628
     22 H           3.5795   -0.6497    1.1663 H       1  LIG1        0.0624
     23 S           6.7813    3.4106   -1.1608 S.3     1  LIG1       -0.1426
     24 H           5.8078    4.3019   -1.4283 H       1  LIG1        0.1071
@<TRIPOS>BOND
     1    24    23    1
     2    10     1    1
     3    23    19    1
     4    20    18    1
     5     5     2    1
     6     1     2   ar
     7     1     3   ar
     8     2     4   ar
     9    18    19   ar
    10    18    15   ar
    11    19    16   ar
    12     9     3    1
    13     3     6   ar
    14     4    15    1
    15     4     7   ar
    16    15    13   ar
    17    16    21    1
    18    16    14   ar
    19     6     7   ar
    20     6     8    1
    21     7    11    1
    22    13    14   ar
    23    13    22    1
    24    14    17    1
    25    11    12    1
