@<TRIPOS>MOLECULE
mol_data/opt/b3lyp/geoms/mol2/4ag4ag4ag4ag.out
 46 49 0 0 0
SMALL
GASTEIGER

@<TRIPOS>ATOM
      1 C          -0.0844    1.0014    1.7679 C.ar    1  LIG1       -0.0611
      2 C           1.2915    1.0547    1.5633 C.ar    1  LIG1       -0.0530
      3 C          -0.9432    1.1925    0.6861 C.ar    1  LIG1       -0.0607
      4 C           1.8435    1.2954    0.2948 C.ar    1  LIG1       -0.0047
      5 H           1.9694    0.9225    2.4013 H       1  LIG1        0.0624
      6 C          -0.4222    1.4275   -0.5836 C.ar    1  LIG1       -0.0480
      7 C           0.9628    1.4746   -0.7945 C.ar    1  LIG1        0.0124
      8 H          -1.0997    1.5669   -1.4208 H       1  LIG1        0.0629
      9 H          -2.0197    1.1582    0.8244 H       1  LIG1        0.0618
     10 H          -0.4807    0.8182    2.7616 H       1  LIG1        0.0618
     11 S           1.6285    1.7132   -2.4445 S.3     1  LIG1       -0.1420
     12 H           0.4416    1.6331   -3.0769 H       1  LIG1        0.1071
     13 C           4.1099    0.2598    0.5991 C.ar    1  LIG1       -0.0534
     14 C           5.4952    0.3184    0.5014 C.ar    1  LIG1       -0.0524
     15 C           3.3266    1.3344    0.1545 C.ar    1  LIG1       -0.0158
     16 C           6.1577    1.4331   -0.0358 C.ar    1  LIG1       -0.0047
     17 H           6.0945   -0.5147    0.8564 H       1  LIG1        0.0624
     18 C           3.9747    2.4550   -0.3795 C.ar    1  LIG1       -0.0402
     19 C           5.3694    2.5122   -0.4912 C.ar    1  LIG1        0.0130
     20 H           3.3774    3.3001   -0.7057 H       1  LIG1        0.0635
     21 H           3.6296   -0.6221    1.0106 H       1  LIG1        0.0624
     22 S           6.1590    3.9380   -1.2421 S.3     1  LIG1       -0.1420
     23 H           5.0180    4.4987   -1.6876 H       1  LIG1        0.1071
     24 C           8.3132    0.3562   -0.7364 C.ar    1  LIG1       -0.0534
     25 C           9.7025    0.3293   -0.7708 C.ar    1  LIG1       -0.0524
     26 C           7.6450    1.4187   -0.1114 C.ar    1  LIG1       -0.0158
     27 C          10.4819    1.3434   -0.1930 C.ar    1  LIG1       -0.0047
     28 H          10.2123   -0.5011   -1.2501 H       1  LIG1        0.0624
     29 C           8.4105    2.4349    0.4740 C.ar    1  LIG1       -0.0402
     30 C           9.8100    2.4165    0.4308 C.ar    1  LIG1        0.0130
     31 H           7.9024    3.2495    0.9797 H       1  LIG1        0.0635
     32 H           7.7412   -0.4390   -1.2037 H       1  LIG1        0.0624
     33 S          10.7556    3.7677    1.1380 S.3     1  LIG1       -0.1420
     34 H           9.6944    4.5678    1.3586 H       1  LIG1        0.1071
     35 C          12.5924    1.0831   -1.5213 C.ar    1  LIG1       -0.0539
     36 C          13.9786    0.9598   -1.5982 C.ar    1  LIG1       -0.0602
     37 C          11.9666    1.2474   -0.2765 C.ar    1  LIG1       -0.0158
     38 C          14.7611    1.0002   -0.4462 C.ar    1  LIG1       -0.0485
     39 H          14.4577    0.8431   -2.5658 H       1  LIG1        0.0618
     40 C          12.7558    1.2704    0.8832 C.ar    1  LIG1       -0.0408
     41 C          14.1474    1.1548    0.8031 C.ar    1  LIG1        0.0053
     42 H          12.2734    1.3596    1.8512 H       1  LIG1        0.0635
     43 H          15.8414    0.9171   -0.5168 H       1  LIG1        0.0628
     44 H          11.9907    1.0717   -2.4245 H       1  LIG1        0.0624
     45 S          15.1955    1.1611    2.2528 S.3     1  LIG1       -0.1426
     46 H          14.2545    1.5579    3.1308 H       1  LIG1        0.1071
@<TRIPOS>BOND
     1    12    11    1
     2    39    36    1
     3    11     7    1
     4    44    35    1
     5    23    22    1
     6    36    35   ar
     7    36    38   ar
     8    35    37   ar
     9     8     6    1
    10    28    25    1
    11    22    19    1
    12    32    24    1
    13     7     6   ar
    14     7     4   ar
    15    25    24   ar
    16    25    27   ar
    17    24    26   ar
    18    20    18    1
    19     6     3   ar
    20    43    38    1
    21    19    18   ar
    22    19    16   ar
    23    38    41   ar
    24    18    15   ar
    25    37    27    1
    26    37    40   ar
    27    27    30   ar
    28    26    16    1
    29    26    29   ar
    30    16    14   ar
    31    15     4    1
    32    15    13   ar
    33     4     2   ar
    34    30    29   ar
    35    30    33    1
    36    29    31    1
    37    14    13   ar
    38    14    17    1
    39    13    21    1
    40     3     9    1
    41     3     1   ar
    42    41    40   ar
    43    41    45    1
    44    40    42    1
    45    33    34    1
    46     2     1   ar
    47     2     5    1
    48     1    10    1
    49    45    46    1
