@<TRIPOS>MOLECULE
mol_data/opt/b3lyp/geoms/mol2/4ah12ee4ii-13hd-.out
 52 55 0 0 0
SMALL
GASTEIGER

@<TRIPOS>ATOM
      1 C          -0.1338    0.0158   -0.4439 C.ar    1  LIG1       -0.0610
      2 C           1.2470    0.1046   -0.5482 C.ar    1  LIG1       -0.0493
      3 C          -0.8194    0.9662    0.3187 C.ar    1  LIG1       -0.0600
      4 C           1.9819    1.1196    0.0964 C.ar    1  LIG1        0.0391
      5 H           1.7865   -0.6196   -1.1471 H       1  LIG1        0.0625
      6 C          -0.1239    1.9811    0.9598 C.ar    1  LIG1       -0.0404
      7 C           1.2779    2.0867    0.8727 C.ar    1  LIG1        0.0354
      8 H          -0.6612    2.7156    1.5551 H       1  LIG1        0.0636
      9 H          -1.9008    0.9201    0.4101 H       1  LIG1        0.0618
     10 H          -0.6695   -0.7759   -0.9568 H       1  LIG1        0.0618
     11 N           1.9201    3.0774    1.5967 N.pl3   1  LIG1       -0.3574
     12 H           2.8344    3.3619    1.2829 H       1  LIG1        0.1423
     13 H           1.3338    3.8325    1.9186 H       1  LIG1        0.1423
     14 C           3.4335    1.1238   -0.0476 C.ar    1  LIG1        0.1540
     15 C           4.3679    0.1376   -0.3054 C.ar    1  LIG1        0.0864
     16 C           5.6645    0.7950   -0.3543 C.ar    1  LIG1        0.0864
     17 C           5.4425    2.1303   -0.1009 C.ar    1  LIG1        0.1525
     18 O           4.0915    2.3236    0.0683 O.2     1  LIG1       -0.4522
     19 C           4.1624   -1.2523   -0.4748 C.1     1  LIG1       -0.0646
     20 C           4.0261   -2.4459   -0.6240 C.1     1  LIG1       -0.1138
     21 H           3.9033   -3.4974   -0.7421 H       1  LIG1        0.1232
     22 C           6.8836    0.1598   -0.6931 C.1     1  LIG1       -0.0646
     23 C           7.9053   -0.4109   -1.0017 C.1     1  LIG1       -0.1138
     24 H           8.8005   -0.9144   -1.2845 H       1  LIG1        0.1232
     25 C           7.4787    3.4301    0.6644 C.ar    1  LIG1       -0.0391
     26 C           8.1716    4.6411    0.6184 C.ar    1  LIG1       -0.0487
     27 C           6.2677    3.3392   -0.0588 C.ar    1  LIG1        0.0217
     28 C           7.7286    5.7680   -0.0997 C.ar    1  LIG1        0.0033
     29 H           9.0830    4.7327    1.2016 H       1  LIG1        0.0627
     30 C           5.8065    4.4696   -0.7568 C.ar    1  LIG1       -0.0472
     31 C           6.5013    5.6759   -0.8053 C.ar    1  LIG1       -0.0406
     32 H           4.8769    4.3836   -1.3121 H       1  LIG1        0.0627
     33 C           8.0093    2.3070    1.5208 C.3     1  LIG1       -0.0390
     34 H           8.7355    2.6871    2.2440 H       1  LIG1        0.0278
     35 H           8.4994    1.5353    0.9196 H       1  LIG1        0.0278
     36 H           7.2045    1.8102    2.0710 H       1  LIG1        0.0278
     37 C           5.9401    6.8072   -1.6387 C.3     1  LIG1       -0.0391
     38 H           5.2203    6.4243   -2.3668 H       1  LIG1        0.0278
     39 H           6.7246    7.3367   -2.1869 H       1  LIG1        0.0278
     40 H           5.3999    7.5495   -1.0339 H       1  LIG1        0.0278
     41 C           8.5698    6.9674   -0.0821 C.ar    1  LIG1        0.0690
     42 C           9.9594    7.0825   -0.0754 C.ar    1  LIG1        0.0678
     43 C          10.2741    8.4821   -0.0183 C.ar    1  LIG1        0.0902
     44 C           9.0713    9.1801    0.0197 C.ar    1  LIG1        0.0215
     45 N           8.0704    8.2719   -0.0316 N.ar    1  LIG1       -0.3580
     46 H           7.0921    8.4955    0.0427 H       1  LIG1        0.1654
     47 H           8.8886   10.2419    0.0732 H       1  LIG1        0.0820
     48 N          10.9029    6.0595   -0.0813 N.pl3   1  LIG1       -0.3553
     49 H          10.5951    5.2128   -0.5431 H       1  LIG1        0.1424
     50 H          11.8149    6.3528   -0.4105 H       1  LIG1        0.1424
     51 N          12.6746    9.4297   -0.0525 N.1     1  LIG1       -0.1908
     52 C          11.5804    9.0283   -0.0301 C.1     1  LIG1        0.1025
@<TRIPOS>BOND
     1    38    37    1
     2    39    37    1
     3    37    40    1
     4    37    31    1
     5    32    30    1
     6    24    23    1
     7     5     2    1
     8    23    22    3
     9    10     1    1
    10    31    30   ar
    11    31    28   ar
    12    30    27   ar
    13    21    20    1
    14    22    16    1
    15    20    19    3
    16     2     1   ar
    17     2     4   ar
    18    49    48    1
    19    19    15    1
    20     1     3   ar
    21    50    48    1
    22    16    15   ar
    23    16    17   ar
    24    15    14   ar
    25    17    27    1
    26    17    18   ar
    27    28    41    1
    28    28    26   ar
    29    41    42   ar
    30    41    45   ar
    31    48    42    1
    32    42    43   ar
    33    27    25   ar
    34    51    52    3
    35    14    18   ar
    36    14     4    1
    37    45    44   ar
    38    45    46    1
    39    52    43    1
    40    43    44   ar
    41    44    47    1
    42     4     7   ar
    43     3     9    1
    44     3     6   ar
    45    26    25   ar
    46    26    29    1
    47    25    33    1
    48     7     6   ar
    49     7    11    1
    50    35    33    1
    51     6     8    1
    52    12    11    1
    53    33    36    1
    54    33    34    1
    55    11    13    1
