@<TRIPOS>MOLECULE
mol_data/opt/b3lyp/geoms/mol2/4ah12ha6ih-12ah.out
 46 49 0 0 0
SMALL
GASTEIGER

@<TRIPOS>ATOM
      1 C          -0.0552   -0.2767    0.5268 C.ar    1  LIG1       -0.0610
      2 C           1.3125   -0.0356    0.6025 C.ar    1  LIG1       -0.0492
      3 C          -0.8667    0.6285   -0.1602 C.ar    1  LIG1       -0.0600
      4 C           1.9128    1.0840   -0.0093 C.ar    1  LIG1        0.0397
      5 H           1.9426   -0.7105    1.1736 H       1  LIG1        0.0625
      6 C          -0.3084    1.7580   -0.7472 C.ar    1  LIG1       -0.0404
      7 C           1.0727    2.0155   -0.6872 C.ar    1  LIG1        0.0354
      8 H          -0.9452    2.4701   -1.2669 H       1  LIG1        0.0636
      9 H          -1.9377    0.4628   -0.2317 H       1  LIG1        0.0618
     10 H          -0.4826   -1.1485    1.0117 H       1  LIG1        0.0618
     11 N           1.5667    3.1799   -1.2578 N.pl3   1  LIG1       -0.3574
     12 H           2.5645    3.2434   -1.3859 H       1  LIG1        0.1423
     13 H           1.0171    3.5726   -2.0071 H       1  LIG1        0.1423
     14 C           3.3630    1.2145    0.0381 C.ar    1  LIG1        0.1579
     15 C           4.3855    0.2845    0.1046 C.ar    1  LIG1        0.0716
     16 C           5.6079    1.0188    0.1391 C.ar    1  LIG1        0.0056
     17 C           5.2858    2.3527    0.0785 C.ar    1  LIG1        0.1393
     18 O           3.9271    2.4796    0.0189 O.2     1  LIG1       -0.4528
     19 N           4.2743   -1.1092    0.1761 N.pl3   1  LIG1       -0.3550
     20 H           3.4181   -1.4596   -0.2383 H       1  LIG1        0.1424
     21 H           5.0746   -1.5851   -0.2225 H       1  LIG1        0.1424
     22 H           6.6017    0.6034    0.2288 H       1  LIG1        0.0674
     23 C           5.6755    4.8395    0.4637 C.ar    1  LIG1        0.0498
     24 C           6.1089    3.5540    0.0375 C.ar    1  LIG1        0.0401
     25 C           7.4197    3.4416   -0.4453 C.ar    1  LIG1       -0.0265
     26 C           8.2801    4.5373   -0.4845 C.ar    1  LIG1        0.0546
     27 C           7.7632    5.7733   -0.0174 C.ar    1  LIG1        0.1268
     28 N           6.4989    5.8874    0.4197 N.ar    1  LIG1       -0.2462
     29 H           7.7669    2.4847   -0.8265 H       1  LIG1        0.0644
     30 C           4.3009    5.1176    1.0246 C.3     1  LIG1       -0.0216
     31 H           4.0437    4.4194    1.8273 H       1  LIG1        0.0293
     32 H           3.5130    5.0221    0.2705 H       1  LIG1        0.0293
     33 H           4.2925    6.1358    1.4155 H       1  LIG1        0.0293
     34 N           9.5908    4.4046   -0.9508 N.pl3   1  LIG1       -0.3562
     35 H           9.7361    3.5847   -1.5266 H       1  LIG1        0.1424
     36 H           9.9518    5.2399   -1.3973 H       1  LIG1        0.1424
     37 C           8.5745    6.9897    0.0031 C.ar    1  LIG1        0.1565
     38 C           9.9307    7.2238    0.0772 C.ar    1  LIG1        0.0065
     39 C          10.1063    8.6454    0.1035 C.ar    1  LIG1        0.0635
     40 C           8.8458    9.1744    0.0343 C.ar    1  LIG1        0.1132
     41 O           7.9100    8.1775   -0.0189 O.2     1  LIG1       -0.4595
     42 H           8.4658   10.1835    0.0244 H       1  LIG1        0.1049
     43 H          10.7039    6.4784    0.1920 H       1  LIG1        0.0674
     44 N          11.3287    9.3143    0.2614 N.pl3   1  LIG1       -0.3555
     45 H          12.0852    8.8789   -0.2525 H       1  LIG1        0.1424
     46 H          11.2787   10.2974    0.0236 H       1  LIG1        0.1424
@<TRIPOS>BOND
     1    13    11    1
     2    35    34    1
     3    36    34    1
     4    12    11    1
     5     8     6    1
     6    11     7    1
     7    34    26    1
     8    29    25    1
     9     6     7   ar
    10     6     3   ar
    11     7     4   ar
    12    26    25   ar
    13    26    27   ar
    14    25    24   ar
    15    45    44    1
    16    20    19    1
    17     9     3    1
    18    21    19    1
    19     3     1   ar
    20    41    37   ar
    21    41    40   ar
    22    27    37    1
    23    27    28   ar
    24     4    14    1
    25     4     2   ar
    26    37    38   ar
    27    18    14   ar
    28    18    17   ar
    29    46    44    1
    30    42    40    1
    31    40    39   ar
    32    24    17    1
    33    24    23   ar
    34    14    15   ar
    35    38    39   ar
    36    38    43    1
    37    17    16   ar
    38    39    44    1
    39    15    16   ar
    40    15    19    1
    41    16    22    1
    42    32    30    1
    43    28    23   ar
    44    23    30    1
    45     1     2   ar
    46     1    10    1
    47     2     5    1
    48    30    33    1
    49    30    31    1
