@<TRIPOS>MOLECULE
mol_data/opt/b3lyp/geoms/mol2/4ai.out
 15 15 0 0 0
SMALL
GASTEIGER

@<TRIPOS>ATOM
      1 C           0.0245   -0.0276   -0.0094 C.ar    1  LIG1       -0.0617
      2 C           1.4200   -0.0479   -0.0023 C.ar    1  LIG1       -0.0615
      3 C          -0.6437    1.1976   -0.0019 C.ar    1  LIG1       -0.0615
      4 C           2.1385    1.1480    0.0107 C.ar    1  LIG1       -0.0588
      5 H           1.9509   -0.9958   -0.0026 H       1  LIG1        0.0618
      6 C           0.0797    2.3906    0.0111 C.ar    1  LIG1       -0.0588
      7 C           1.4809    2.3853    0.0144 C.ar    1  LIG1       -0.0504
      8 H          -0.4495    3.3405    0.0208 H       1  LIG1        0.0620
      9 H           3.2256    1.1224    0.0200 H       1  LIG1        0.0620
     10 H          -1.7298    1.2257   -0.0019 H       1  LIG1        0.0618
     11 H          -0.5365   -0.9576   -0.0162 H       1  LIG1        0.0618
     12 C           2.2615    3.6789   -0.0038 C.3     1  LIG1       -0.0397
     13 H           1.7137    4.4846    0.4941 H       1  LIG1        0.0278
     14 H           2.4602    4.0083   -1.0315 H       1  LIG1        0.0278
     15 H           3.2297    3.5698    0.4940 H       1  LIG1        0.0278
@<TRIPOS>BOND
     1    14    12    1
     2    11     1    1
     3     1     2   ar
     4     1     3   ar
     5    12     7    1
     6    12    15    1
     7    12    13    1
     8     5     2    1
     9     2     4   ar
    10     3    10    1
    11     3     6   ar
    12     4     7   ar
    13     4     9    1
    14     6     7   ar
    15     6     8    1
