@<TRIPOS>MOLECULE
mol_data/opt/b3lyp/geoms/mol2/4ai13ah13eh-13id.out
 49 52 0 0 0
SMALL
GASTEIGER

@<TRIPOS>ATOM
      1 C          -0.0144   -0.1238   -0.4874 C.ar    1  LIG1       -0.0611
      2 C           1.3602   -0.0145   -0.3119 C.ar    1  LIG1       -0.0524
      3 C          -0.8218    1.0005   -0.3158 C.ar    1  LIG1       -0.0615
      4 C           1.9666    1.2057    0.0467 C.ar    1  LIG1        0.0013
      5 H           1.9952   -0.8798   -0.4726 H       1  LIG1        0.0624
      6 C          -0.2364    2.2136    0.0410 C.ar    1  LIG1       -0.0582
      7 C           1.1445    2.3469    0.2323 C.ar    1  LIG1       -0.0413
      8 H          -0.8676    3.0859    0.1918 H       1  LIG1        0.0620
      9 H          -1.8969    0.9349   -0.4533 H       1  LIG1        0.0618
     10 H          -0.4502   -1.0784   -0.7669 H       1  LIG1        0.0618
     11 C           1.6874    3.6926    0.6619 C.3     1  LIG1       -0.0391
     12 H           0.8886    4.3061    1.0871 H       1  LIG1        0.0278
     13 H           2.1047    4.2623   -0.1799 H       1  LIG1        0.0278
     14 H           2.4783    3.5920    1.4100 H       1  LIG1        0.0278
     15 C           3.4224    1.2080    0.2331 C.ar    1  LIG1        0.0490
     16 C           4.2451    0.1945    0.7044 C.ar    1  LIG1       -0.0150
     17 C           5.5970    0.6272    0.6194 C.ar    1  LIG1        0.0523
     18 C           5.5815    1.9196    0.0786 C.ar    1  LIG1        0.0855
     19 N           4.2380    2.2687   -0.0987 N.ar    1  LIG1       -0.3515
     20 H           3.9589    2.9789   -0.7583 H       1  LIG1        0.1660
     21 H           3.9068   -0.7385    1.1337 H       1  LIG1        0.0657
     22 N           6.6928   -0.0592    1.1289 N.pl3   1  LIG1       -0.3563
     23 H           6.5285   -1.0507    1.2400 H       1  LIG1        0.1424
     24 H           7.5698    0.1168    0.6519 H       1  LIG1        0.1424
     25 C           6.6166    2.8831   -0.1729 C.ar    1  LIG1        0.0826
     26 C           7.9682    2.7441   -0.5210 C.ar    1  LIG1        0.0727
     27 C           8.5355    4.0670   -0.6012 C.ar    1  LIG1        0.0679
     28 C           7.5322    4.9753   -0.3169 C.ar    1  LIG1        0.0858
     29 N           6.3504    4.2360   -0.1063 N.ar    1  LIG1       -0.3494
     30 H           5.6213    4.5808    0.5030 H       1  LIG1        0.1661
     31 C           8.6598    1.5635   -0.8716 C.1     1  LIG1       -0.0656
     32 C           9.2948    0.5744   -1.1784 C.1     1  LIG1       -0.1138
     33 H           9.8352   -0.2911   -1.4844 H       1  LIG1        0.1232
     34 N           9.8608    4.3339   -0.9231 N.pl3   1  LIG1       -0.3553
     35 H          10.3033    3.5893   -1.4479 H       1  LIG1        0.1424
     36 H          10.0073    5.2386   -1.3527 H       1  LIG1        0.1424
     37 C           7.5356    6.4238   -0.3198 C.ar    1  LIG1        0.0689
     38 C           8.4187    7.3428    0.2303 C.ar    1  LIG1       -0.0064
     39 C           7.9136    8.6469   -0.1086 C.ar    1  LIG1        0.0725
     40 C           6.7421    8.4836   -0.8326 C.ar    1  LIG1        0.0199
     41 N           6.5229    7.1449   -0.9491 N.ar    1  LIG1       -0.3581
     42 H           5.7962    6.7197   -1.5028 H       1  LIG1        0.1654
     43 H           6.0719    9.2188   -1.2502 H       1  LIG1        0.0820
     44 C           9.6277    7.0528    1.0668 C.3     1  LIG1       -0.0364
     45 H           9.6697    7.7207    1.9331 H       1  LIG1        0.0279
     46 H          10.5613    7.1973    0.5095 H       1  LIG1        0.0279
     47 H           9.6152    6.0202    1.4220 H       1  LIG1        0.0279
     48 N           8.9760   10.9033    0.5701 N.1     1  LIG1       -0.1908
     49 C           8.4896    9.8913    0.2597 C.1     1  LIG1        0.1009
@<TRIPOS>BOND
     1    42    41    1
     2    33    32    1
     3    35    34    1
     4    36    34    1
     5    43    40    1
     6    32    31    3
     7    41    40   ar
     8    41    37   ar
     9    34    27    1
    10    31    26    1
    11    40    39   ar
    12    10     1    1
    13    20    19    1
    14    27    26   ar
    15    27    28   ar
    16    26    25   ar
    17     1     3   ar
    18     1     2   ar
    19     5     2    1
    20     9     3    1
    21    37    28    1
    22    37    38   ar
    23    28    29   ar
    24     3     6   ar
    25     2     4   ar
    26    13    11    1
    27    25    29   ar
    28    25    18    1
    29    39    38   ar
    30    39    49    1
    31    29    30    1
    32    19    18   ar
    33    19    15   ar
    34     6     8    1
    35     6     7   ar
    36     4     7   ar
    37     4    15    1
    38    18    17   ar
    39    38    44    1
    40     7    11    1
    41    15    16   ar
    42    49    48    3
    43    46    44    1
    44    17    16   ar
    45    17    22    1
    46    24    22    1
    47    11    12    1
    48    11    14    1
    49    16    21    1
    50    44    47    1
    51    44    45    1
    52    22    23    1
