@<TRIPOS>MOLECULE
mol_data/opt/b3lyp/geoms/mol2/4ai12ll6hi-6al-.out
 57 60 0 0 0
SMALL
GASTEIGER

@<TRIPOS>ATOM
      1 C          -0.2758    0.0199   -1.3405 C.ar    1  LIG1       -0.0611
      2 C           1.0880    0.1194   -1.0872 C.ar    1  LIG1       -0.0507
      3 C          -1.1328    1.0299   -0.9049 C.ar    1  LIG1       -0.0615
      4 C           1.6220    1.2187   -0.3871 C.ar    1  LIG1        0.0240
      5 H           1.7623   -0.6568   -1.4311 H       1  LIG1        0.0625
      6 C          -0.6137    2.1160   -0.2014 C.ar    1  LIG1       -0.0582
      7 C           0.7518    2.2366    0.0828 C.ar    1  LIG1       -0.0397
      8 H          -1.2869    2.8913    0.1552 H       1  LIG1        0.0620
      9 H          -2.1992    0.9711   -1.1023 H       1  LIG1        0.0618
     10 H          -0.6635   -0.8360   -1.8850 H       1  LIG1        0.0618
     11 C           1.2267    3.4089    0.9116 C.3     1  LIG1       -0.0390
     12 H           0.3711    3.9398    1.3372 H       1  LIG1        0.0278
     13 H           1.8156    4.1287    0.3352 H       1  LIG1        0.0278
     14 H           1.8675    3.0820    1.7367 H       1  LIG1        0.0278
     15 C           3.0651    1.2418   -0.1623 C.ar    1  LIG1        0.1812
     16 C           4.0032    0.2529    0.0213 C.ar    1  LIG1        0.2085
     17 C           5.2776    0.8923    0.1573 C.ar    1  LIG1        0.2086
     18 C           5.0680    2.2507    0.0494 C.ar    1  LIG1        0.1842
     19 O           3.7196    2.4528   -0.1472 O.2     1  LIG1       -0.4471
     20 O           3.7724   -1.0939    0.0361 O.3     1  LIG1       -0.4884
     21 C           3.9917   -1.7109    1.3145 C.3     1  LIG1        0.0791
     22 H           3.8111   -2.7779    1.1739 H       1  LIG1        0.0660
     23 H           5.0187   -1.5504    1.6585 H       1  LIG1        0.0660
     24 H           3.2915   -1.3148    2.0588 H       1  LIG1        0.0660
     25 O           6.4710    0.2659    0.3909 O.3     1  LIG1       -0.4884
     26 C           6.9166   -0.5649   -0.6938 C.3     1  LIG1        0.0791
     27 H           7.8417   -1.0362   -0.3575 H       1  LIG1        0.0660
     28 H           6.1736   -1.3324   -0.9313 H       1  LIG1        0.0660
     29 H           7.1149    0.0393   -1.5865 H       1  LIG1        0.0660
     30 C           5.6013    4.7090   -0.3481 C.ar    1  LIG1        0.1277
     31 C           5.9526    3.4016    0.1069 C.ar    1  LIG1        0.0608
     32 C           7.2465    3.2603    0.6229 C.ar    1  LIG1       -0.0427
     33 C           8.1614    4.3138    0.6691 C.ar    1  LIG1       -0.0236
     34 C           7.7179    5.5514    0.1550 C.ar    1  LIG1        0.0776
     35 N           6.4721    5.7216   -0.3184 N.ar    1  LIG1       -0.2314
     36 H           7.5392    2.2903    1.0108 H       1  LIG1        0.0629
     37 N           4.3493    5.0302   -0.8194 N.pl3   1  LIG1       -0.3426
     38 H           4.3095    5.9092   -1.3137 H       1  LIG1        0.1437
     39 H           3.7463    4.2878   -1.1347 H       1  LIG1        0.1437
     40 C           9.5163    4.0822    1.3002 C.3     1  LIG1       -0.0377
     41 H           9.8782    4.9668    1.8302 H       1  LIG1        0.0278
     42 H          10.2824    3.8078    0.5636 H       1  LIG1        0.0278
     43 H           9.4601    3.2593    2.0190 H       1  LIG1        0.0278
     44 C           7.9751    8.0205    0.4317 C.ar    1  LIG1        0.0370
     45 C           8.5551    6.7827    0.1183 C.ar    1  LIG1        0.0222
     46 C           9.9076    6.7737   -0.2574 C.ar    1  LIG1       -0.0078
     47 C          10.6068    7.9808   -0.2892 C.ar    1  LIG1        0.1387
     48 C           9.9276    9.1581    0.0606 C.ar    1  LIG1        0.0692
     49 N           8.6432    9.1801    0.4115 N.ar    1  LIG1       -0.2590
     50 H          10.3847    5.8463   -0.5461 H       1  LIG1        0.0662
     51 H          10.4668   10.1029    0.0402 H       1  LIG1        0.0867
     52 H           6.9263    8.0613    0.7088 H       1  LIG1        0.0836
     53 O          11.9154    8.1266   -0.6450 O.3     1  LIG1       -0.4936
     54 C          12.6409    6.9645   -1.0148 C.3     1  LIG1        0.0789
     55 H          13.6510    7.3020   -1.2507 H       1  LIG1        0.0660
     56 H          12.6866    6.2368   -0.1942 H       1  LIG1        0.0660
     57 H          12.2071    6.4803   -1.8992 H       1  LIG1        0.0660
@<TRIPOS>BOND
     1    57    54    1
     2    10     1    1
     3    29    26    1
     4     5     2    1
     5     1     2   ar
     6     1     3   ar
     7    38    37    1
     8    55    54    1
     9    39    37    1
    10     9     3    1
    11     2     4   ar
    12    54    53    1
    13    54    56    1
    14    28    26    1
    15     3     6   ar
    16    37    30    1
    17    26    27    1
    18    26    25    1
    19    53    47    1
    20    50    46    1
    21     4    15    1
    22     4     7   ar
    23    30    35   ar
    24    30    31   ar
    25    35    34   ar
    26    47    46   ar
    27    47    48   ar
    28    46    45   ar
    29     6     7   ar
    30     6     8    1
    31    15    19   ar
    32    15    16   ar
    33    19    18   ar
    34    16    20    1
    35    16    17   ar
    36    20    21    1
    37    51    48    1
    38    18    31    1
    39    18    17   ar
    40    48    49   ar
    41     7    11    1
    42    31    32   ar
    43    45    34    1
    44    45    44   ar
    45    34    33   ar
    46    17    25    1
    47    13    11    1
    48    49    44   ar
    49    44    52    1
    50    42    40    1
    51    32    33   ar
    52    32    36    1
    53    33    40    1
    54    11    12    1
    55    11    14    1
    56    22    21    1
    57    40    41    1
    58    40    43    1
    59    21    23    1
    60    21    24    1
