@<TRIPOS>MOLECULE
mol_data/opt/b3lyp/geoms/mol2/4ai13eh-4il-12ff.out
 53 56 0 0 0
SMALL
GASTEIGER

@<TRIPOS>ATOM
      1 C          -0.2016    0.6681   -0.5925 C.ar    1  LIG1       -0.0611
      2 C           1.1781    0.6714   -0.7659 C.ar    1  LIG1       -0.0523
      3 C          -0.7605    1.3221    0.5049 C.ar    1  LIG1       -0.0615
      4 C           2.0332    1.3173    0.1473 C.ar    1  LIG1        0.0025
      5 H           1.6149    0.1723   -1.6235 H       1  LIG1        0.0624
      6 C           0.0751    1.9569    1.4213 C.ar    1  LIG1       -0.0582
      7 C           1.4677    1.9674    1.2738 C.ar    1  LIG1       -0.0413
      8 H          -0.3592    2.4483    2.2885 H       1  LIG1        0.0620
      9 H          -1.8364    1.3313    0.6532 H       1  LIG1        0.0618
     10 H          -0.8358    0.1635   -1.3154 H       1  LIG1        0.0618
     11 C           2.3018    2.6409    2.3428 C.3     1  LIG1       -0.0391
     12 H           1.7399    2.7027    3.2786 H       1  LIG1        0.0278
     13 H           2.5721    3.6723    2.0771 H       1  LIG1        0.0278
     14 H           3.2303    2.0989    2.5403 H       1  LIG1        0.0278
     15 C           3.4792    1.2722   -0.1139 C.ar    1  LIG1        0.0646
     16 C           4.2777    0.2285   -0.6135 C.ar    1  LIG1        0.0711
     17 C           5.6253    0.7136   -0.6969 C.ar    1  LIG1        0.0664
     18 C           5.6328    2.0293   -0.2508 C.ar    1  LIG1        0.0694
     19 N           4.3162    2.3354    0.0774 N.ar    1  LIG1       -0.3517
     20 H           4.0298    3.2360    0.4242 H       1  LIG1        0.1660
     21 C           3.8912   -1.0826   -0.9814 C.1     1  LIG1       -0.0657
     22 C           3.6350   -2.2155   -1.3320 C.1     1  LIG1       -0.1138
     23 H           3.3851   -3.2140   -1.6048 H       1  LIG1        0.1232
     24 N           6.7134   -0.0418   -1.1482 N.pl3   1  LIG1       -0.3554
     25 H           6.4125   -0.8647   -1.6588 H       1  LIG1        0.1424
     26 H           7.3728    0.4972   -1.6975 H       1  LIG1        0.1424
     27 C           7.9239    2.8393    0.4658 C.ar    1  LIG1       -0.0404
     28 C           8.8640    3.8696    0.4654 C.ar    1  LIG1       -0.0439
     29 C           6.6878    3.0506   -0.1949 C.ar    1  LIG1        0.0065
     30 C           8.6437    5.1268   -0.1347 C.ar    1  LIG1        0.0629
     31 H           9.8065    3.7045    0.9749 H       1  LIG1        0.0629
     32 C           6.4532    4.3034   -0.7850 C.ar    1  LIG1       -0.0098
     33 C           7.3923    5.3300   -0.7581 C.ar    1  LIG1        0.1315
     34 H           5.5124    4.4960   -1.2931 H       1  LIG1        0.0661
     35 C           8.2156    1.5641    1.2205 C.3     1  LIG1       -0.0391
     36 H           9.1740    1.6353    1.7411 H       1  LIG1        0.0278
     37 H           8.2356    0.6849    0.5684 H       1  LIG1        0.0278
     38 H           7.4363    1.3701    1.9663 H       1  LIG1        0.0278
     39 O           7.0440    6.5479   -1.3050 O.3     1  LIG1       -0.4944
     40 C           7.2531    6.6601   -2.7109 C.3     1  LIG1        0.0788
     41 H           6.8792    7.6442   -3.0020 H       1  LIG1        0.0660
     42 H           8.3177    6.5910   -2.9613 H       1  LIG1        0.0660
     43 H           6.6998    5.8871   -3.2606 H       1  LIG1        0.0660
     44 C           9.6846    6.1402   -0.0465 C.ar    1  LIG1        0.1833
     45 C          10.8097    6.2429    0.7423 C.ar    1  LIG1        0.2052
     46 C          11.4740    7.4519    0.3781 C.ar    1  LIG1        0.1976
     47 C          10.7329    8.0238   -0.6120 C.ar    1  LIG1        0.1377
     48 O           9.6473    7.2400   -0.8767 O.2     1  LIG1       -0.4553
     49 H          10.8296    8.9291   -1.1896 H       1  LIG1        0.1069
     50 O          11.2351    5.3795    1.7061 O.3     1  LIG1       -0.5008
     51 H          12.0275    5.7633    2.1090 H       1  LIG1        0.2924
     52 O          12.6306    7.8205    1.0074 O.3     1  LIG1       -0.5012
     53 H          12.9029    8.6972    0.7097 H       1  LIG1        0.2924
@<TRIPOS>BOND
     1    43    40    1
     2    41    40    1
     3    42    40    1
     4    40    39    1
     5    26    24    1
     6    25    24    1
     7     5     2    1
     8    23    22    1
     9    22    21    3
    10    10     1    1
    11    39    33    1
    12    34    32    1
    13    49    47    1
    14    24    17    1
    15    21    16    1
    16    48    47   ar
    17    48    44   ar
    18    32    33   ar
    19    32    29   ar
    20     2     1   ar
    21     2     4   ar
    22    33    30   ar
    23    17    16   ar
    24    17    18   ar
    25    16    15   ar
    26    47    46   ar
    27     1     3   ar
    28    18    29    1
    29    18    19   ar
    30    29    27   ar
    31    30    44    1
    32    30    28   ar
    33    15    19   ar
    34    15     4    1
    35    44    45   ar
    36    19    20    1
    37     4     7   ar
    38    46    45   ar
    39    46    52    1
    40    28    27   ar
    41    28    31    1
    42    27    35    1
    43     3     9    1
    44     3     6   ar
    45    37    35    1
    46    53    52    1
    47    45    50    1
    48    35    36    1
    49    35    38    1
    50     7     6   ar
    51     7    11    1
    52     6     8    1
    53    50    51    1
    54    13    11    1
    55    11    14    1
    56    11    12    1
