@<TRIPOS>MOLECULE
mol_data/opt/b3lyp/geoms/mol2/4ai4ai.out
 28 29 0 0 0
SMALL
GASTEIGER

@<TRIPOS>ATOM
      1 C           0.0648    0.1106   -0.8517 C.ar    1  LIG1       -0.0612
      2 C           1.4442    0.1584   -0.6656 C.ar    1  LIG1       -0.0538
      3 C          -0.7200    1.1840   -0.4335 C.ar    1  LIG1       -0.0615
      4 C           2.0690    1.2676   -0.0718 C.ar    1  LIG1       -0.0150
      5 H           2.0630   -0.6696   -0.9996 H       1  LIG1        0.0624
      6 C          -0.1134    2.2839    0.1703 C.ar    1  LIG1       -0.0583
      7 C           1.2730    2.3527    0.3627 C.ar    1  LIG1       -0.0427
      8 H          -0.7293    3.1112    0.5147 H       1  LIG1        0.0620
      9 H          -1.7976    1.1639   -0.5677 H       1  LIG1        0.0618
     10 H          -0.3908   -0.7565   -1.3209 H       1  LIG1        0.0618
     11 C           1.8568    3.5657    1.0539 C.3     1  LIG1       -0.0391
     12 H           1.0978    4.0568    1.6695 H       1  LIG1        0.0278
     13 H           2.2218    4.3110    0.3371 H       1  LIG1        0.0278
     14 H           2.7011    3.3012    1.6955 H       1  LIG1        0.0278
     15 C           4.1682    0.1673    0.7544 C.ar    1  LIG1       -0.0540
     16 C           5.5553    0.1212    0.8857 C.ar    1  LIG1       -0.0609
     17 C           3.5523    1.2398    0.0907 C.ar    1  LIG1       -0.0174
     18 C           6.3472    1.1374    0.3527 C.ar    1  LIG1       -0.0588
     19 H           6.0205   -0.7075    1.4124 H       1  LIG1        0.0618
     20 C           4.3678    2.2500   -0.4417 C.ar    1  LIG1       -0.0511
     21 C           5.7617    2.2149   -0.3246 C.ar    1  LIG1       -0.0499
     22 H           3.9051    3.0738   -0.9785 H       1  LIG1        0.0626
     23 H           7.4281    1.0959    0.4621 H       1  LIG1        0.0620
     24 H           3.5527   -0.6185    1.1822 H       1  LIG1        0.0624
     25 C           6.6157    3.2968   -0.9441 C.3     1  LIG1       -0.0397
     26 H           6.0780    4.2477   -1.0036 H       1  LIG1        0.0278
     27 H           6.9170    3.0290   -1.9646 H       1  LIG1        0.0278
     28 H           7.5320    3.4612   -0.3691 H       1  LIG1        0.0278
@<TRIPOS>BOND
     1    27    25    1
     2    10     1    1
     3    26    25    1
     4     5     2    1
     5    22    20    1
     6    25    28    1
     7    25    21    1
     8     1     2   ar
     9     1     3   ar
    10     2     4   ar
    11     9     3    1
    12    20    21   ar
    13    20    17   ar
    14     3     6   ar
    15    21    18   ar
    16     4    17    1
    17     4     7   ar
    18    17    15   ar
    19     6     7   ar
    20     6     8    1
    21    13    11    1
    22    18    23    1
    23    18    16   ar
    24     7    11    1
    25    15    16   ar
    26    15    24    1
    27    16    19    1
    28    11    12    1
    29    11    14    1
