@<TRIPOS>MOLECULE
mol_data/opt/b3lyp/geoms/mol2/4ai4ai4ai-4ai-.out
 54 57 0 0 0
SMALL
GASTEIGER

@<TRIPOS>ATOM
      1 C          -0.1339    0.5649   -1.5518 C.ar    1  LIG1       -0.0612
      2 C           1.2503    0.6119   -1.4071 C.ar    1  LIG1       -0.0538
      3 C          -0.9405    1.2534   -0.6470 C.ar    1  LIG1       -0.0615
      4 C           1.8590    1.3441   -0.3737 C.ar    1  LIG1       -0.0150
      5 H           1.8849    0.0874   -2.1157 H       1  LIG1        0.0624
      6 C          -0.3495    1.9709    0.3912 C.ar    1  LIG1       -0.0583
      7 C           1.0413    2.0342    0.5515 C.ar    1  LIG1       -0.0427
      8 H          -0.9809    2.4902    1.1082 H       1  LIG1        0.0620
      9 H          -2.0222    1.2267   -0.7419 H       1  LIG1        0.0618
     10 H          -0.5765   -0.0026   -2.3652 H       1  LIG1        0.0618
     11 C           1.6069    2.8086    1.7220 C.3     1  LIG1       -0.0391
     12 H           0.8697    2.8753    2.5274 H       1  LIG1        0.0278
     13 H           1.8733    3.8356    1.4445 H       1  LIG1        0.0278
     14 H           2.5105    2.3417    2.1215 H       1  LIG1        0.0278
     15 C           4.0551    0.1295   -0.2736 C.ar    1  LIG1       -0.0534
     16 C           5.4450    0.1264   -0.2332 C.ar    1  LIG1       -0.0532
     17 C           3.3483    1.3405   -0.2921 C.ar    1  LIG1       -0.0173
     18 C           6.1885    1.3179   -0.2230 C.ar    1  LIG1       -0.0149
     19 H           5.9776   -0.8202   -0.2247 H       1  LIG1        0.0624
     20 C           4.0920    2.5280   -0.2703 C.ar    1  LIG1       -0.0505
     21 C           5.4912    2.5481   -0.2382 C.ar    1  LIG1       -0.0422
     22 H           3.5639    3.4773   -0.2919 H       1  LIG1        0.0626
     23 H           3.5104   -0.8100   -0.2787 H       1  LIG1        0.0624
     24 C           6.1961    3.8869   -0.1974 C.3     1  LIG1       -0.0391
     25 H           5.5383    4.6526    0.2238 H       1  LIG1        0.0278
     26 H           6.4864    4.2280   -1.1983 H       1  LIG1        0.0278
     27 H           7.1077    3.8483    0.4038 H       1  LIG1        0.0278
     28 C           8.4902    1.8773   -1.1185 C.ar    1  LIG1       -0.0534
     29 C           9.8722    1.7318   -1.0693 C.ar    1  LIG1       -0.0532
     30 C           7.6754    1.2262   -0.1815 C.ar    1  LIG1       -0.0173
     31 C          10.5004    0.9351   -0.0982 C.ar    1  LIG1       -0.0149
     32 H          10.4879    2.2245   -1.8163 H       1  LIG1        0.0624
     33 C           8.3063    0.4401    0.7938 C.ar    1  LIG1       -0.0505
     34 C           9.6949    0.2792    0.8608 C.ar    1  LIG1       -0.0422
     35 H           7.6902   -0.0454    1.5465 H       1  LIG1        0.0626
     36 H           8.0409    2.4755   -1.9047 H       1  LIG1        0.0624
     37 C          10.2768   -0.5597    1.9783 C.3     1  LIG1       -0.0391
     38 H          11.2237   -0.1523    2.3415 H       1  LIG1        0.0278
     39 H          10.4735   -1.5897    1.6580 H       1  LIG1        0.0278
     40 H           9.5795   -0.6121    2.8193 H       1  LIG1        0.0278
     41 C          12.7750    1.9951   -0.1250 C.ar    1  LIG1       -0.0540
     42 C          14.1653    1.9061   -0.1725 C.ar    1  LIG1       -0.0609
     43 C          11.9881    0.8325   -0.1173 C.ar    1  LIG1       -0.0174
     44 C          14.7902    0.6606   -0.2192 C.ar    1  LIG1       -0.0588
     45 H          14.7647    2.8122   -0.1650 H       1  LIG1        0.0618
     46 C          12.6371   -0.4106   -0.1686 C.ar    1  LIG1       -0.0511
     47 C          14.0312   -0.5167   -0.2239 C.ar    1  LIG1       -0.0499
     48 H          12.0388   -1.3174   -0.1877 H       1  LIG1        0.0626
     49 H          15.8751    0.5998   -0.2524 H       1  LIG1        0.0620
     50 H          12.2918    2.9662   -0.0738 H       1  LIG1        0.0624
     51 C          14.6986   -1.8691   -0.3212 C.3     1  LIG1       -0.0397
     52 H          15.6836   -1.8641    0.1552 H       1  LIG1        0.0278
     53 H          14.8459   -2.1644   -1.3676 H       1  LIG1        0.0278
     54 H          14.0964   -2.6490    0.1542 H       1  LIG1        0.0278
@<TRIPOS>BOND
     1    10     1    1
     2     5     2    1
     3    36    28    1
     4    32    29    1
     5     1     2   ar
     6     1     3   ar
     7     2     4   ar
     8    53    51    1
     9    26    24    1
    10    28    29   ar
    11    28    30   ar
    12    29    31   ar
    13     9     3    1
    14     3     6   ar
    15     4    17    1
    16     4     7   ar
    17    51    47    1
    18    51    54    1
    19    51    52    1
    20    17    15   ar
    21    17    20   ar
    22    22    20    1
    23    23    15    1
    24    15    16   ar
    25    20    21   ar
    26    49    44    1
    27    21    18   ar
    28    21    24    1
    29    16    19    1
    30    16    18   ar
    31    47    44   ar
    32    47    46   ar
    33    18    30    1
    34    44    42   ar
    35    24    25    1
    36    24    27    1
    37    48    46    1
    38    30    33   ar
    39    42    45    1
    40    42    41   ar
    41    46    43   ar
    42    41    43   ar
    43    41    50    1
    44    43    31    1
    45    31    34   ar
    46     6     7   ar
    47     6     8    1
    48     7    11    1
    49    33    34   ar
    50    33    35    1
    51    34    37    1
    52    13    11    1
    53    39    37    1
    54    11    14    1
    55    11    12    1
    56    37    38    1
    57    37    40    1
