@<TRIPOS>MOLECULE
mol_data/opt/b3lyp/geoms/mol2/4ai4ai4ai.out
 41 43 0 0 0
SMALL
GASTEIGER

@<TRIPOS>ATOM
      1 C           0.0818    0.4655   -1.5866 C.ar    1  LIG1       -0.0612
      2 C           1.4509    0.5429   -1.3443 C.ar    1  LIG1       -0.0538
      3 C          -0.7981    1.1826   -0.7776 C.ar    1  LIG1       -0.0615
      4 C           1.9721    1.3332   -0.3059 C.ar    1  LIG1       -0.0150
      5 H           2.1428   -0.0031   -1.9792 H       1  LIG1        0.0624
      6 C          -0.2948    1.9583    0.2649 C.ar    1  LIG1       -0.0583
      7 C           1.0794    2.0518    0.5233 C.ar    1  LIG1       -0.0427
      8 H          -0.9840    2.5000    0.9082 H       1  LIG1        0.0620
      9 H          -1.8695    1.1332   -0.9497 H       1  LIG1        0.0618
     10 H          -0.2922   -0.1474   -2.4016 H       1  LIG1        0.0618
     11 C           1.5473    2.8868    1.6955 C.3     1  LIG1       -0.0391
     12 H           0.7469    2.9905    2.4337 H       1  LIG1        0.0278
     13 H           1.8370    3.8994    1.3900 H       1  LIG1        0.0278
     14 H           2.4151    2.4431    2.1900 H       1  LIG1        0.0278
     15 C           4.1728    0.1640    0.0106 C.ar    1  LIG1       -0.0534
     16 C           5.5560    0.1884    0.1528 C.ar    1  LIG1       -0.0532
     17 C           3.4512    1.3596   -0.1161 C.ar    1  LIG1       -0.0173
     18 C           6.2780    1.3927    0.1613 C.ar    1  LIG1       -0.0149
     19 H           6.1010   -0.7466    0.2458 H       1  LIG1        0.0624
     20 C           4.1732    2.5605   -0.0955 C.ar    1  LIG1       -0.0505
     21 C           5.5656    2.6078    0.0382 C.ar    1  LIG1       -0.0422
     22 H           3.6332    3.4977   -0.1989 H       1  LIG1        0.0626
     23 H           3.6441   -0.7847    0.0100 H       1  LIG1        0.0624
     24 C           6.2469    3.9591    0.0698 C.3     1  LIG1       -0.0391
     25 H           5.5453    4.7340    0.3915 H       1  LIG1        0.0278
     26 H           6.6209    4.2535   -0.9180 H       1  LIG1        0.0278
     27 H           7.1024    3.9663    0.7498 H       1  LIG1        0.0278
     28 C           8.3260    0.6207    1.3873 C.ar    1  LIG1       -0.0540
     29 C           9.7112    0.5325    1.5223 C.ar    1  LIG1       -0.0609
     30 C           7.7599    1.3308    0.3177 C.ar    1  LIG1       -0.0174
     31 C          10.5496    1.1439    0.5921 C.ar    1  LIG1       -0.0588
     32 H          10.1381   -0.0102    2.3611 H       1  LIG1        0.0618
     33 C           8.6226    1.9360   -0.6103 C.ar    1  LIG1       -0.0511
     34 C          10.0135    1.8515   -0.4925 C.ar    1  LIG1       -0.0499
     35 H           8.1975    2.4676   -1.4571 H       1  LIG1        0.0626
     36 H          11.6285    1.0727    0.7060 H       1  LIG1        0.0620
     37 H           7.6755    0.1546    2.1214 H       1  LIG1        0.0624
     38 C          10.9189    2.4824   -1.5250 C.3     1  LIG1       -0.0397
     39 H          10.3871    3.2280   -2.1226 H       1  LIG1        0.0278
     40 H          11.3172    1.7302   -2.2171 H       1  LIG1        0.0278
     41 H          11.7774    2.9743   -1.0562 H       1  LIG1        0.0278
@<TRIPOS>BOND
     1    10     1    1
     2    40    38    1
     3    39    38    1
     4     5     2    1
     5     1     2   ar
     6     1     3   ar
     7    38    41    1
     8    38    34    1
     9    35    33    1
    10     2     4   ar
    11     9     3    1
    12    26    24    1
    13     3     6   ar
    14    33    34   ar
    15    33    30   ar
    16    34    31   ar
    17     4    17    1
    18     4     7   ar
    19    22    20    1
    20    17    20   ar
    21    17    15   ar
    22    20    21   ar
    23    23    15    1
    24    15    16   ar
    25    21    24    1
    26    21    18   ar
    27    24    25    1
    28    24    27    1
    29    16    18   ar
    30    16    19    1
    31    18    30    1
    32     6     7   ar
    33     6     8    1
    34    30    28   ar
    35     7    11    1
    36    31    36    1
    37    31    29   ar
    38    28    29   ar
    39    28    37    1
    40    13    11    1
    41    29    32    1
    42    11    14    1
    43    11    12    1
