@<TRIPOS>MOLECULE
mol_data/opt/b3lyp/geoms/mol2/4ai4ai-4ai-4ai.out
 54 57 0 0 0
SMALL
GASTEIGER

@<TRIPOS>ATOM
      1 C          -0.2710   -0.0342   -0.2321 C.ar    1  LIG1       -0.0612
      2 C           1.1211   -0.0040   -0.2159 C.ar    1  LIG1       -0.0538
      3 C          -0.9821    1.1644   -0.2056 C.ar    1  LIG1       -0.0615
      4 C           1.8319    1.2077   -0.1804 C.ar    1  LIG1       -0.0150
      5 H           1.6812   -0.9341   -0.2497 H       1  LIG1        0.0624
      6 C          -0.2892    2.3725   -0.1560 C.ar    1  LIG1       -0.0583
      7 C           1.1111    2.4243   -0.1430 C.ar    1  LIG1       -0.0427
      8 H          -0.8457    3.3058   -0.1148 H       1  LIG1        0.0620
      9 H          -2.0682    1.1611   -0.2154 H       1  LIG1        0.0618
     10 H          -0.7938   -0.9855   -0.2679 H       1  LIG1        0.0618
     11 C           1.7907    3.7737   -0.0575 C.3     1  LIG1       -0.0391
     12 H           1.1194    4.5111    0.3918 H       1  LIG1        0.0278
     13 H           2.0718    4.1554   -1.0463 H       1  LIG1        0.0278
     14 H           2.7049    3.7327    0.5399 H       1  LIG1        0.0278
     15 C           4.1029    1.8436   -1.1030 C.ar    1  LIG1       -0.0534
     16 C           5.4890    1.7366   -1.0779 C.ar    1  LIG1       -0.0532
     17 C           3.3220    1.1523   -0.1661 C.ar    1  LIG1       -0.0173
     18 C           6.1552    0.9403   -0.1317 C.ar    1  LIG1       -0.0149
     19 H           6.0784    2.2610   -1.8246 H       1  LIG1        0.0624
     20 C           3.9898    0.3649    0.7827 C.ar    1  LIG1       -0.0505
     21 C           5.3835    0.2423    0.8256 C.ar    1  LIG1       -0.0422
     22 H           3.3994   -0.1524    1.5348 H       1  LIG1        0.0626
     23 H           3.6242    2.4445   -1.8696 H       1  LIG1        0.0624
     24 C           6.0049   -0.6012    1.9179 C.3     1  LIG1       -0.0391
     25 H           6.9504   -0.1801    2.2688 H       1  LIG1        0.0278
     26 H           6.2158   -1.6220    1.5775 H       1  LIG1        0.0278
     27 H           5.3258   -0.6812    2.7715 H       1  LIG1        0.0278
     28 C           8.3953    2.0726   -0.1825 C.ar    1  LIG1       -0.0534
     29 C           9.7832    2.0253   -0.2524 C.ar    1  LIG1       -0.0532
     30 C           7.6441    0.8883   -0.1726 C.ar    1  LIG1       -0.0173
     31 C          10.4798    0.8085   -0.3286 C.ar    1  LIG1       -0.0149
     32 H          10.3502    2.9517   -0.2628 H       1  LIG1        0.0624
     33 C           8.3425   -0.3250   -0.2386 C.ar    1  LIG1       -0.0505
     34 C           9.7382   -0.3954   -0.3185 C.ar    1  LIG1       -0.0422
     35 H           7.7795   -1.2541   -0.2408 H       1  LIG1        0.0626
     36 H           7.8879    3.0308   -0.1211 H       1  LIG1        0.0624
     37 C          10.3943   -1.7584   -0.3671 C.3     1  LIG1       -0.0391
     38 H          11.3447   -1.7720    0.1723 H       1  LIG1        0.0278
     39 H          10.6057   -2.0752   -1.3953 H       1  LIG1        0.0278
     40 H           9.7381   -2.5146    0.0731 H       1  LIG1        0.0278
     41 C          12.6770    0.2037   -1.4266 C.ar    1  LIG1       -0.0540
     42 C          14.0675    0.2858   -1.4823 C.ar    1  LIG1       -0.0609
     43 C          11.9691    0.8454   -0.3990 C.ar    1  LIG1       -0.0174
     44 C          14.7714    1.0060   -0.5181 C.ar    1  LIG1       -0.0588
     45 H          14.6051   -0.2122   -2.2844 H       1  LIG1        0.0618
     46 C          12.6970    1.5697    0.5590 C.ar    1  LIG1       -0.0511
     47 C          14.0924    1.6622    0.5166 C.ar    1  LIG1       -0.0499
     48 H          12.1571    2.0585    1.3661 H       1  LIG1        0.0626
     49 H          15.8562    1.0596   -0.5670 H       1  LIG1        0.0620
     50 H          12.1362   -0.3422   -2.1930 H       1  LIG1        0.0624
     51 C          14.8461    2.4672    1.5497 C.3     1  LIG1       -0.0397
     52 H          14.2766    2.5601    2.4789 H       1  LIG1        0.0278
     53 H          15.0503    3.4831    1.1889 H       1  LIG1        0.0278
     54 H          15.8111    2.0094    1.7880 H       1  LIG1        0.0278
@<TRIPOS>BOND
     1    45    42    1
     2    50    41    1
     3    23    15    1
     4    19    16    1
     5    42    41   ar
     6    42    44   ar
     7    41    43   ar
     8    39    37    1
     9    15    16   ar
    10    15    17   ar
    11    16    18   ar
    12    13    11    1
    13    49    44    1
    14    44    47   ar
    15    43    31    1
    16    43    46   ar
    17    37    34    1
    18    37    40    1
    19    37    38    1
    20    31    34   ar
    21    31    29   ar
    22    34    33   ar
    23    10     1    1
    24    32    29    1
    25    29    28   ar
    26     5     2    1
    27    35    33    1
    28    33    30   ar
    29     1     2   ar
    30     1     3   ar
    31     2     4   ar
    32     9     3    1
    33     3     6   ar
    34    28    30   ar
    35    28    36    1
    36     4    17    1
    37     4     7   ar
    38    30    18    1
    39    17    20   ar
    40     6     7   ar
    41     6     8    1
    42     7    11    1
    43    18    21   ar
    44    11    12    1
    45    11    14    1
    46    47    46   ar
    47    47    51    1
    48    46    48    1
    49    20    21   ar
    50    20    22    1
    51    21    24    1
    52    53    51    1
    53    51    54    1
    54    51    52    1
    55    26    24    1
    56    24    25    1
    57    24    27    1
