@<TRIPOS>MOLECULE
mol_data/opt/b3lyp/geoms/mol2/4ai4ai-.out
 28 29 0 0 0
SMALL
GASTEIGER

@<TRIPOS>ATOM
      1 C          -0.0647    0.1808   -0.7280 C.ar    1  LIG1       -0.0612
      2 C           1.3279    0.1871   -0.7407 C.ar    1  LIG1       -0.0538
      3 C          -0.7491    1.2750   -0.2015 C.ar    1  LIG1       -0.0615
      4 C           2.0643    1.2743   -0.2415 C.ar    1  LIG1       -0.0150
      5 H           1.8676   -0.6567   -1.1609 H       1  LIG1        0.0624
      6 C          -0.0299    2.3536    0.3099 C.ar    1  LIG1       -0.0583
      7 C           1.3711    2.3807    0.3024 C.ar    1  LIG1       -0.0427
      8 H          -0.5656    3.1972    0.7385 H       1  LIG1        0.0620
      9 H          -1.8352    1.2876   -0.1808 H       1  LIG1        0.0618
     10 H          -0.6083   -0.6700   -1.1283 H       1  LIG1        0.0618
     11 C           2.0834    3.5737    0.9020 C.3     1  LIG1       -0.0391
     12 H           1.4370    4.0815    1.6237 H       1  LIG1        0.0278
     13 H           2.3582    4.3132    0.1404 H       1  LIG1        0.0278
     14 H           3.0057    3.2836    1.4115 H       1  LIG1        0.0278
     15 C           4.3191    2.1959   -0.9232 C.ar    1  LIG1       -0.0540
     16 C           5.7070    2.0846   -0.9828 C.ar    1  LIG1       -0.0609
     17 C           3.5540    1.2026   -0.2928 C.ar    1  LIG1       -0.0174
     18 C           6.3520    0.9850   -0.4170 C.ar    1  LIG1       -0.0588
     19 H           6.2893    2.8582   -1.4755 H       1  LIG1        0.0618
     20 C           4.2223    0.1015    0.2652 C.ar    1  LIG1       -0.0511
     21 C           5.6151   -0.0256    0.2127 C.ar    1  LIG1       -0.0499
     22 H           3.6374   -0.6662    0.7658 H       1  LIG1        0.0626
     23 H           7.4355    0.9097   -0.4636 H       1  LIG1        0.0620
     24 H           3.8239    3.0453   -1.3831 H       1  LIG1        0.0624
     25 C           6.3022   -1.2360    0.8011 C.3     1  LIG1       -0.0397
     26 H           7.3071   -0.9919    1.1585 H       1  LIG1        0.0278
     27 H           6.4079   -2.0333    0.0547 H       1  LIG1        0.0278
     28 H           5.7354   -1.6505    1.6400 H       1  LIG1        0.0278
@<TRIPOS>BOND
     1    19    16    1
     2    24    15    1
     3     5     2    1
     4    10     1    1
     5    16    15   ar
     6    16    18   ar
     7    15    17   ar
     8     2     1   ar
     9     2     4   ar
    10     1     3   ar
    11    23    18    1
    12    18    21   ar
    13    17     4    1
    14    17    20   ar
    15     4     7   ar
    16     3     9    1
    17     3     6   ar
    18    27    25    1
    19    13    11    1
    20    21    20   ar
    21    21    25    1
    22    20    22    1
    23     7     6   ar
    24     7    11    1
    25     6     8    1
    26    25    26    1
    27    25    28    1
    28    11    14    1
    29    11    12    1
