@<TRIPOS>MOLECULE
mol_data/opt/b3lyp/geoms/mol2/4ai4ai-4ai.out
 41 43 0 0 0
SMALL
GASTEIGER

@<TRIPOS>ATOM
      1 C          -0.1431    0.0783   -0.6858 C.ar    1  LIG1       -0.0612
      2 C           1.2485    0.1021   -0.6430 C.ar    1  LIG1       -0.0538
      3 C          -0.8590    1.2129   -0.3070 C.ar    1  LIG1       -0.0615
      4 C           1.9544    1.2461   -0.2333 C.ar    1  LIG1       -0.0150
      5 H           1.8125   -0.7742   -0.9492 H       1  LIG1        0.0624
      6 C          -0.1713    2.3492    0.1144 C.ar    1  LIG1       -0.0583
      7 C           1.2287    2.3947    0.1604 C.ar    1  LIG1       -0.0427
      8 H          -0.7317    3.2265    0.4286 H       1  LIG1        0.0620
      9 H          -1.9449    1.2130   -0.3314 H       1  LIG1        0.0618
     10 H          -0.6617   -0.8175   -1.0145 H       1  LIG1        0.0618
     11 C           1.9017    3.6555    0.6578 C.3     1  LIG1       -0.0391
     12 H           1.2248    4.2187    1.3068 H       1  LIG1        0.0278
     13 H           2.1851    4.3215   -0.1660 H       1  LIG1        0.0278
     14 H           2.8133    3.4371    1.2194 H       1  LIG1        0.0278
     15 C           4.2356    2.1287   -0.8904 C.ar    1  LIG1       -0.0534
     16 C           5.6215    2.0145   -0.8844 C.ar    1  LIG1       -0.0532
     17 C           3.4444    1.1872   -0.2176 C.ar    1  LIG1       -0.0173
     18 C           6.2765    0.9649   -0.2198 C.ar    1  LIG1       -0.0149
     19 H           6.2195    2.7394   -1.4290 H       1  LIG1        0.0624
     20 C           4.1016    0.1458    0.4534 C.ar    1  LIG1       -0.0505
     21 C           5.4946    0.0110    0.4709 C.ar    1  LIG1       -0.0422
     22 H           3.5026   -0.5746    1.0048 H       1  LIG1        0.0626
     23 H           3.7658    2.9360   -1.4432 H       1  LIG1        0.0624
     24 C           6.1060   -1.1289    1.2564 C.3     1  LIG1       -0.0391
     25 H           7.0476   -0.8383    1.7289 H       1  LIG1        0.0278
     26 H           6.3218   -1.9953    0.6198 H       1  LIG1        0.0278
     27 H           5.4191   -1.4673    2.0373 H       1  LIG1        0.0278
     28 C           8.4558   -0.2215   -0.7095 C.ar    1  LIG1       -0.0540
     29 C           9.8482   -0.2240   -0.7691 C.ar    1  LIG1       -0.0609
     30 C           7.7666    0.9163   -0.2621 C.ar    1  LIG1       -0.0174
     31 C          10.5733    0.9036   -0.3847 C.ar    1  LIG1       -0.0588
     32 H          10.3712   -1.1093   -1.1199 H       1  LIG1        0.0618
     33 C           8.5154    2.0423    0.1148 C.ar    1  LIG1       -0.0511
     34 C           9.9138    2.0560    0.0602 C.ar    1  LIG1       -0.0499
     35 H           7.9896    2.9232    0.4749 H       1  LIG1        0.0626
     36 H          11.6595    0.8900   -0.4292 H       1  LIG1        0.0620
     37 H           7.8990   -1.0964   -1.0295 H       1  LIG1        0.0624
     38 C          10.6895    3.2924    0.4515 C.3     1  LIG1       -0.0397
     39 H          10.1551    3.8794    1.2043 H       1  LIG1        0.0278
     40 H          10.8552    3.9466   -0.4137 H       1  LIG1        0.0278
     41 H          11.6730    3.0362    0.8568 H       1  LIG1        0.0278
@<TRIPOS>BOND
     1    23    15    1
     2    19    16    1
     3    32    29    1
     4    37    28    1
     5    10     1    1
     6     5     2    1
     7    15    16   ar
     8    15    17   ar
     9    16    18   ar
    10    29    28   ar
    11    29    31   ar
    12    28    30   ar
    13     1     2   ar
    14     1     3   ar
    15     2     4   ar
    16    36    31    1
    17    40    38    1
    18    31    34   ar
    19     9     3    1
    20     3     6   ar
    21    30    18    1
    22    30    33   ar
    23     4    17    1
    24     4     7   ar
    25    18    21   ar
    26    17    20   ar
    27    13    11    1
    28    34    33   ar
    29    34    38    1
    30     6     7   ar
    31     6     8    1
    32    33    35    1
    33     7    11    1
    34    38    41    1
    35    38    39    1
    36    20    21   ar
    37    20    22    1
    38    21    24    1
    39    26    24    1
    40    11    14    1
    41    11    12    1
    42    24    25    1
    43    24    27    1
