@<TRIPOS>MOLECULE
mol_data/opt/b3lyp/geoms/mol2/4ai4ai4ai-4ai.out
 54 57 0 0 0
SMALL
GASTEIGER

@<TRIPOS>ATOM
      1 C          -0.1523    0.6033   -1.5721 C.ar    1  LIG1       -0.0612
      2 C           1.2326    0.6407   -1.4318 C.ar    1  LIG1       -0.0538
      3 C          -0.9527    1.2663   -0.6431 C.ar    1  LIG1       -0.0615
      4 C           1.8481    1.3374   -0.3782 C.ar    1  LIG1       -0.0150
      5 H           1.8622    0.1368   -2.1597 H       1  LIG1        0.0624
      6 C          -0.3549    1.9489    0.4145 C.ar    1  LIG1       -0.0583
      7 C           1.0367    2.0014    0.5713 C.ar    1  LIG1       -0.0427
      8 H          -0.9814    2.4480    1.1498 H       1  LIG1        0.0620
      9 H          -2.0348    1.2466   -0.7345 H       1  LIG1        0.0618
     10 H          -0.6003    0.0632   -2.4011 H       1  LIG1        0.0618
     11 C           1.6106    2.7348    1.7641 C.3     1  LIG1       -0.0391
     12 H           0.8753    2.7836    2.5724 H       1  LIG1        0.0278
     13 H           1.8867    3.7672    1.5179 H       1  LIG1        0.0278
     14 H           2.5104    2.2472    2.1472 H       1  LIG1        0.0278
     15 C           4.0400    0.1120   -0.3188 C.ar    1  LIG1       -0.0534
     16 C           5.4300    0.1029   -0.2807 C.ar    1  LIG1       -0.0532
     17 C           3.3375    1.3254   -0.3013 C.ar    1  LIG1       -0.0173
     18 C           6.1778    1.2910   -0.2375 C.ar    1  LIG1       -0.0149
     19 H           5.9594   -0.8454   -0.3001 H       1  LIG1        0.0624
     20 C           4.0855    2.5092   -0.2468 C.ar    1  LIG1       -0.0505
     21 C           5.4848    2.5236   -0.2163 C.ar    1  LIG1       -0.0422
     22 H           3.5607    3.4606   -0.2391 H       1  LIG1        0.0626
     23 H           3.4920   -0.8251   -0.3500 H       1  LIG1        0.0624
     24 C           6.1940    3.8582   -0.1362 C.3     1  LIG1       -0.0391
     25 H           5.5350    4.6156    0.2978 H       1  LIG1        0.0278
     26 H           6.4952    4.2232   -1.1254 H       1  LIG1        0.0278
     27 H           7.0999    3.8014    0.4724 H       1  LIG1        0.0278
     28 C           8.4813    1.8733   -1.1142 C.ar    1  LIG1       -0.0534
     29 C           9.8630    1.7233   -1.0687 C.ar    1  LIG1       -0.0532
     30 C           7.6644    1.1931   -0.2000 C.ar    1  LIG1       -0.0173
     31 C          10.4894    0.8940   -0.1238 C.ar    1  LIG1       -0.0149
     32 H          10.4802    2.2394   -1.7983 H       1  LIG1        0.0624
     33 C           8.2929    0.3724    0.7477 C.ar    1  LIG1       -0.0505
     34 C           9.6812    0.2067    0.8109 C.ar    1  LIG1       -0.0422
     35 H           7.6751   -0.1379    1.4824 H       1  LIG1        0.0626
     36 H           8.0343    2.4982   -1.8805 H       1  LIG1        0.0624
     37 C          10.2583   -0.6713    1.9004 C.3     1  LIG1       -0.0391
     38 H          11.2046   -0.2787    2.2811 H       1  LIG1        0.0278
     39 H          10.4551   -1.6899    1.5453 H       1  LIG1        0.0278
     40 H           9.5580   -0.7521    2.7365 H       1  LIG1        0.0278
     41 C          12.6333   -0.4459   -0.2087 C.ar    1  LIG1       -0.0540
     42 C          14.0249   -0.5048   -0.2575 C.ar    1  LIG1       -0.0609
     43 C          11.9770    0.7930   -0.1423 C.ar    1  LIG1       -0.0174
     44 C          14.7823    0.6661   -0.2410 C.ar    1  LIG1       -0.0588
     45 H          14.5219   -1.4693   -0.3118 H       1  LIG1        0.0618
     46 C          12.7583    1.9596   -0.1325 C.ar    1  LIG1       -0.0511
     47 C          14.1562    1.9174   -0.1820 C.ar    1  LIG1       -0.0499
     48 H          12.2586    2.9230   -0.0678 H       1  LIG1        0.0626
     49 H          15.8674    0.6096   -0.2734 H       1  LIG1        0.0620
     50 H          12.0519   -1.3614   -0.2432 H       1  LIG1        0.0624
     51 C          14.9669    3.1925   -0.1929 C.3     1  LIG1       -0.0397
     52 H          14.4475    4.0021    0.3282 H       1  LIG1        0.0278
     53 H          15.1551    3.5338   -1.2187 H       1  LIG1        0.0278
     54 H          15.9411    3.0519    0.2850 H       1  LIG1        0.0278
@<TRIPOS>BOND
     1    10     1    1
     2     5     2    1
     3    36    28    1
     4    32    29    1
     5     1     2   ar
     6     1     3   ar
     7     2     4   ar
     8    53    51    1
     9    26    24    1
    10    28    29   ar
    11    28    30   ar
    12    29    31   ar
    13     9     3    1
    14     3     6   ar
    15     4    17    1
    16     4     7   ar
    17    23    15    1
    18    15    17   ar
    19    15    16   ar
    20    45    42    1
    21    17    20   ar
    22    19    16    1
    23    16    18   ar
    24    49    44    1
    25    42    44   ar
    26    42    41   ar
    27    20    22    1
    28    20    21   ar
    29    50    41    1
    30    44    47   ar
    31    18    21   ar
    32    18    30    1
    33    21    24    1
    34    41    43   ar
    35    30    33   ar
    36    51    47    1
    37    51    54    1
    38    51    52    1
    39    47    46   ar
    40    43    46   ar
    41    43    31    1
    42    24    25    1
    43    24    27    1
    44    46    48    1
    45    31    34   ar
    46     6     7   ar
    47     6     8    1
    48     7    11    1
    49    33    34   ar
    50    33    35    1
    51    34    37    1
    52    13    11    1
    53    39    37    1
    54    11    14    1
    55    11    12    1
    56    37    38    1
    57    37    40    1
