@<TRIPOS>MOLECULE
mol_data/opt/b3lyp/geoms/mol2/4ai4ai-4ai4ai-.out
 54 57 0 0 0
SMALL
GASTEIGER

@<TRIPOS>ATOM
      1 C          -0.2458    0.1964   -0.9226 C.ar    1  LIG1       -0.0612
      2 C           1.1442    0.2089   -0.8402 C.ar    1  LIG1       -0.0538
      3 C          -0.9703    1.2817   -0.4325 C.ar    1  LIG1       -0.0615
      4 C           1.8402    1.2937   -0.2803 C.ar    1  LIG1       -0.0150
      5 H           1.7150   -0.6277   -1.2328 H       1  LIG1        0.0624
      6 C          -0.2930    2.3577    0.1378 C.ar    1  LIG1       -0.0583
      7 C           1.1052    2.3912    0.2263 C.ar    1  LIG1       -0.0427
      8 H          -0.8605    3.1944    0.5379 H       1  LIG1        0.0620
      9 H          -2.0552    1.2894   -0.4858 H       1  LIG1        0.0618
     10 H          -0.7563   -0.6524   -1.3682 H       1  LIG1        0.0618
     11 C           1.7659    3.5819    0.8865 C.3     1  LIG1       -0.0391
     12 H           1.0691    4.0737    1.5714 H       1  LIG1        0.0278
     13 H           2.0816    4.3347    0.1541 H       1  LIG1        0.0278
     14 H           2.6562    3.2937    1.4509 H       1  LIG1        0.0278
     15 C           4.1374    2.2431   -0.7642 C.ar    1  LIG1       -0.0534
     16 C           5.5224    2.1259   -0.7347 C.ar    1  LIG1       -0.0532
     17 C           3.3291    1.2285   -0.2327 C.ar    1  LIG1       -0.0173
     18 C           6.1613    1.0021   -0.1847 C.ar    1  LIG1       -0.0149
     19 H           6.1340    2.9102   -1.1713 H       1  LIG1        0.0624
     20 C           3.9692    0.1119    0.3240 C.ar    1  LIG1       -0.0505
     21 C           5.3613   -0.0270    0.3636 C.ar    1  LIG1       -0.0422
     22 H           3.3562   -0.6689    0.7673 H       1  LIG1        0.0626
     23 H           3.6815    3.1126   -1.2267 H       1  LIG1        0.0624
     24 C           5.9499   -1.2542    1.0258 C.3     1  LIG1       -0.0391
     25 H           6.8743   -1.0232    1.5611 H       1  LIG1        0.0278
     26 H           6.1896   -2.0383    0.2975 H       1  LIG1        0.0278
     27 H           5.2382   -1.6830    1.7369 H       1  LIG1        0.0278
     28 C           8.3629   -0.1292   -0.7188 C.ar    1  LIG1       -0.0534
     29 C           9.7530   -0.1121   -0.7453 C.ar    1  LIG1       -0.0532
     30 C           7.6506    0.9582   -0.1933 C.ar    1  LIG1       -0.0173
     31 C          10.4915    0.9796   -0.2599 C.ar    1  LIG1       -0.0149
     32 H          10.2889   -0.9527   -1.1764 H       1  LIG1        0.0624
     33 C           8.3909    2.0425    0.2999 C.ar    1  LIG1       -0.0505
     34 C           9.7898    2.0810    0.2817 C.ar    1  LIG1       -0.0422
     35 H           7.8542    2.8797    0.7392 H       1  LIG1        0.0626
     36 H           7.8285   -0.9773   -1.1344 H       1  LIG1        0.0624
     37 C          10.4911    3.2834    0.8759 C.3     1  LIG1       -0.0391
     38 H           9.8439    3.7829    1.6024 H       1  LIG1        0.0278
     39 H          10.7506    4.0258    0.1117 H       1  LIG1        0.0278
     40 H          11.4211    3.0051    1.3777 H       1  LIG1        0.0278
     41 C          12.7342    1.9263   -0.9431 C.ar    1  LIG1       -0.0540
     42 C          14.1226    1.8224   -1.0187 C.ar    1  LIG1       -0.0609
     43 C          11.9799    0.9175   -0.3258 C.ar    1  LIG1       -0.0174
     44 C          14.7778    0.7155   -0.4817 C.ar    1  LIG1       -0.0588
     45 H          14.6961    2.6080   -1.5027 H       1  LIG1        0.0618
     46 C          12.6594   -0.1922    0.2037 C.ar    1  LIG1       -0.0511
     47 C          14.0512   -0.3112    0.1361 C.ar    1  LIG1       -0.0499
     48 H          12.0831   -0.9725    0.6944 H       1  LIG1        0.0626
     49 H          15.8612    0.6463   -0.5411 H       1  LIG1        0.0620
     50 H          12.2312    2.7816   -1.3826 H       1  LIG1        0.0624
     51 C          14.7550   -1.5237    0.6999 C.3     1  LIG1       -0.0397
     52 H          15.6686   -1.2436    1.2342 H       1  LIG1        0.0278
     53 H          15.0480   -2.2186   -0.0968 H       1  LIG1        0.0278
     54 H          14.1128   -2.0730    1.3940 H       1  LIG1        0.0278
@<TRIPOS>BOND
     1    45    42    1
     2    50    41    1
     3    10     1    1
     4     5     2    1
     5    23    15    1
     6    32    29    1
     7    19    16    1
     8    36    28    1
     9    42    41   ar
    10    42    44   ar
    11    41    43   ar
    12     1     2   ar
    13     1     3   ar
    14     2     4   ar
    15    15    16   ar
    16    15    17   ar
    17    29    28   ar
    18    29    31   ar
    19    16    18   ar
    20    28    30   ar
    21    49    44    1
    22     9     3    1
    23    44    47   ar
    24     3     6   ar
    25    43    31    1
    26    43    46   ar
    27     4    17    1
    28     4     7   ar
    29    31    34   ar
    30    17    20   ar
    31    30    18    1
    32    30    33   ar
    33    18    21   ar
    34    53    51    1
    35    39    37    1
    36    47    46   ar
    37    47    51    1
    38     6     7   ar
    39     6     8    1
    40    13    11    1
    41    46    48    1
    42     7    11    1
    43    34    33   ar
    44    34    37    1
    45    26    24    1
    46    33    35    1
    47    20    21   ar
    48    20    22    1
    49    21    24    1
    50    51    52    1
    51    51    54    1
    52    37    40    1
    53    37    38    1
    54    11    14    1
    55    11    12    1
    56    24    25    1
    57    24    27    1
