@<TRIPOS>MOLECULE
mol_data/opt/b3lyp/geoms/mol2/4ai4ai4ai4ai.out
 54 57 0 0 0
SMALL
GASTEIGER

@<TRIPOS>ATOM
      1 C           0.0285    0.9967   -2.0667 C.ar    1  LIG1       -0.0612
      2 C           1.3923    1.0795   -1.7974 C.ar    1  LIG1       -0.0538
      3 C          -0.8863    1.1973   -1.0342 C.ar    1  LIG1       -0.0615
      4 C           1.8730    1.3679   -0.5091 C.ar    1  LIG1       -0.0150
      5 H           2.1104    0.9364   -2.5998 H       1  LIG1        0.0624
      6 C          -0.4219    1.4698    0.2512 C.ar    1  LIG1       -0.0583
      7 C           0.9460    1.5611    0.5417 C.ar    1  LIG1       -0.0427
      8 H          -1.1365    1.6053    1.0594 H       1  LIG1        0.0620
      9 H          -1.9540    1.1343   -1.2239 H       1  LIG1        0.0618
     10 H          -0.3146    0.7798   -3.0741 H       1  LIG1        0.0618
     11 C           1.3746    1.8280    1.9683 C.3     1  LIG1       -0.0391
     12 H           0.5872    1.5287    2.6660 H       1  LIG1        0.0278
     13 H           1.5744    2.8916    2.1452 H       1  LIG1        0.0278
     14 H           2.2873    1.2853    2.2272 H       1  LIG1        0.0278
     15 C           4.1709    0.3733   -0.7076 C.ar    1  LIG1       -0.0534
     16 C           5.5503    0.4517   -0.5498 C.ar    1  LIG1       -0.0532
     17 C           3.3493    1.4368   -0.3074 C.ar    1  LIG1       -0.0173
     18 C           6.1696    1.5879   -0.0041 C.ar    1  LIG1       -0.0149
     19 H           6.1734   -0.3790   -0.8684 H       1  LIG1        0.0624
     20 C           3.9690    2.5649    0.2471 C.ar    1  LIG1       -0.0505
     21 C           5.3556    2.6684    0.4076 C.ar    1  LIG1       -0.0422
     22 H           3.3507    3.4030    0.5566 H       1  LIG1        0.0626
     23 H           3.7231   -0.5207   -1.1315 H       1  LIG1        0.0624
     24 C           5.9220    3.9224    1.0380 C.3     1  LIG1       -0.0391
     25 H           5.1683    4.4109    1.6622 H       1  LIG1        0.0278
     26 H           6.2383    4.6534    0.2844 H       1  LIG1        0.0278
     27 H           6.7949    3.7058    1.6588 H       1  LIG1        0.0278
     28 C           8.3064    0.5313    0.7825 C.ar    1  LIG1       -0.0534
     29 C           9.6935    0.5130    0.8795 C.ar    1  LIG1       -0.0532
     30 C           7.6541    1.5882    0.1312 C.ar    1  LIG1       -0.0173
     31 C          10.4876    1.5299    0.3257 C.ar    1  LIG1       -0.0149
     32 H          10.1836   -0.3147    1.3842 H       1  LIG1        0.0624
     33 C           8.4487    2.6076   -0.4110 C.ar    1  LIG1       -0.0505
     34 C           9.8462    2.6047   -0.3321 C.ar    1  LIG1       -0.0422
     35 H           7.9641    3.4318   -0.9268 H       1  LIG1        0.0626
     36 H           7.7214   -0.2700    1.2242 H       1  LIG1        0.0624
     37 C          10.6104    3.7651   -0.9326 C.3     1  LIG1       -0.0391
     38 H           9.9698    4.6486   -1.0046 H       1  LIG1        0.0278
     39 H          10.9670    3.5421   -1.9452 H       1  LIG1        0.0278
     40 H          11.4883    4.0247   -0.3356 H       1  LIG1        0.0278
     41 C          12.5377    1.2531    1.7448 C.ar    1  LIG1       -0.0540
     42 C          13.9195    1.1336    1.8889 C.ar    1  LIG1       -0.0609
     43 C          11.9685    1.4351    0.4750 C.ar    1  LIG1       -0.0174
     44 C          14.7512    1.1873    0.7718 C.ar    1  LIG1       -0.0588
     45 H          14.3497    1.0054    2.8783 H       1  LIG1        0.0618
     46 C          12.8240    1.4823   -0.6372 C.ar    1  LIG1       -0.0511
     47 C          14.2112    1.3573   -0.5101 C.ar    1  LIG1       -0.0499
     48 H          12.3948    1.5970   -1.6288 H       1  LIG1        0.0626
     49 H          15.8278    1.0963    0.8929 H       1  LIG1        0.0620
     50 H          11.8935    1.2250    2.6186 H       1  LIG1        0.0624
     51 C          15.1046    1.3723   -1.7289 C.3     1  LIG1       -0.0397
     52 H          14.6133    1.8515   -2.5804 H       1  LIG1        0.0278
     53 H          15.3734    0.3541   -2.0365 H       1  LIG1        0.0278
     54 H          16.0396    1.9067   -1.5327 H       1  LIG1        0.0278
@<TRIPOS>BOND
     1    10     1    1
     2     5     2    1
     3    52    51    1
     4     1     2   ar
     5     1     3   ar
     6    53    51    1
     7    39    37    1
     8     2     4   ar
     9    51    54    1
    10    51    47    1
    11    48    46    1
    12     9     3    1
    13    23    15    1
    14     3     6   ar
    15    38    37    1
    16    37    40    1
    17    37    34    1
    18    35    33    1
    19    19    16    1
    20    15    16   ar
    21    15    17   ar
    22    46    47   ar
    23    46    43   ar
    24    16    18   ar
    25    47    44   ar
    26     4    17    1
    27     4     7   ar
    28    33    34   ar
    29    33    30   ar
    30    34    31   ar
    31    17    20   ar
    32    18    30    1
    33    18    21   ar
    34    30    28   ar
    35    20    21   ar
    36    20    22    1
    37     6     7   ar
    38     6     8    1
    39    26    24    1
    40    31    43    1
    41    31    29   ar
    42    21    24    1
    43    43    41   ar
    44     7    11    1
    45    44    49    1
    46    44    42   ar
    47    28    29   ar
    48    28    36    1
    49    29    32    1
    50    24    27    1
    51    24    25    1
    52    41    42   ar
    53    41    50    1
    54    42    45    1
    55    11    13    1
    56    11    14    1
    57    11    12    1
