@<TRIPOS>MOLECULE
mol_data/opt/b3lyp/geoms/mol2/4ai4ai-4ai4ai.out
 54 57 0 0 0
SMALL
GASTEIGER

@<TRIPOS>ATOM
      1 C          -0.1946    0.1640   -1.1261 C.ar    1  LIG1       -0.0612
      2 C           1.1903    0.1869   -0.9827 C.ar    1  LIG1       -0.0538
      3 C          -0.9504    1.2309   -0.6430 C.ar    1  LIG1       -0.0615
      4 C           1.8504    1.2644   -0.3678 C.ar    1  LIG1       -0.0150
      5 H           1.7861   -0.6350   -1.3690 H       1  LIG1        0.0624
      6 C          -0.3093    2.2992   -0.0188 C.ar    1  LIG1       -0.0583
      7 C           1.0833    2.3432    0.1315 C.ar    1  LIG1       -0.0427
      8 H          -0.9021    3.1210    0.3755 H       1  LIG1        0.0620
      9 H          -2.0320    1.2301   -0.7434 H       1  LIG1        0.0618
     10 H          -0.6768   -0.6786   -1.6131 H       1  LIG1        0.0618
     11 C           1.7030    3.5237    0.8474 C.3     1  LIG1       -0.0391
     12 H           0.9711    3.9958    1.5091 H       1  LIG1        0.0278
     13 H           2.0473    4.2942    0.1471 H       1  LIG1        0.0278
     14 H           2.5678    3.2288    1.4469 H       1  LIG1        0.0278
     15 C           4.1580    2.2449   -0.7244 C.ar    1  LIG1       -0.0534
     16 C           5.5415    2.1388   -0.6351 C.ar    1  LIG1       -0.0532
     17 C           3.3363    1.2103   -0.2556 C.ar    1  LIG1       -0.0173
     18 C           6.1658    1.0069   -0.0854 C.ar    1  LIG1       -0.0149
     19 H           6.1642    2.9394   -1.0238 H       1  LIG1        0.0624
     20 C           3.9615    0.0853    0.3009 C.ar    1  LIG1       -0.0505
     21 C           5.3518   -0.0429    0.3994 C.ar    1  LIG1       -0.0422
     22 H           3.3373   -0.7118    0.6969 H       1  LIG1        0.0626
     23 H           3.7152    3.1221   -1.1851 H       1  LIG1        0.0624
     24 C           5.9214   -1.2827    1.0544 C.3     1  LIG1       -0.0391
     25 H           6.8201   -1.0601    1.6351 H       1  LIG1        0.0278
     26 H           6.1982   -2.0457    0.3170 H       1  LIG1        0.0278
     27 H           5.1833   -1.7349    1.7227 H       1  LIG1        0.0278
     28 C           8.3998   -0.0911   -0.5491 C.ar    1  LIG1       -0.0534
     29 C           9.7894   -0.0631   -0.5092 C.ar    1  LIG1       -0.0532
     30 C           7.6544    0.9750   -0.0262 C.ar    1  LIG1       -0.0173
     31 C          10.4944    1.0189    0.0427 C.ar    1  LIG1       -0.0149
     32 H          10.3528   -0.8866   -0.9385 H       1  LIG1        0.0624
     33 C           8.3609    2.0495    0.5335 C.ar    1  LIG1       -0.0505
     34 C           9.7587    2.0984    0.5836 C.ar    1  LIG1       -0.0422
     35 H           7.7964    2.8690    0.9712 H       1  LIG1        0.0626
     36 H           7.8927   -0.9307   -1.0134 H       1  LIG1        0.0624
     37 C          10.4215    3.2855    1.2487 C.3     1  LIG1       -0.0391
     38 H           9.7338    3.7622    1.9528 H       1  LIG1        0.0278
     39 H          10.7197    4.0499    0.5213 H       1  LIG1        0.0278
     40 H          11.3237    2.9945    1.7926 H       1  LIG1        0.0278
     41 C          12.6508   -0.1491    0.5732 C.ar    1  LIG1       -0.0540
     42 C          14.0432   -0.2168    0.5509 C.ar    1  LIG1       -0.0609
     43 C          11.9847    0.9678    0.0452 C.ar    1  LIG1       -0.0174
     44 C          14.7900    0.8221   -0.0021 C.ar    1  LIG1       -0.0588
     45 H          14.5483   -1.0807    0.9739 H       1  LIG1        0.0618
     46 C          12.7557    2.0010   -0.5103 C.ar    1  LIG1       -0.0511
     47 C          14.1529    1.9452   -0.5464 C.ar    1  LIG1       -0.0499
     48 H          12.2519    2.8599   -0.9451 H       1  LIG1        0.0626
     49 H          15.8755    0.7633   -0.0129 H       1  LIG1        0.0620
     50 H          12.0724   -0.9535    1.0178 H       1  LIG1        0.0624
     51 C          14.9546    3.0545   -1.1872 C.3     1  LIG1       -0.0397
     52 H          14.3956    3.9944   -1.2053 H       1  LIG1        0.0278
     53 H          15.2139    2.8087   -2.2245 H       1  LIG1        0.0278
     54 H          15.8936    3.2292   -0.6528 H       1  LIG1        0.0278
@<TRIPOS>BOND
     1    53    51    1
     2    10     1    1
     3     5     2    1
     4    52    51    1
     5    51    54    1
     6    51    47    1
     7    23    15    1
     8     1     2   ar
     9     1     3   ar
    10    19    16    1
    11    36    28    1
    12     2     4   ar
    13    48    46    1
    14    32    29    1
    15     9     3    1
    16    15    16   ar
    17    15    17   ar
    18     3     6   ar
    19    16    18   ar
    20    28    29   ar
    21    28    30   ar
    22    47    46   ar
    23    47    44   ar
    24    46    43   ar
    25    29    31   ar
    26     4    17    1
    27     4     7   ar
    28    17    20   ar
    29    18    30    1
    30    18    21   ar
    31    30    33   ar
    32     6     7   ar
    33     6     8    1
    34    49    44    1
    35    44    42   ar
    36    31    43    1
    37    31    34   ar
    38    43    41   ar
    39     7    11    1
    40    13    11    1
    41    20    21   ar
    42    20    22    1
    43    26    24    1
    44    21    24    1
    45    39    37    1
    46    33    34   ar
    47    33    35    1
    48    42    41   ar
    49    42    45    1
    50    41    50    1
    51    34    37    1
    52    11    14    1
    53    11    12    1
    54    24    25    1
    55    24    27    1
    56    37    40    1
    57    37    38    1
