@<TRIPOS>MOLECULE
mol_data/opt/b3lyp/geoms/mol2/4ai4ai4ai4ai-.out
 54 57 0 0 0
SMALL
GASTEIGER

@<TRIPOS>ATOM
      1 C          -0.1437    1.4077   -1.7893 C.ar    1  LIG1       -0.0612
      2 C           1.2401    1.3753   -1.6377 C.ar    1  LIG1       -0.0538
      3 C          -0.9509    1.5935   -0.6681 C.ar    1  LIG1       -0.0615
      4 C           1.8478    1.5330   -0.3806 C.ar    1  LIG1       -0.0150
      5 H           1.8754    1.2430   -2.5088 H       1  LIG1        0.0624
      6 C          -0.3610    1.7364    0.5863 C.ar    1  LIG1       -0.0583
      7 C           1.0295    1.7111    0.7593 C.ar    1  LIG1       -0.0427
      8 H          -0.9930    1.8604    1.4624 H       1  LIG1        0.0620
      9 H          -2.0324    1.6190   -0.7657 H       1  LIG1        0.0618
     10 H          -0.5856    1.2910   -2.7745 H       1  LIG1        0.0618
     11 C           1.5937    1.8421    2.1573 C.3     1  LIG1       -0.0391
     12 H           0.8529    1.5292    2.8988 H       1  LIG1        0.0278
     13 H           1.8679    2.8771    2.3939 H       1  LIG1        0.0278
     14 H           2.4924    1.2352    2.2929 H       1  LIG1        0.0278
     15 C           4.0392    0.4018   -0.8572 C.ar    1  LIG1       -0.0534
     16 C           5.4288    0.3720   -0.8182 C.ar    1  LIG1       -0.0532
     17 C           3.3368    1.4840   -0.3077 C.ar    1  LIG1       -0.0173
     18 C           6.1762    1.4156   -0.2483 C.ar    1  LIG1       -0.0149
     19 H           5.9581   -0.4718   -1.2513 H       1  LIG1        0.0624
     20 C           4.0845    2.5184    0.2707 C.ar    1  LIG1       -0.0505
     21 C           5.4837    2.5134    0.3125 C.ar    1  LIG1       -0.0422
     22 H           3.5598    3.3694    0.6962 H       1  LIG1        0.0626
     23 H           3.4913   -0.4228   -1.3037 H       1  LIG1        0.0624
     24 C           6.1936    3.6724    0.9786 C.3     1  LIG1       -0.0391
     25 H           5.5352    4.1574    1.7050 H       1  LIG1        0.0278
     26 H           6.4940    4.4395    0.2550 H       1  LIG1        0.0278
     27 H           7.0998    3.3502    1.4974 H       1  LIG1        0.0278
     28 C           8.2847    0.1531    0.2631 C.ar    1  LIG1       -0.0534
     29 C           9.6695    0.0298    0.2317 C.ar    1  LIG1       -0.0532
     30 C           7.6625    1.3019   -0.2467 C.ar    1  LIG1       -0.0173
     31 C          10.4896    1.0297   -0.3155 C.ar    1  LIG1       -0.0149
     32 H          10.1354   -0.8687    0.6259 H       1  LIG1        0.0624
     33 C           8.4841    2.3034   -0.7820 C.ar    1  LIG1       -0.0505
     34 C           9.8788    2.1962   -0.8311 C.ar    1  LIG1       -0.0422
     35 H           8.0221    3.1981   -1.1899 H       1  LIG1        0.0626
     36 H           7.6796   -0.6380    0.6958 H       1  LIG1        0.0624
     37 C          10.6755    3.3441   -1.4131 C.3     1  LIG1       -0.0391
     38 H          10.0995    4.2725   -1.3653 H       1  LIG1        0.0278
     39 H          10.9287    3.1757   -2.4666 H       1  LIG1        0.0278
     40 H          11.6174    3.4959   -0.8799 H       1  LIG1        0.0278
     41 C          12.7278    0.9063   -1.4871 C.ar    1  LIG1       -0.0540
     42 C          14.1014    0.6722   -1.4560 C.ar    1  LIG1       -0.0609
     43 C          11.9661    0.8198   -0.3115 C.ar    1  LIG1       -0.0174
     44 C          14.7356    0.3496   -0.2566 C.ar    1  LIG1       -0.0588
     45 H          14.6804    0.7388   -2.3728 H       1  LIG1        0.0618
     46 C          12.6233    0.4883    0.8840 C.ar    1  LIG1       -0.0511
     47 C          14.0014    0.2496    0.9318 C.ar    1  LIG1       -0.0499
     48 H          12.0429    0.4319    1.8016 H       1  LIG1        0.0626
     49 H          15.8084    0.1745   -0.2412 H       1  LIG1        0.0620
     50 H          12.2395    1.1369   -2.4284 H       1  LIG1        0.0624
     51 C          14.6744   -0.1282    2.2309 C.3     1  LIG1       -0.0397
     52 H          15.7106    0.2217    2.2619 H       1  LIG1        0.0278
     53 H          14.6954   -1.2171    2.3644 H       1  LIG1        0.0278
     54 H          14.1483    0.2940    3.0923 H       1  LIG1        0.0278
@<TRIPOS>BOND
     1    10     1    1
     2     5     2    1
     3    39    37    1
     4    50    41    1
     5    45    42    1
     6     1     2   ar
     7     1     3   ar
     8     2     4   ar
     9    41    42   ar
    10    41    43   ar
    11    42    44   ar
    12    37    38    1
    13    37    40    1
    14    37    34    1
    15    23    15    1
    16    19    16    1
    17    35    33    1
    18    15    16   ar
    19    15    17   ar
    20    34    33   ar
    21    34    31   ar
    22    16    18   ar
    23    33    30   ar
    24     9     3    1
    25     3     6   ar
    26     4    17    1
    27     4     7   ar
    28    31    43    1
    29    31    29   ar
    30    43    46   ar
    31    17    20   ar
    32    44    49    1
    33    44    47   ar
    34    18    30    1
    35    18    21   ar
    36    30    28   ar
    37    29    28   ar
    38    29    32    1
    39    26    24    1
    40    28    36    1
    41    20    21   ar
    42    20    22    1
    43    21    24    1
    44     6     7   ar
    45     6     8    1
    46     7    11    1
    47    46    47   ar
    48    46    48    1
    49    47    51    1
    50    24    27    1
    51    24    25    1
    52    11    14    1
    53    11    13    1
    54    11    12    1
    55    51    52    1
    56    51    53    1
    57    51    54    1
