@<TRIPOS>MOLECULE
mol_data/opt/b3lyp/geoms/mol2/4ai4ai-4ai-4ai-.out
 54 57 0 0 0
SMALL
GASTEIGER

@<TRIPOS>ATOM
      1 C          -0.2736    0.1242   -0.6109 C.ar    1  LIG1       -0.0612
      2 C           1.1119    0.1095   -0.4723 C.ar    1  LIG1       -0.0538
      3 C          -0.9493    1.3434   -0.6020 C.ar    1  LIG1       -0.0615
      4 C           1.8515    1.2958   -0.3302 C.ar    1  LIG1       -0.0150
      5 H           1.6458   -0.8362   -0.4920 H       1  LIG1        0.0624
      6 C          -0.2291    2.5263   -0.4478 C.ar    1  LIG1       -0.0583
      7 C           1.1656    2.5330   -0.3111 C.ar    1  LIG1       -0.0427
      8 H          -0.7600    3.4749   -0.4209 H       1  LIG1        0.0620
      9 H          -2.0301    1.3752   -0.7063 H       1  LIG1        0.0618
     10 H          -0.8184   -0.8081   -0.7273 H       1  LIG1        0.0618
     11 C           1.8740    3.8562   -0.1174 C.3     1  LIG1       -0.0391
     12 H           1.1853    4.6020    0.2898 H       1  LIG1        0.0278
     13 H           2.2604    4.2571   -1.0621 H       1  LIG1        0.0278
     14 H           2.7249    3.7672    0.5627 H       1  LIG1        0.0278
     15 C           4.2135    1.8904   -1.0253 C.ar    1  LIG1       -0.0534
     16 C           5.5879    1.7325   -0.8869 C.ar    1  LIG1       -0.0532
     17 C           3.3322    1.1910   -0.1888 C.ar    1  LIG1       -0.0173
     18 C           6.1440    0.8757    0.0775 C.ar    1  LIG1       -0.0149
     19 H           6.2564    2.2641   -1.5581 H       1  LIG1        0.0624
     20 C           3.8898    0.3450    0.7803 C.ar    1  LIG1       -0.0505
     21 C           5.2698    0.1709    0.9369 C.ar    1  LIG1       -0.0422
     22 H           3.2200   -0.1799    1.4569 H       1  LIG1        0.0626
     23 H           3.8230    2.5373   -1.8043 H       1  LIG1        0.0624
     24 C           5.7640   -0.7346    2.0445 C.3     1  LIG1       -0.0391
     25 H           6.6939   -0.3680    2.4862 H       1  LIG1        0.0278
     26 H           5.9594   -1.7525    1.6861 H       1  LIG1        0.0278
     27 H           5.0140   -0.8121    2.8368 H       1  LIG1        0.0278
     28 C           8.4227    1.9190    0.2385 C.ar    1  LIG1       -0.0534
     29 C           9.8090    1.8174    0.2762 C.ar    1  LIG1       -0.0532
     30 C           7.6281    0.7662    0.1562 C.ar    1  LIG1       -0.0173
     31 C          10.4620    0.5755    0.2207 C.ar    1  LIG1       -0.0149
     32 H          10.4105    2.7199    0.3365 H       1  LIG1        0.0624
     33 C           8.2827   -0.4725    0.1128 C.ar    1  LIG1       -0.0505
     34 C           9.6763   -0.5973    0.1411 C.ar    1  LIG1       -0.0422
     35 H           7.6863   -1.3777    0.0409 H       1  LIG1        0.0626
     36 H           7.9493    2.8952    0.2869 H       1  LIG1        0.0624
     37 C          10.2819   -1.9840    0.1089 C.3     1  LIG1       -0.0391
     38 H          11.1830   -2.0485    0.7239 H       1  LIG1        0.0278
     39 H          10.5658   -2.2840   -0.9068 H       1  LIG1        0.0278
     40 H           9.5632   -2.7238    0.4730 H       1  LIG1        0.0278
     41 C          12.6351    1.2141    1.2991 C.ar    1  LIG1       -0.0540
     42 C          14.0294    1.2232    1.3318 C.ar    1  LIG1       -0.0609
     43 C          11.9526    0.5537    0.2662 C.ar    1  LIG1       -0.0174
     44 C          14.7611    0.5807    0.3352 C.ar    1  LIG1       -0.0588
     45 H          14.5466    1.7282    2.1429 H       1  LIG1        0.0618
     46 C          12.7093   -0.0837   -0.7303 C.ar    1  LIG1       -0.0511
     47 C          14.1075   -0.0790   -0.7148 C.ar    1  LIG1       -0.0499
     48 H          12.1941   -0.5768   -1.5499 H       1  LIG1        0.0626
     49 H          15.8478    0.5899    0.3696 H       1  LIG1        0.0620
     50 H          12.0680    1.7036    2.0853 H       1  LIG1        0.0624
     51 C          14.8980   -0.7457   -1.8168 C.3     1  LIG1       -0.0397
     52 H          15.7329   -1.3280   -1.4133 H       1  LIG1        0.0278
     53 H          15.3248   -0.0050   -2.5041 H       1  LIG1        0.0278
     54 H          14.2717   -1.4194   -2.4081 H       1  LIG1        0.0278
@<TRIPOS>BOND
     1    53    51    1
     2    54    51    1
     3    51    52    1
     4    51    47    1
     5    23    15    1
     6    19    16    1
     7    48    46    1
     8    13    11    1
     9    15    16   ar
    10    15    17   ar
    11    39    37    1
    12    16    18   ar
    13    46    47   ar
    14    46    43   ar
    15    10     1    1
    16    47    44   ar
    17     9     3    1
    18     1     3   ar
    19     1     2   ar
    20     3     6   ar
    21     5     2    1
    22     2     4   ar
    23     6     8    1
    24     6     7   ar
    25     4     7   ar
    26     4    17    1
    27     7    11    1
    28    17    20   ar
    29    11    12    1
    30    11    14    1
    31    35    33    1
    32    18    30    1
    33    18    21   ar
    34    37    34    1
    35    37    40    1
    36    37    38    1
    37    33    34   ar
    38    33    30   ar
    39    34    31   ar
    40    30    28   ar
    41    31    43    1
    42    31    29   ar
    43    28    29   ar
    44    28    36    1
    45    43    41   ar
    46    29    32    1
    47    44    49    1
    48    44    42   ar
    49    20    21   ar
    50    20    22    1
    51    21    24    1
    52    41    42   ar
    53    41    50    1
    54    42    45    1
    55    26    24    1
    56    24    25    1
    57    24    27    1
