@<TRIPOS>MOLECULE
mol_data/opt/b3lyp/geoms/mol2/4ai6fi-13ei13ie-.out
 54 57 0 0 0
SMALL
GASTEIGER

@<TRIPOS>ATOM
      1 C          -0.2000    0.7351   -1.0091 C.ar    1  LIG1       -0.0612
      2 C           1.1829    0.5813   -0.9357 C.ar    1  LIG1       -0.0536
      3 C          -0.8131    1.7709   -0.3055 C.ar    1  LIG1       -0.0615
      4 C           1.9730    1.4481   -0.1633 C.ar    1  LIG1       -0.0099
      5 H           1.6716   -0.2158   -1.4885 H       1  LIG1        0.0624
      6 C          -0.0403    2.6328    0.4717 C.ar    1  LIG1       -0.0583
      7 C           1.3506    2.4916    0.5657 C.ar    1  LIG1       -0.0426
      8 H          -0.5248    3.4281    1.0321 H       1  LIG1        0.0620
      9 H          -1.8896    1.9058   -0.3552 H       1  LIG1        0.0618
     10 H          -0.7912    0.0546   -1.6144 H       1  LIG1        0.0618
     11 C           2.1467    3.4153    1.4607 C.3     1  LIG1       -0.0391
     12 H           1.4842    4.0804    2.0201 H       1  LIG1        0.0278
     13 H           2.8449    4.0377    0.8909 H       1  LIG1        0.0278
     14 H           2.7459    2.8475    2.1800 H       1  LIG1        0.0278
     15 C           4.3578    2.1494   -0.6938 C.ar    1  LIG1        0.2208
     16 C           3.4490    1.2339   -0.1167 C.ar    1  LIG1        0.0440
     17 C           4.0232    0.1199    0.4916 C.ar    1  LIG1       -0.0439
     18 C           5.4077   -0.0901    0.5355 C.ar    1  LIG1       -0.0222
     19 C           6.2043    0.8760   -0.1155 C.ar    1  LIG1        0.0950
     20 N           5.6649    1.9788   -0.6905 N.ar    1  LIG1       -0.2107
     21 H           3.3689   -0.5952    0.9842 H       1  LIG1        0.0629
     22 O           3.9328    3.2890   -1.3071 O.3     1  LIG1       -0.4920
     23 H           2.9650    3.2615   -1.3546 H       1  LIG1        0.2937
     24 C           5.9539   -1.2532    1.3233 C.3     1  LIG1       -0.0376
     25 H           6.8766   -0.9832    1.8438 H       1  LIG1        0.0278
     26 H           6.1942   -2.1098    0.6884 H       1  LIG1        0.0278
     27 H           5.2223   -1.5773    2.0693 H       1  LIG1        0.0278
     28 C           7.6724    0.8713   -0.1880 C.ar    1  LIG1        0.0816
     29 C           8.6962   -0.0937   -0.2504 C.ar    1  LIG1        0.0549
     30 C           9.9472    0.6028   -0.3681 C.ar    1  LIG1       -0.0077
     31 C           9.6578    1.9615   -0.3829 C.ar    1  LIG1        0.0678
     32 N           8.2902    2.0897   -0.2841 N.ar    1  LIG1       -0.3506
     33 H           7.7558    2.9466   -0.2880 H       1  LIG1        0.1660
     34 C           8.5967   -1.5037   -0.3650 C.1     1  LIG1       -0.0672
     35 C           8.5997   -2.7081   -0.5014 C.1     1  LIG1       -0.1138
     36 H           8.5839   -3.7661   -0.6224 H       1  LIG1        0.1232
     37 C          11.2906   -0.0380   -0.5299 C.3     1  LIG1       -0.0365
     38 H          11.6907   -0.4038    0.4236 H       1  LIG1        0.0279
     39 H          12.0126    0.6716   -0.9422 H       1  LIG1        0.0279
     40 H          11.2284   -0.9013   -1.1999 H       1  LIG1        0.0279
     41 C          10.5141    3.1294   -0.5276 C.ar    1  LIG1        0.0673
     42 C          11.6687    3.5185    0.1328 C.ar    1  LIG1       -0.0084
     43 C          12.0626    4.7864   -0.4247 C.ar    1  LIG1        0.0455
     44 C          11.1301    5.1232   -1.3956 C.ar    1  LIG1        0.0179
     45 N          10.1973    4.1292   -1.4411 N.ar    1  LIG1       -0.3582
     46 H           9.4638    4.0528   -2.1284 H       1  LIG1        0.1654
     47 H          11.0759    5.9896   -2.0367 H       1  LIG1        0.0819
     48 C          12.3587    2.8091    1.2571 C.3     1  LIG1       -0.0365
     49 H          12.6616    3.5189    2.0334 H       1  LIG1        0.0279
     50 H          13.2690    2.2971    0.9223 H       1  LIG1        0.0279
     51 H          11.7035    2.0604    1.7101 H       1  LIG1        0.0279
     52 C          13.1834    5.5631   -0.0316 C.1     1  LIG1       -0.0679
     53 C          14.1445    6.2105    0.3208 C.1     1  LIG1       -0.1139
     54 H          14.9886    6.7848    0.6234 H       1  LIG1        0.1232
@<TRIPOS>BOND
     1    46    45    1
     2    47    44    1
     3    10     1    1
     4     5     2    1
     5    45    44   ar
     6    45    41   ar
     7    44    43   ar
     8    23    22    1
     9    22    15    1
    10    40    37    1
    11     1     2   ar
    12     1     3   ar
    13    39    37    1
    14     2     4   ar
    15    15    20   ar
    16    15    16   ar
    17    20    19   ar
    18    36    35    1
    19    37    30    1
    20    37    38    1
    21    41    31    1
    22    41    42   ar
    23    35    34    3
    24    43    52    1
    25    43    42   ar
    26    31    30   ar
    27    31    32   ar
    28    30    29   ar
    29    34    29    1
    30     9     3    1
    31     3     6   ar
    32    33    32    1
    33    32    28   ar
    34    29    28   ar
    35    28    19    1
    36     4    16    1
    37     4     7   ar
    38    16    17   ar
    39    19    18   ar
    40    52    53    3
    41    42    48    1
    42    53    54    1
    43     6     7   ar
    44     6     8    1
    45    17    18   ar
    46    17    21    1
    47    18    24    1
    48     7    11    1
    49    26    24    1
    50    13    11    1
    51    50    48    1
    52    48    51    1
    53    48    49    1
    54    24    25    1
    55    24    27    1
    56    11    12    1
    57    11    14    1
