@<TRIPOS>MOLECULE
mol_data/opt/b3lyp/geoms/mol2/4al.out
 16 16 0 0 0
SMALL
GASTEIGER

@<TRIPOS>ATOM
      1 C          -0.0264   -0.0224    0.0005 C.ar    1  LIG1       -0.0615
      2 C           1.3629   -0.1136    0.0002 C.ar    1  LIG1       -0.0583
      3 C          -0.6272    1.2413    0.0003 C.ar    1  LIG1       -0.0583
      4 C           2.1599    1.0358   -0.0003 C.ar    1  LIG1       -0.0200
      5 H           1.8441   -1.0877    0.0003 H       1  LIG1        0.0619
      6 C           0.1501    2.3934   -0.0002 C.ar    1  LIG1       -0.0200
      7 C           1.5495    2.2953   -0.0005 C.ar    1  LIG1        0.1201
      8 H          -0.2983    3.3815   -0.0003 H       1  LIG1        0.0654
      9 H           3.2394    0.9386   -0.0006 H       1  LIG1        0.0654
     10 H          -1.7099    1.3294    0.0006 H       1  LIG1        0.0619
     11 H          -0.6364   -0.9201    0.0010 H       1  LIG1        0.0618
     12 O           2.2239    3.4842   -0.0010 O.3     1  LIG1       -0.4951
     13 C           3.6415    3.4509   -0.0015 C.3     1  LIG1        0.0788
     14 H           3.9677    4.4920   -0.0019 H       1  LIG1        0.0660
     15 H           4.0367    2.9504    0.8920 H       1  LIG1        0.0660
     16 H           4.0361    2.9499   -0.8949 H       1  LIG1        0.0660
@<TRIPOS>BOND
     1    16    13    1
     2    14    13    1
     3    13    12    1
     4    13    15    1
     5    12     7    1
     6     9     4    1
     7     7     4   ar
     8     7     6   ar
     9     4     2   ar
    10     8     6    1
    11     6     3   ar
    12     2     5    1
    13     2     1   ar
    14     3     1   ar
    15     3    10    1
    16     1    11    1
