@<TRIPOS>MOLECULE
mol_data/opt/b3lyp/geoms/mol2/4da4ih-12di-13ad-.out
 48 51 0 0 0
SMALL
GASTEIGER

@<TRIPOS>ATOM
      1 C          -0.2351    0.1904   -0.6058 C.ar    1  LIG1        0.0523
      2 C           1.1670    0.1380   -0.5997 C.ar    1  LIG1       -0.0366
      3 C          -0.9091    1.2302    0.0552 C.ar    1  LIG1       -0.0443
      4 C           1.9140    1.1202    0.0622 C.ar    1  LIG1       -0.0164
      5 H           1.6685   -0.6614   -1.1329 H       1  LIG1        0.0636
      6 C          -0.1696    2.2086    0.7125 C.ar    1  LIG1       -0.0600
      7 C           1.2243    2.1563    0.7147 C.ar    1  LIG1       -0.0539
      8 H          -0.6810    3.0140    1.2303 H       1  LIG1        0.0618
      9 H          -1.9932    1.2602    0.0473 H       1  LIG1        0.0630
     10 N          -1.5877   -1.6400   -1.8593 N.1     1  LIG1       -0.1909
     11 C          -0.9815   -0.8208   -1.2984 C.1     1  LIG1        0.0992
     12 H           1.7922    2.9174    1.2410 H       1  LIG1        0.0624
     13 C           4.1625   -0.0166    0.4666 C.ar    1  LIG1       -0.0420
     14 C           5.5479    0.0916    0.4204 C.ar    1  LIG1       -0.0458
     15 C           3.4045    1.1037    0.0460 C.ar    1  LIG1       -0.0132
     16 C           6.2330    1.2373   -0.0328 C.ar    1  LIG1        0.0395
     17 H           6.1335   -0.7514    0.7698 H       1  LIG1        0.0628
     18 C           4.0657    2.2541   -0.3870 C.ar    1  LIG1       -0.0324
     19 C           5.4637    2.3592   -0.4489 C.ar    1  LIG1        0.0360
     20 H           3.4740    3.1043   -0.7168 H       1  LIG1        0.0642
     21 C           3.5370   -1.2868    0.9993 C.3     1  LIG1       -0.0391
     22 H           4.2561   -1.8376    1.6109 H       1  LIG1        0.0278
     23 H           3.2200   -1.9617    0.1956 H       1  LIG1        0.0278
     24 H           2.6560   -1.0822    1.6139 H       1  LIG1        0.0278
     25 N           6.0224    3.5585   -0.8806 N.pl3   1  LIG1       -0.3574
     26 H           6.9664    3.5092   -1.2328 H       1  LIG1        0.1423
     27 H           5.4117    4.1155   -1.4622 H       1  LIG1        0.1423
     28 C           7.6864    1.2175   -0.0581 C.ar    1  LIG1        0.1551
     29 C           8.6415    0.2100   -0.0582 C.ar    1  LIG1        0.1010
     30 C           9.9464    0.8263   -0.0510 C.ar    1  LIG1        0.0148
     31 C           9.7105    2.1740   -0.0644 C.ar    1  LIG1        0.1559
     32 O           8.3504    2.4135   -0.0710 O.2     1  LIG1       -0.4517
     33 N           8.2904   -2.3484   -0.0811 N.1     1  LIG1       -0.1907
     34 C           8.4244   -1.1912   -0.0740 C.1     1  LIG1        0.1032
     35 C          11.2635    0.1160   -0.0301 C.3     1  LIG1       -0.0348
     36 H          11.9902    0.6537    0.5862 H       1  LIG1        0.0279
     37 H          11.6864    0.0211   -1.0373 H       1  LIG1        0.0279
     38 H          11.1519   -0.8935    0.3729 H       1  LIG1        0.0279
     39 C          10.5383    3.3526   -0.0464 C.ar    1  LIG1        0.0837
     40 C          11.8907    3.5444   -0.2714 C.ar    1  LIG1       -0.0160
     41 C          12.1524    4.9382   -0.0996 C.ar    1  LIG1        0.0697
     42 C          10.9494    5.5549    0.2203 C.ar    1  LIG1        0.0197
     43 N           9.9889    4.5905    0.2467 N.ar    1  LIG1       -0.3571
     44 H           9.0165    4.7306    0.4770 H       1  LIG1        0.1655
     45 H          10.7299    6.5915    0.4226 H       1  LIG1        0.0820
     46 H          12.6121    2.7922   -0.5492 H       1  LIG1        0.0653
     47 N          14.4361    6.1221   -0.3556 N.1     1  LIG1       -0.1908
     48 C          13.4060    5.5925   -0.2393 C.1     1  LIG1        0.1007
@<TRIPOS>BOND
     1    10    11    3
     2    27    25    1
     3    11     1    1
     4    26    25    1
     5     5     2    1
     6    37    35    1
     7    25    19    1
     8    20    18    1
     9     1     2   ar
    10     1     3   ar
    11     2     4   ar
    12    46    40    1
    13    19    18   ar
    14    19    16   ar
    15    18    15   ar
    16    47    48    3
    17    40    41   ar
    18    40    39   ar
    19    48    41    1
    20    41    42   ar
    21    33    34    3
    22    34    29    1
    23    32    31   ar
    24    32    28   ar
    25    31    30   ar
    26    31    39    1
    27    29    28   ar
    28    29    30   ar
    29    28    16    1
    30    30    35    1
    31    39    43   ar
    32    16    14   ar
    33    35    38    1
    34    35    36    1
    35    15     4    1
    36    15    13   ar
    37     9     3    1
    38     3     6   ar
    39     4     7   ar
    40    23    21    1
    41    42    43   ar
    42    42    45    1
    43    43    44    1
    44    14    13   ar
    45    14    17    1
    46    13    21    1
    47     6     7   ar
    48     6     8    1
    49     7    12    1
    50    21    22    1
    51    21    24    1
