@<TRIPOS>MOLECULE
mol_data/opt/b3lyp/geoms/mol2/4da4eh-4ia-4dd-.out
 52 55 0 0 0
SMALL
GASTEIGER

@<TRIPOS>ATOM
      1 C          -0.3229    0.1724   -0.3484 C.ar    1  LIG1        0.0523
      2 C           1.0756    0.0723   -0.3199 C.ar    1  LIG1       -0.0366
      3 C          -0.9584    1.3726    0.0110 C.ar    1  LIG1       -0.0443
      4 C           1.8580    1.1685    0.0648 C.ar    1  LIG1       -0.0154
      5 H           1.5472   -0.8598   -0.6052 H       1  LIG1        0.0636
      6 C          -0.1831    2.4618    0.3949 C.ar    1  LIG1       -0.0600
      7 C           1.2080    2.3621    0.4205 C.ar    1  LIG1       -0.0539
      8 H          -0.6634    3.3918    0.6826 H       1  LIG1        0.0618
      9 H          -2.0407    1.4373   -0.0121 H       1  LIG1        0.0630
     10 N          -1.7483   -1.8723   -1.0829 N.1     1  LIG1       -0.1909
     11 C          -1.1083   -0.9582   -0.7540 C.1     1  LIG1        0.0992
     12 H           1.8022    3.2126    0.7400 H       1  LIG1        0.0624
     13 C           4.0567    0.0206    0.6597 C.ar    1  LIG1        0.0331
     14 C           5.4616    0.0449    0.6124 C.ar    1  LIG1       -0.0363
     15 C           3.3443    1.0957    0.0670 C.ar    1  LIG1       -0.0007
     16 C           6.1855    1.0746    0.0140 C.ar    1  LIG1        0.0042
     17 H           6.0031   -0.7687    1.0839 H       1  LIG1        0.0637
     18 C           4.0667    2.1293   -0.5310 C.ar    1  LIG1       -0.0316
     19 C           5.4703    2.1490   -0.5715 C.ar    1  LIG1        0.0330
     20 H           3.5220    2.9410   -1.0058 H       1  LIG1        0.0643
     21 C           3.4146   -1.0607    1.3374 C.1     1  LIG1       -0.0690
     22 C           2.9159   -1.9960    1.9232 C.1     1  LIG1       -0.1139
     23 H           2.4622   -2.8119    2.4366 H       1  LIG1        0.1232
     24 N           6.1306    3.2244   -1.1480 N.pl3   1  LIG1       -0.3575
     25 H           7.0848    3.0606   -1.4355 H       1  LIG1        0.1423
     26 H           5.5972    3.7684   -1.8107 H       1  LIG1        0.1423
     27 C           8.4153    0.0553   -0.6651 C.ar    1  LIG1       -0.0421
     28 C           9.8122    0.0800   -0.5892 C.ar    1  LIG1       -0.0505
     29 C           7.6796    1.0510    0.0177 C.ar    1  LIG1       -0.0131
     30 C          10.5058    1.0569    0.1382 C.ar    1  LIG1       -0.0163
     31 H          10.3702   -0.6758   -1.1326 H       1  LIG1        0.0626
     32 C           8.3757    2.0403    0.7318 C.ar    1  LIG1       -0.0531
     33 C           9.7643    2.0499    0.7956 C.ar    1  LIG1       -0.0534
     34 H           7.8097    2.8031    1.2576 H       1  LIG1        0.0624
     35 C           7.7399   -1.0228   -1.4819 C.3     1  LIG1       -0.0391
     36 H           8.4491   -1.4864   -2.1723 H       1  LIG1        0.0278
     37 H           6.9009   -0.6267   -2.0605 H       1  LIG1        0.0278
     38 H           7.3382   -1.8181   -0.8446 H       1  LIG1        0.0278
     39 H          10.2721    2.8095    1.3821 H       1  LIG1        0.0624
     40 C          12.7764   -0.0715    0.4390 C.ar    1  LIG1        0.0595
     41 C          14.1803    0.0074    0.4730 C.ar    1  LIG1       -0.0425
     42 C          11.9901    1.0814    0.1886 C.ar    1  LIG1        0.0007
     43 C          14.8278    1.2166    0.2705 C.ar    1  LIG1       -0.0431
     44 H          14.7529   -0.8917    0.6718 H       1  LIG1        0.0631
     45 C          12.6643    2.2929   -0.0086 C.ar    1  LIG1       -0.0354
     46 C          14.0629    2.3697    0.0312 C.ar    1  LIG1        0.0524
     47 H          12.0914    3.1890   -0.2179 H       1  LIG1        0.0637
     48 H          15.9097    1.2767    0.2976 H       1  LIG1        0.0631
     49 N          11.7550   -2.4088    0.9309 N.1     1  LIG1       -0.1909
     50 C          12.1824   -1.3506    0.7054 C.1     1  LIG1        0.0998
     51 N          15.2358    4.6543   -0.3595 N.1     1  LIG1       -0.1909
     52 C          14.7112    3.6311   -0.1848 C.1     1  LIG1        0.0992
@<TRIPOS>BOND
     1    36    35    1
     2    37    35    1
     3    26    24    1
     4    35    38    1
     5    35    27    1
     6    25    24    1
     7    24    19    1
     8    31    28    1
     9    10    11    3
    10    20    18    1
    11    11     1    1
    12    27    28   ar
    13    27    29   ar
    14     5     2    1
    15    28    30   ar
    16    19    18   ar
    17    19    16   ar
    18    18    15   ar
    19    51    52    3
    20     1     2   ar
    21     1     3   ar
    22     2     4   ar
    23    47    45    1
    24    52    46    1
    25     9     3    1
    26    45    46   ar
    27    45    42   ar
    28     3     6   ar
    29    16    29    1
    30    16    14   ar
    31    29    32   ar
    32    46    43   ar
    33     4    15    1
    34     4     7   ar
    35    15    13   ar
    36    30    42    1
    37    30    33   ar
    38    42    40   ar
    39    43    48    1
    40    43    41   ar
    41     6     7   ar
    42     6     8    1
    43     7    12    1
    44    40    41   ar
    45    40    50    1
    46    41    44    1
    47    14    13   ar
    48    14    17    1
    49    13    21    1
    50    50    49    3
    51    32    33   ar
    52    32    34    1
    53    33    39    1
    54    21    22    3
    55    22    23    1
