@<TRIPOS>MOLECULE
mol_data/opt/b3lyp/geoms/mol2/4da4dd4de-4fd-.out
 50 53 0 0 0
SMALL
GASTEIGER

@<TRIPOS>ATOM
      1 C          -0.3145    0.1338    0.3592 C.ar    1  LIG1        0.0523
      2 C           1.0861    0.0655    0.3503 C.ar    1  LIG1       -0.0366
      3 C          -0.9700    1.3109   -0.0363 C.ar    1  LIG1       -0.0443
      4 C           1.8427    1.1740   -0.0499 C.ar    1  LIG1       -0.0154
      5 H           1.5719   -0.8478    0.6729 H       1  LIG1        0.0636
      6 C          -0.2176    2.4118   -0.4346 C.ar    1  LIG1       -0.0600
      7 C           1.1747    2.3472   -0.4389 C.ar    1  LIG1       -0.0539
      8 H          -0.7169    3.3229   -0.7477 H       1  LIG1        0.0618
      9 H          -2.0535    1.3511   -0.0274 H       1  LIG1        0.0630
     10 N          -1.7126   -1.9120    1.1401 N.1     1  LIG1       -0.1909
     11 C          -1.0821   -1.0005    0.7883 C.1     1  LIG1        0.0992
     12 H           1.7516    3.2063   -0.7674 H       1  LIG1        0.0624
     13 C           4.0848    0.0785   -0.5894 C.ar    1  LIG1        0.0601
     14 C           5.4863    0.0931   -0.5388 C.ar    1  LIG1       -0.0348
     15 C           3.3287    1.1391   -0.0343 C.ar    1  LIG1        0.0008
     16 C           6.1912    1.1496    0.0409 C.ar    1  LIG1        0.0020
     17 H           6.0295   -0.7319   -0.9844 H       1  LIG1        0.0637
     18 C           4.0371    2.1956    0.5444 C.ar    1  LIG1       -0.0348
     19 C           5.4382    2.2158    0.5862 C.ar    1  LIG1        0.0601
     20 H           3.4912    3.0131    1.0017 H       1  LIG1        0.0637
     21 N           2.9854   -1.9160   -1.8389 N.1     1  LIG1       -0.1908
     22 C           3.4568   -1.0188   -1.2685 C.1     1  LIG1        0.0998
     23 N           6.5531    4.2511    1.7539 N.1     1  LIG1       -0.1908
     24 C           6.0745    3.3304    1.2287 C.1     1  LIG1        0.0998
     25 C           8.4151    0.0675    0.6060 C.ar    1  LIG1        0.0601
     26 C           9.8149    0.0847    0.5812 C.ar    1  LIG1       -0.0348
     27 C           7.6789    1.1434    0.0538 C.ar    1  LIG1        0.0019
     28 C          10.5315    1.1437    0.0181 C.ar    1  LIG1        0.0023
     29 H          10.3523   -0.7478    1.0179 H       1  LIG1        0.0637
     30 C           8.3930    2.1993   -0.5087 C.ar    1  LIG1       -0.0368
     31 C           9.7995    2.2205   -0.5442 C.ar    1  LIG1        0.0331
     32 H           7.8589    3.0298   -0.9553 H       1  LIG1        0.0636
     33 N           7.2509   -1.9566    1.7436 N.1     1  LIG1       -0.1908
     34 C           7.7601   -1.0440    1.2322 C.1     1  LIG1        0.0998
     35 C          10.4364    3.3275   -1.1835 C.1     1  LIG1       -0.0690
     36 C          10.9282    4.2820   -1.7409 C.1     1  LIG1       -0.1139
     37 H          11.3765    5.1207   -2.2229 H       1  LIG1        0.1232
     38 C          12.7488    0.0155   -0.4332 C.ar    1  LIG1        0.1246
     39 C          14.1485    0.0107   -0.3920 C.ar    1  LIG1       -0.0184
     40 C          12.0194    1.1277    0.0437 C.ar    1  LIG1        0.0260
     41 C          14.8425    1.0963    0.1221 C.ar    1  LIG1       -0.0409
     42 H          14.6924   -0.8517   -0.7694 H       1  LIG1        0.0655
     43 C          12.7349    2.2112    0.5583 C.ar    1  LIG1       -0.0331
     44 C          14.1370    2.2098    0.6048 C.ar    1  LIG1        0.0526
     45 H          12.1950    3.0708    0.9371 H       1  LIG1        0.0638
     46 H          15.9264    1.0875    0.1533 H       1  LIG1        0.0631
     47 O          12.0460   -1.0337   -0.9383 O.3     1  LIG1       -0.5062
     48 H          12.6577   -1.7163   -1.2460 H       1  LIG1        0.2922
     49 N          15.4179    4.2503    1.5709 N.1     1  LIG1       -0.1909
     50 C          14.8414    3.3361    1.1400 C.1     1  LIG1        0.0992
@<TRIPOS>BOND
     1    37    36    1
     2    21    22    3
     3    36    35    3
     4    22    13    1
     5    48    47    1
     6    35    31    1
     7    17    14    1
     8    32    30    1
     9    47    38    1
    10    42    39    1
    11    12     7    1
    12     8     6    1
    13    13    14   ar
    14    13    15   ar
    15    31    30   ar
    16    31    28   ar
    17    14    16   ar
    18    30    27   ar
    19     7     6   ar
    20     7     4   ar
    21     6     3   ar
    22    38    39   ar
    23    38    40   ar
    24    39    41   ar
    25     4    15    1
    26     4     2   ar
    27     3     9    1
    28     3     1   ar
    29    15    18   ar
    30    28    40    1
    31    28    26   ar
    32    16    27    1
    33    16    19   ar
    34    40    43   ar
    35    27    25   ar
    36    41    46    1
    37    41    44   ar
    38     2     1   ar
    39     2     5    1
    40     1    11    1
    41    18    19   ar
    42    18    20    1
    43    43    44   ar
    44    43    45    1
    45    26    25   ar
    46    26    29    1
    47    19    24    1
    48    44    50    1
    49    25    34    1
    50    11    10    3
    51    50    49    3
    52    24    23    3
    53    34    33    3
