@<TRIPOS>MOLECULE
mol_data/opt/b3lyp/geoms/mol2/4dd.out
 14 14 0 0 0
SMALL
GASTEIGER

@<TRIPOS>ATOM
      1 C           0.0829    0.0410    0.0004 C.ar    1  LIG1        0.0518
      2 C           1.4880    0.0191    0.0000 C.ar    1  LIG1       -0.0431
      3 C          -0.6040    1.2669    0.0003 C.ar    1  LIG1       -0.0431
      4 C           2.1994    1.2118   -0.0005 C.ar    1  LIG1       -0.0431
      5 H           2.0105   -0.9309    0.0001 H       1  LIG1        0.0631
      6 C           0.1073    2.4596   -0.0002 C.ar    1  LIG1       -0.0431
      7 C           1.5124    2.4378   -0.0006 C.ar    1  LIG1        0.0518
      8 H          -0.4152    3.4096   -0.0003 H       1  LIG1        0.0631
      9 H           3.2834    1.2035   -0.0007 H       1  LIG1        0.0631
     10 H          -1.6884    1.2752    0.0006 H       1  LIG1        0.0631
     11 N          -1.2489   -2.1889    0.0012 N.1     1  LIG1       -0.1909
     12 C          -0.6520   -1.1908    0.0009 C.1     1  LIG1        0.0992
     13 N           2.8436    4.6680   -0.0015 N.1     1  LIG1       -0.1909
     14 C           2.2472    3.6695   -0.0011 C.1     1  LIG1        0.0992
@<TRIPOS>BOND
     1    13    14    3
     2    14     7    1
     3     9     4    1
     4     7     4   ar
     5     7     6   ar
     6     4     2   ar
     7     8     6    1
     8     6     3   ar
     9     2     5    1
    10     2     1   ar
    11     3     1   ar
    12     3    10    1
    13     1    12    1
    14    12    11    3
