@<TRIPOS>MOLECULE
mol_data/opt/b3lyp/geoms/mol2/4dd13da-6ha12ea.out
 43 46 0 0 0
SMALL
GASTEIGER

@<TRIPOS>ATOM
      1 C           0.0149   -0.0757    0.8112 C.ar    1  LIG1        0.0525
      2 C           1.3903   -0.0109    0.5634 C.ar    1  LIG1       -0.0340
      3 C          -0.8216    1.0093    0.4942 C.ar    1  LIG1       -0.0431
      4 C           1.9717    1.1285   -0.0156 C.ar    1  LIG1        0.0181
      5 H           2.0159   -0.8524    0.8340 H       1  LIG1        0.0637
      6 C          -0.2692    2.1407   -0.0842 C.ar    1  LIG1       -0.0425
      7 C           1.1090    2.2089   -0.3513 C.ar    1  LIG1        0.0610
      8 H          -0.8992    2.9819   -0.3510 H       1  LIG1        0.0631
      9 H          -1.8844    0.9539    0.6983 H       1  LIG1        0.0631
     10 N          -1.0125   -2.1913    1.9142 N.1     1  LIG1       -0.1909
     11 C          -0.5454   -1.2495    1.4175 C.1     1  LIG1        0.0992
     12 N           2.0022    4.3286   -1.5561 N.1     1  LIG1       -0.1908
     13 C           1.6043    3.3781   -1.0145 C.1     1  LIG1        0.0998
     14 C           3.4122    1.1600   -0.2571 C.ar    1  LIG1        0.0658
     15 C           4.2871    0.1342   -0.6568 C.ar    1  LIG1        0.0776
     16 C           5.5808    0.6973   -0.8018 C.ar    1  LIG1       -0.0183
     17 C           5.4921    2.0464   -0.4796 C.ar    1  LIG1        0.0515
     18 N           4.1729    2.2951   -0.1656 N.ar    1  LIG1       -0.3530
     19 H           3.8729    3.2012    0.1801 H       1  LIG1        0.1659
     20 N           3.6556   -2.3226   -1.1510 N.1     1  LIG1       -0.1908
     21 C           3.9343   -1.2130   -0.9332 C.1     1  LIG1        0.1013
     22 H           6.4620    0.1659   -1.1271 H       1  LIG1        0.0652
     23 C           6.2619    4.4654   -0.3194 C.ar    1  LIG1        0.1261
     24 C           6.5306    3.0695   -0.3991 C.ar    1  LIG1        0.0379
     25 C           7.8829    2.7017   -0.3478 C.ar    1  LIG1       -0.0472
     26 C           8.8803    3.6504   -0.1872 C.ar    1  LIG1       -0.0319
     27 C           8.4990    4.9957   -0.0541 C.ar    1  LIG1        0.1093
     28 N           7.2112    5.3789   -0.1358 N.ar    1  LIG1       -0.2286
     29 H           8.1510    1.6514   -0.4010 H       1  LIG1        0.0626
     30 N           4.9473    4.9585   -0.3624 N.pl3   1  LIG1       -0.3426
     31 H           4.9622    5.9702   -0.2811 H       1  LIG1        0.1437
     32 H           4.4029    4.6862   -1.1779 H       1  LIG1        0.1437
     33 H           9.9214    3.3603   -0.1396 H       1  LIG1        0.0640
     34 C           9.4777    6.0531    0.1693 C.ar    1  LIG1        0.1682
     35 C          10.8605    6.0771    0.3107 C.ar    1  LIG1        0.0718
     36 C          11.2169    7.4569    0.5097 C.ar    1  LIG1       -0.0078
     37 C          10.0535    8.1560    0.4761 C.ar    1  LIG1        0.0939
     38 O           8.9985    7.3255    0.2722 O.2     1  LIG1       -0.4601
     39 H           9.8149    9.2032    0.5763 H       1  LIG1        0.1030
     40 C          11.7775    4.9973    0.2769 C.1     1  LIG1       -0.0658
     41 C          12.5979    4.1068    0.2556 C.1     1  LIG1       -0.1138
     42 H          13.3181    3.3218    0.2375 H       1  LIG1        0.1232
     43 H          12.2139    7.8439    0.6554 H       1  LIG1        0.0661
@<TRIPOS>BOND
     1    12    13    3
     2    32    30    1
     3    20    21    3
     4    22    16    1
     5    13     7    1
     6    21    15    1
     7    16    15   ar
     8    16    17   ar
     9    15    14   ar
    10    17    24    1
    11    17    18   ar
    12    29    25    1
    13    24    25   ar
    14    24    23   ar
    15    30    23    1
    16    30    31    1
    17     7     6   ar
    18     7     4   ar
    19     8     6    1
    20    25    26   ar
    21    23    28   ar
    22    14    18   ar
    23    14     4    1
    24    26    33    1
    25    26    27   ar
    26    18    19    1
    27    28    27   ar
    28     6     3   ar
    29    27    34    1
    30     4     2   ar
    31    34    38   ar
    32    34    35   ar
    33    42    41    1
    34    41    40    3
    35    38    37   ar
    36    40    35    1
    37    35    36   ar
    38    37    36   ar
    39    37    39    1
    40     3     9    1
    41     3     1   ar
    42    36    43    1
    43     2     1   ar
    44     2     5    1
    45     1    11    1
    46    11    10    3
