@<TRIPOS>MOLECULE
mol_data/opt/b3lyp/geoms/mol2/4dd4dd4dd.out
 38 40 0 0 0
SMALL
GASTEIGER

@<TRIPOS>ATOM
      1 C          -0.1221    0.5386    1.0396 C.ar    1  LIG1        0.0524
      2 C           1.2793    0.5207    0.9915 C.ar    1  LIG1       -0.0354
      3 C          -0.8539    1.2119    0.0489 C.ar    1  LIG1       -0.0431
      4 C           1.9716    1.1731   -0.0316 C.ar    1  LIG1        0.0020
      5 H           1.8275    0.0011    1.7687 H       1  LIG1        0.0637
      6 C          -0.1805    1.8606   -0.9760 C.ar    1  LIG1       -0.0425
      7 C           1.2235    1.8497   -1.0255 C.ar    1  LIG1        0.0596
      8 H          -0.7323    2.3782   -1.7524 H       1  LIG1        0.0631
      9 H          -1.9371    1.2214    0.0887 H       1  LIG1        0.0631
     10 N          -1.3643   -0.6513    2.9851 N.1     1  LIG1       -0.1909
     11 C          -0.8060   -0.1233    2.1126 C.1     1  LIG1        0.0992
     12 N           2.3676    3.0783   -3.0075 N.1     1  LIG1       -0.1909
     13 C           1.8704    2.5209   -2.1160 C.1     1  LIG1        0.0998
     14 C           4.2002   -0.0442   -0.0423 C.ar    1  LIG1        0.0601
     15 C           5.6021   -0.0225   -0.0394 C.ar    1  LIG1       -0.0348
     16 C           3.4612    1.1620   -0.0487 C.ar    1  LIG1        0.0020
     17 C           6.3146    1.1776   -0.0384 C.ar    1  LIG1        0.0020
     18 H           6.1359   -0.9655   -0.0335 H       1  LIG1        0.0637
     19 C           4.1738    2.3621   -0.0559 C.ar    1  LIG1       -0.0348
     20 C           5.5757    2.3838   -0.0487 C.ar    1  LIG1        0.0601
     21 H           3.6400    3.3051   -0.0628 H       1  LIG1        0.0637
     22 N           3.0361   -2.3663   -0.0522 N.1     1  LIG1       -0.1908
     23 C           3.5440   -1.3202   -0.0524 C.1     1  LIG1        0.0998
     24 N           6.7401    4.7056   -0.0719 N.1     1  LIG1       -0.1908
     25 C           6.2320    3.6596   -0.0660 C.1     1  LIG1        0.0998
     26 C           8.5596    0.4822   -0.9928 C.ar    1  LIG1        0.0596
     27 C           9.9632    0.4720   -0.9328 C.ar    1  LIG1       -0.0425
     28 C           7.8041    1.1669   -0.0101 C.ar    1  LIG1        0.0020
     29 C          10.6289    1.1292    0.0917 C.ar    1  LIG1       -0.0431
     30 H          10.5208   -0.0520   -1.7007 H       1  LIG1        0.0631
     31 C           8.4886    1.8279    1.0127 C.ar    1  LIG1       -0.0354
     32 C           9.8897    1.8106    1.0713 C.ar    1  LIG1        0.0524
     33 H           7.9346    2.3537    1.7814 H       1  LIG1        0.0637
     34 H          11.7118    1.1203    0.1396 H       1  LIG1        0.0631
     35 N           7.4299   -0.7632   -2.9726 N.1     1  LIG1       -0.1909
     36 C           7.9208   -0.1982   -2.0824 C.1     1  LIG1        0.0998
     37 N          11.1170    3.0168    3.0162 N.1     1  LIG1       -0.1909
     38 C          10.5654    2.4815    2.1438 C.1     1  LIG1        0.0992
@<TRIPOS>BOND
     1    12    13    3
     2    35    36    3
     3    13     7    1
     4    36    26    1
     5     8     6    1
     6    30    27    1
     7     7     6   ar
     8     7     4   ar
     9    26    27   ar
    10    26    28   ar
    11     6     3   ar
    12    27    29   ar
    13    24    25    3
    14    25    20    1
    15    21    19    1
    16    19    20   ar
    17    19    16   ar
    18    23    22    3
    19    23    14    1
    20    20    17   ar
    21    16    14   ar
    22    16     4    1
    23    14    15   ar
    24    15    17   ar
    25    15    18    1
    26    17    28    1
    27     4     2   ar
    28    28    31   ar
    29     3     9    1
    30     3     1   ar
    31    29    34    1
    32    29    32   ar
    33     2     1   ar
    34     2     5    1
    35    31    32   ar
    36    31    33    1
    37     1    11    1
    38    32    38    1
    39    11    10    3
    40    38    37    3
