@<TRIPOS>MOLECULE
mol_data/opt/b3lyp/geoms/mol2/4dd4dd13fe13ef4di-4ah13da12ef.out
 93 100 0 0 0
SMALL
GASTEIGER

@<TRIPOS>ATOM
      1 C           0.1768   -0.4632    2.3848 C.ar    1  LIG1        0.0524
      2 C           1.5114   -0.3769    1.9649 C.ar    1  LIG1       -0.0354
      3 C          -0.7690    0.4721    1.9349 C.ar    1  LIG1       -0.0431
      4 C           1.9321    0.6356    1.0963 C.ar    1  LIG1        0.0020
      5 H           2.2276   -1.1018    2.3330 H       1  LIG1        0.0637
      6 C          -0.3706    1.4800    1.0698 C.ar    1  LIG1       -0.0425
      7 C           0.9662    1.5696    0.6456 C.ar    1  LIG1        0.0596
      8 H          -1.0899    2.2046    0.7052 H       1  LIG1        0.0631
      9 H          -1.7997    0.4013    2.2629 H       1  LIG1        0.0631
     10 N          -0.5460   -2.3363    4.0325 N.1     1  LIG1       -0.1909
     11 C          -0.2193   -1.5020    3.2914 C.1     1  LIG1        0.0992
     12 N           1.5568    3.4748   -1.0188 N.1     1  LIG1       -0.1909
     13 C           1.3122    2.6147   -0.2746 C.1     1  LIG1        0.0998
     14 C           4.0528   -0.3723    0.1063 C.ar    1  LIG1        0.0602
     15 C           5.3959   -0.2746   -0.2507 C.ar    1  LIG1       -0.0333
     16 C           3.3575    0.7243    0.6848 C.ar    1  LIG1        0.0020
     17 C           6.1399    0.9113   -0.0636 C.ar    1  LIG1        0.0205
     18 H           5.8815   -1.1336   -0.6939 H       1  LIG1        0.0637
     19 C           4.0781    1.9008    0.8663 C.ar    1  LIG1       -0.0347
     20 C           5.4300    2.0126    0.5056 C.ar    1  LIG1        0.0616
     21 H           3.5925    2.7655    1.3036 H       1  LIG1        0.0637
     22 N           2.8610   -2.6316   -0.3748 N.1     1  LIG1       -0.1908
     23 C           3.3841   -1.6163   -0.1551 C.1     1  LIG1        0.0998
     24 N           6.5990    4.2999    0.8779 N.1     1  LIG1       -0.1908
     25 C           6.0553    3.2817    0.7148 C.1     1  LIG1        0.0998
     26 C           7.5280    0.9451   -0.4557 C.ar    1  LIG1        0.0915
     27 C           8.2674    0.0607   -1.2491 C.ar    1  LIG1        0.1581
     28 C           9.5910    0.5588   -1.4042 C.ar    1  LIG1        0.0934
     29 C           9.6561    1.7591   -0.6730 C.ar    1  LIG1        0.0839
     30 N           8.4176    1.9717   -0.1350 N.ar    1  LIG1       -0.3490
     31 H           8.2402    2.6617    0.5787 H       1  LIG1        0.1661
     32 O           7.7901   -1.0605   -1.8302 O.3     1  LIG1       -0.5035
     33 H           8.5036   -1.4394   -2.3710 H       1  LIG1        0.2923
     34 C          10.5208   -0.0620   -2.2692 C.1     1  LIG1       -0.0638
     35 C          11.2075   -0.6817   -3.0526 C.1     1  LIG1       -0.1137
     36 H          11.8605   -1.1851   -3.7276 H       1  LIG1        0.1232
     37 C          10.6965    2.7392   -0.4891 C.ar    1  LIG1        0.0839
     38 C          12.0908    2.6277   -0.3727 C.ar    1  LIG1        0.0934
     39 C          12.5919    3.9396   -0.1108 C.ar    1  LIG1        0.1581
     40 C          11.5084    4.8276   -0.0706 C.ar    1  LIG1        0.0915
     41 N          10.3764    4.0620   -0.2983 N.ar    1  LIG1       -0.3490
     42 H           9.4388    4.4358   -0.3134 H       1  LIG1        0.1661
     43 C          12.8770    1.4522   -0.4027 C.1     1  LIG1       -0.0638
     44 C          13.5692    0.4600   -0.3996 C.1     1  LIG1       -0.1137
     45 H          14.1745   -0.4162   -0.3960 H       1  LIG1        0.1232
     46 O          13.9170    4.2047   -0.0437 O.3     1  LIG1       -0.5035
     47 H          14.1317    4.6881    0.7724 H       1  LIG1        0.2923
     48 C          12.2288    7.0783    0.8478 C.ar    1  LIG1        0.0616
     49 C          12.0878    8.4731    0.8649 C.ar    1  LIG1       -0.0357
     50 C          11.4066    6.2819    0.0119 C.ar    1  LIG1        0.0196
     51 C          11.1306    9.1300    0.0885 C.ar    1  LIG1       -0.0137
     52 H          12.7423    9.0554    1.5046 H       1  LIG1        0.0637
     53 C          10.4389    6.9625   -0.7470 C.ar    1  LIG1       -0.0478
     54 C          10.2737    8.3485   -0.7272 C.ar    1  LIG1       -0.0420
     55 H           9.7983    6.3852   -1.4074 H       1  LIG1        0.0627
     56 N          13.9618    5.9631    2.4218 N.1     1  LIG1       -0.1908
     57 C          13.1833    6.4775    1.7228 C.1     1  LIG1        0.0998
     58 C           9.1753    8.9582   -1.5671 C.3     1  LIG1       -0.0391
     59 H           8.3916    8.2228   -1.7665 H       1  LIG1        0.0278
     60 H           9.5510    9.3030   -2.5374 H       1  LIG1        0.0278
     61 H           8.7228    9.8209   -1.0728 H       1  LIG1        0.0278
     62 C          10.9253   11.2419    1.4280 C.ar    1  LIG1       -0.0533
     63 C          10.8492   12.6262    1.5141 C.ar    1  LIG1       -0.0503
     64 C          11.0407   10.6136    0.1787 C.ar    1  LIG1       -0.0158
     65 C          10.9007   13.4452    0.3729 C.ar    1  LIG1        0.0202
     66 H          10.7225   13.0864    2.4869 H       1  LIG1        0.0625
     67 C          11.1196   11.4204   -0.9631 C.ar    1  LIG1       -0.0327
     68 C          11.0651   12.8153   -0.8896 C.ar    1  LIG1        0.0344
     69 H          11.2681   10.9582   -1.9353 H       1  LIG1        0.0642
     70 H          10.8570   10.6434    2.3304 H       1  LIG1        0.0624
     71 N          11.1348   13.5834   -2.0735 N.pl3   1  LIG1       -0.3574
     72 H          11.7824   14.3629   -2.0052 H       1  LIG1        0.1423
     73 H          11.3686   13.0222   -2.8843 H       1  LIG1        0.1423
     74 C          10.7498   14.8959    0.5067 C.ar    1  LIG1        0.0663
     75 C          11.0363   15.7671    1.5756 C.ar    1  LIG1        0.0777
     76 C          10.6313   17.0779    1.2023 C.ar    1  LIG1       -0.0153
     77 C          10.1087   16.9945   -0.0779 C.ar    1  LIG1        0.0851
     78 N          10.1989   15.6764   -0.4767 N.ar    1  LIG1       -0.3506
     79 H           9.8710   15.3107   -1.3616 H       1  LIG1        0.1660
     80 N          12.1539   15.1590    3.8250 N.1     1  LIG1       -0.1908
     81 C          11.6524   15.4245    2.8075 C.1     1  LIG1        0.1013
     82 H          10.7227   17.9741    1.7950 H       1  LIG1        0.0653
     83 C           9.5559   17.9948   -0.9475 C.ar    1  LIG1        0.1699
     84 C           9.3387   19.3549   -0.8114 C.ar    1  LIG1        0.1132
     85 C           8.7428   19.7720   -2.0576 C.ar    1  LIG1        0.1709
     86 C           8.6403   18.6668   -2.8477 C.ar    1  LIG1        0.1352
     87 O           9.1377   17.5721   -2.1734 O.2     1  LIG1       -0.4564
     88 H           8.2656   18.4888   -3.8422 H       1  LIG1        0.1068
     89 C           9.6312   20.1744    0.3022 C.1     1  LIG1       -0.0621
     90 C           9.8809   20.8794    1.2543 C.1     1  LIG1       -0.1137
     91 H          10.0953   21.5089    2.0868 H       1  LIG1        0.1232
     92 O           8.3882   21.0586   -2.2913 O.3     1  LIG1       -0.5028
     93 H           8.0021   21.1318   -3.1738 H       1  LIG1        0.2923
@<TRIPOS>BOND
     1    88    86    1
     2    36    35    1
     3    93    92    1
     4    35    34    3
     5    73    71    1
     6    86    87   ar
     7    86    85   ar
     8    60    58    1
     9    33    32    1
    10    92    85    1
    11    34    28    1
    12    87    83   ar
    13    71    72    1
    14    71    68    1
    15    85    84   ar
    16    69    67    1
    17    32    27    1
    18    59    58    1
    19    58    61    1
    20    58    54    1
    21    55    53    1
    22    28    27   ar
    23    28    29   ar
    24    79    78    1
    25    27    26   ar
    26    12    13    3
    27    67    68   ar
    28    67    64   ar
    29    83    84   ar
    30    83    77    1
    31    68    65   ar
    32    84    89    1
    33    53    54   ar
    34    53    50   ar
    35    54    51   ar
    36    18    15    1
    37    29    37    1
    38    29    30   ar
    39    37    38   ar
    40    37    41   ar
    41    78    77   ar
    42    78    74   ar
    43    26    30   ar
    44    26    17    1
    45    43    44    3
    46    43    38    1
    47    44    45    1
    48    22    23    3
    49    38    39   ar
    50    42    41    1
    51    41    40   ar
    52    13     7    1
    53    15    17   ar
    54    15    14   ar
    55    23    14    1
    56    30    31    1
    57    39    40   ar
    58    39    46    1
    59    77    76   ar
    60    40    50    1
    61    17    20   ar
    62    46    47    1
    63    50    48   ar
    64    51    64    1
    65    51    49   ar
    66    14    16   ar
    67    64    62   ar
    68    89    90    3
    69    65    74    1
    70    65    63   ar
    71    20    25    1
    72    20    19   ar
    73    74    75   ar
    74     7     6   ar
    75     7     4   ar
    76    16    19   ar
    77    16     4    1
    78     8     6    1
    79    25    24    3
    80    48    49   ar
    81    48    57    1
    82    49    52    1
    83    19    21    1
    84     6     3   ar
    85     4     2   ar
    86    76    75   ar
    87    76    82    1
    88    90    91    1
    89    62    63   ar
    90    62    70    1
    91    63    66    1
    92    75    81    1
    93    57    56    3
    94     3     9    1
    95     3     1   ar
    96     2     5    1
    97     2     1   ar
    98     1    11    1
    99    81    80    3
   100    11    10    3
