@<TRIPOS>MOLECULE
mol_data/opt/b3lyp/geoms/mol2/4dd4dd4dd4dd.out
 50 53 0 0 0
SMALL
GASTEIGER

@<TRIPOS>ATOM
      1 C          -0.2205    1.0297    1.2949 C.ar    1  LIG1        0.0524
      2 C           1.1801    0.9999    1.2313 C.ar    1  LIG1       -0.0354
      3 C          -0.9777    1.1712    0.1214 C.ar    1  LIG1       -0.0431
      4 C           1.8463    1.1167    0.0089 C.ar    1  LIG1        0.0020
      5 H           1.7476    0.8965    2.1487 H       1  LIG1        0.0637
      6 C          -0.3301    1.2834   -1.1005 C.ar    1  LIG1       -0.0425
      7 C           1.0728    1.2596   -1.1687 C.ar    1  LIG1        0.0596
      8 H          -0.9015    1.3854   -2.0160 H       1  LIG1        0.0631
      9 H          -2.0601    1.1915    0.1749 H       1  LIG1        0.0631
     10 N          -1.4131    0.8536    3.5950 N.1     1  LIG1       -0.1909
     11 C          -0.8774    0.9276    2.5658 C.1     1  LIG1        0.0992
     12 N           2.1699    1.4533   -3.5151 N.1     1  LIG1       -0.1909
     13 C           1.6932    1.3620   -2.4582 C.1     1  LIG1        0.0998
     14 C           4.0933    0.0447    0.5094 C.ar    1  LIG1        0.0601
     15 C           5.4946    0.0754    0.4738 C.ar    1  LIG1       -0.0348
     16 C           3.3355    1.1092   -0.0318 C.ar    1  LIG1        0.0020
     17 C           6.1882    1.1491   -0.0870 C.ar    1  LIG1        0.0020
     18 H           6.0417   -0.7577    0.8986 H       1  LIG1        0.0637
     19 C           4.0292    2.1790   -0.6001 C.ar    1  LIG1       -0.0348
     20 C           5.4303    2.2128   -0.6313 C.ar    1  LIG1        0.0601
     21 H           3.4807    3.0109   -1.0258 H       1  LIG1        0.0637
     22 N           2.9669   -2.0340    1.5851 N.1     1  LIG1       -0.1908
     23 C           3.4575   -1.0998    1.0966 C.1     1  LIG1        0.0998
     24 N           6.5544    4.2845   -1.7226 N.1     1  LIG1       -0.1908
     25 C           6.0641    3.3480   -1.2380 C.1     1  LIG1        0.0998
     26 C           8.4353    0.1010   -0.6348 C.ar    1  LIG1        0.0601
     27 C           9.8364    0.1346   -0.6030 C.ar    1  LIG1       -0.0348
     28 C           7.6772    1.1627   -0.0867 C.ar    1  LIG1        0.0020
     29 C          10.5300    1.2022   -0.0305 C.ar    1  LIG1        0.0020
     30 H          10.3850   -0.6958   -1.0316 H       1  LIG1        0.0637
     31 C           8.3708    2.2342    0.4782 C.ar    1  LIG1       -0.0348
     32 C           9.7721    2.2648    0.5144 C.ar    1  LIG1        0.0601
     33 H           7.8235    3.0658    0.9059 H       1  LIG1        0.0637
     34 N           7.3115   -1.9667   -1.7339 N.1     1  LIG1       -0.1908
     35 C           7.8017   -1.0320   -1.2459 C.1     1  LIG1        0.0998
     36 N          10.8986    4.3393    1.5980 N.1     1  LIG1       -0.1908
     37 C          10.4078    3.4070    1.1058 C.1     1  LIG1        0.0998
     38 C          12.7932    1.0568   -1.1670 C.ar    1  LIG1        0.0596
     39 C          14.1961    1.0330   -1.0982 C.ar    1  LIG1       -0.0425
     40 C          12.0191    1.1946    0.0107 C.ar    1  LIG1        0.0020
     41 C          14.8430    1.1401    0.1245 C.ar    1  LIG1       -0.0431
     42 H          14.7681    0.9349   -2.0138 H       1  LIG1        0.0631
     43 C          12.6847    1.3064    1.2340 C.ar    1  LIG1       -0.0354
     44 C          14.0853    1.2766    1.2982 C.ar    1  LIG1        0.0524
     45 H          12.1167    1.4059    2.1515 H       1  LIG1        0.0637
     46 H          15.9254    1.1198    0.1785 H       1  LIG1        0.0631
     47 N          11.6974    0.8724   -3.5148 N.1     1  LIG1       -0.1909
     48 C          12.1735    0.9596   -2.4572 C.1     1  LIG1        0.0998
     49 N          15.2766    1.4431    3.5997 N.1     1  LIG1       -0.1909
     50 C          14.7414    1.3734    2.5699 C.1     1  LIG1        0.0992
@<TRIPOS>BOND
     1    12    13    3
     2    47    48    3
     3    13     7    1
     4    48    38    1
     5     8     6    1
     6    42    39    1
     7    34    35    3
     8    24    25    3
     9    35    26    1
    10    25    20    1
    11     7     6   ar
    12     7     4   ar
    13    38    39   ar
    14    38    40   ar
    15     6     3   ar
    16    39    41   ar
    17    30    27    1
    18    21    19    1
    19    26    27   ar
    20    26    28   ar
    21    20    19   ar
    22    20    17   ar
    23    27    29   ar
    24    19    16   ar
    25    17    28    1
    26    17    15   ar
    27    28    31   ar
    28    16     4    1
    29    16    14   ar
    30    29    40    1
    31    29    32   ar
    32     4     2   ar
    33    40    43   ar
    34     3     9    1
    35     3     1   ar
    36    41    46    1
    37    41    44   ar
    38    15    14   ar
    39    15    18    1
    40    31    32   ar
    41    31    33    1
    42    14    23    1
    43    32    37    1
    44    23    22    3
    45    37    36    3
    46     2     1   ar
    47     2     5    1
    48    43    44   ar
    49    43    45    1
    50     1    11    1
    51    44    50    1
    52    11    10    3
    53    50    49    3
