@<TRIPOS>MOLECULE
mol_data/opt/b3lyp/geoms/mol2/4dd4dd.out
 26 27 0 0 0
SMALL
GASTEIGER

@<TRIPOS>ATOM
      1 C          -0.0212    0.1781    0.5893 C.ar    1  LIG1        0.0524
      2 C           1.3810    0.1670    0.5655 C.ar    1  LIG1       -0.0354
      3 C          -0.7289    1.2403    0.0047 C.ar    1  LIG1       -0.0431
      4 C           2.0977    1.2071   -0.0309 C.ar    1  LIG1        0.0020
      5 H           1.9113   -0.6573    1.0280 H       1  LIG1        0.0637
      6 C          -0.0309    2.2776   -0.5964 C.ar    1  LIG1       -0.0425
      7 C           1.3739    2.2718   -0.6195 C.ar    1  LIG1        0.0596
      8 H          -0.5638    3.1003   -1.0595 H       1  LIG1        0.0631
      9 H          -1.8127    1.2443    0.0244 H       1  LIG1        0.0631
     10 N          -1.3112   -1.7572    1.7446 N.1     1  LIG1       -0.1909
     11 C          -0.7314   -0.8940    1.2243 C.1     1  LIG1        0.0992
     12 N           2.5698    4.2466   -1.8100 N.1     1  LIG1       -0.1909
     13 C           2.0493    3.3554   -1.2738 C.1     1  LIG1        0.0998
     14 C           4.3200    0.1172   -0.5875 C.ar    1  LIG1        0.0596
     15 C           5.7243    0.1120   -0.5451 C.ar    1  LIG1       -0.0425
     16 C           3.5882    1.1882   -0.0206 C.ar    1  LIG1        0.0020
     17 C           6.4140    1.1560    0.0543 C.ar    1  LIG1       -0.0431
     18 H           6.2636   -0.7156   -0.9917 H       1  LIG1        0.0631
     19 C           4.2965    2.2349    0.5742 C.ar    1  LIG1       -0.0354
     20 C           5.6983    2.2243    0.6175 C.ar    1  LIG1        0.0524
     21 H           3.7598    3.0641    1.0203 H       1  LIG1        0.0637
     22 H           7.4974    1.1523    0.0888 H       1  LIG1        0.0631
     23 N           3.1410   -1.8707   -1.7731 N.1     1  LIG1       -0.1909
     24 C           3.6539   -0.9735   -1.2393 C.1     1  LIG1        0.0998
     25 N           6.9718    4.1725    1.7693 N.1     1  LIG1       -0.1909
     26 C           6.3995    3.3035    1.2505 C.1     1  LIG1        0.0992
@<TRIPOS>BOND
     1    12    13    3
     2    23    24    3
     3    13     7    1
     4    24    14    1
     5     8     6    1
     6    18    15    1
     7     7     6   ar
     8     7     4   ar
     9     6     3   ar
    10    14    15   ar
    11    14    16   ar
    12    15    17   ar
    13     4    16    1
    14     4     2   ar
    15    16    19   ar
    16     3     9    1
    17     3     1   ar
    18    17    22    1
    19    17    20   ar
    20     2     1   ar
    21     2     5    1
    22    19    20   ar
    23    19    21    1
    24     1    11    1
    25    20    26    1
    26    11    10    3
    27    26    25    3
