@<TRIPOS>MOLECULE
mol_data/opt/b3lyp/geoms/mol2/4de4df-13ee-4fi-.out
 53 56 0 0 0
SMALL
GASTEIGER

@<TRIPOS>ATOM
      1 C          -0.2138    0.5855   -0.9669 C.ar    1  LIG1        0.0524
      2 C           1.1846    0.5406   -0.8836 C.ar    1  LIG1       -0.0354
      3 C          -0.9448    1.3652   -0.0560 C.ar    1  LIG1       -0.0432
      4 C           1.8766    1.2661    0.0911 C.ar    1  LIG1        0.0001
      5 H           1.7369   -0.0597   -1.5970 H       1  LIG1        0.0637
      6 C          -0.2721    2.0839    0.9196 C.ar    1  LIG1       -0.0445
      7 C           1.1333    2.0505    1.0124 C.ar    1  LIG1        0.0325
      8 H          -0.8265    2.6807    1.6352 H       1  LIG1        0.0630
      9 H          -2.0266    1.3994   -0.1194 H       1  LIG1        0.0631
     10 N          -1.4564   -0.7331   -2.8273 N.1     1  LIG1       -0.1909
     11 C          -0.8955   -0.1493   -1.9920 C.1     1  LIG1        0.0992
     12 C           1.7592    2.7908    2.0626 C.1     1  LIG1       -0.0691
     13 C           2.2351    3.4297    2.9736 C.1     1  LIG1       -0.1139
     14 H           2.6645    3.9740    3.7831 H       1  LIG1        0.1232
     15 C           4.0805   -0.0001    0.1996 C.ar    1  LIG1        0.0603
     16 C           5.4802   -0.0022    0.1922 C.ar    1  LIG1       -0.0311
     17 C           3.3627    1.2155    0.1219 C.ar    1  LIG1        0.0042
     18 C           6.2430    1.1738    0.1023 C.ar    1  LIG1        0.0422
     19 H           5.9929   -0.9517    0.2641 H       1  LIG1        0.0638
     20 C           4.1114    2.3903    0.0408 C.ar    1  LIG1       -0.0105
     21 C           5.5039    2.3827    0.0303 C.ar    1  LIG1        0.1266
     22 H           3.5932    3.3431   -0.0237 H       1  LIG1        0.0661
     23 N           2.8810   -2.2931    0.4282 N.1     1  LIG1       -0.1908
     24 C           3.4058   -1.2597    0.3251 C.1     1  LIG1        0.0998
     25 O           6.1890    3.5689   -0.0611 O.3     1  LIG1       -0.5061
     26 H           5.5622    4.3039   -0.0771 H       1  LIG1        0.2922
     27 C           7.7025    1.1160    0.0916 C.ar    1  LIG1        0.0673
     28 C           8.5912    0.0256    0.1404 C.ar    1  LIG1        0.0660
     29 C           9.9291    0.5556    0.1255 C.ar    1  LIG1        0.0660
     30 C           9.8231    1.9478    0.0694 C.ar    1  LIG1        0.0672
     31 N           8.4889    2.2462    0.0399 N.ar    1  LIG1       -0.3520
     32 H           8.1060    3.1797    0.0463 H       1  LIG1        0.1660
     33 C           8.3010   -1.3597    0.1781 C.1     1  LIG1       -0.0663
     34 C           8.1023   -2.5543    0.2105 C.1     1  LIG1       -0.1138
     35 H           7.9238   -3.6043    0.2378 H       1  LIG1        0.1232
     36 C          11.1140   -0.2186    0.0914 C.1     1  LIG1       -0.0663
     37 C          12.1107   -0.9031    0.0428 C.1     1  LIG1       -0.1138
     38 H          12.9862   -1.5076    0.0002 H       1  LIG1        0.1232
     39 C          11.9414    3.0773    0.8262 C.ar    1  LIG1        0.1260
     40 C          12.8677    4.1145    0.6857 C.ar    1  LIG1       -0.0193
     41 C          10.8271    3.0143   -0.0353 C.ar    1  LIG1        0.0412
     42 C          12.6919    5.0971   -0.2849 C.ar    1  LIG1       -0.0554
     43 H          13.7219    4.1608    1.3580 H       1  LIG1        0.0654
     44 C          10.6743    4.0274   -0.9969 C.ar    1  LIG1       -0.0462
     45 C          11.5866    5.0750   -1.1442 C.ar    1  LIG1       -0.0496
     46 H           9.8240    3.9684   -1.6720 H       1  LIG1        0.0628
     47 H          13.4258    5.8943   -0.3708 H       1  LIG1        0.0621
     48 O          12.0484    2.1342    1.8024 O.3     1  LIG1       -0.5061
     49 H          12.8890    2.2461    2.2648 H       1  LIG1        0.2922
     50 C          11.4121    6.1207   -2.2207 C.3     1  LIG1       -0.0397
     51 H          10.3682    6.1978   -2.5387 H       1  LIG1        0.0278
     52 H          12.0066    5.8829   -3.1116 H       1  LIG1        0.0278
     53 H          11.7313    7.1088   -1.8742 H       1  LIG1        0.0278
@<TRIPOS>BOND
     1    52    50    1
     2    10    11    3
     3    51    50    1
     4    50    53    1
     5    50    45    1
     6    11     1    1
     7    46    44    1
     8     5     2    1
     9    45    44   ar
    10    45    42   ar
    11    44    41   ar
    12     1     2   ar
    13     1     3   ar
    14     2     4   ar
    15    47    42    1
    16    42    40   ar
    17     9     3    1
    18    26    25    1
    19    25    21    1
    20     3     6   ar
    21    41    30    1
    22    41    39   ar
    23    22    20    1
    24    38    37    1
    25    21    20   ar
    26    21    18   ar
    27    31    32    1
    28    31    30   ar
    29    31    27   ar
    30    20    17   ar
    31    37    36    3
    32    30    29   ar
    33     4    17    1
    34     4     7   ar
    35    36    29    1
    36    27    18    1
    37    27    28   ar
    38    18    16   ar
    39    17    15   ar
    40    29    28   ar
    41    28    33    1
    42    33    34    3
    43    16    15   ar
    44    16    19    1
    45    15    24    1
    46    34    35    1
    47    24    23    3
    48    40    39   ar
    49    40    43    1
    50    39    48    1
    51     6     7   ar
    52     6     8    1
    53     7    12    1
    54    48    49    1
    55    12    13    3
    56    13    14    1
