@<TRIPOS>MOLECULE
mol_data/opt/b3lyp/geoms/mol2/4df13le-4he6ia-.out
 54 57 0 0 0
SMALL
GASTEIGER

@<TRIPOS>ATOM
      1 C          -0.2581   -0.0208   -1.0456 C.ar    1  LIG1        0.0526
      2 C           1.0897    0.0012   -0.6657 C.ar    1  LIG1       -0.0316
      3 C          -0.8852    1.1548   -1.4863 C.ar    1  LIG1       -0.0409
      4 C           1.8522    1.1819   -0.6989 C.ar    1  LIG1        0.0445
      5 H           1.5679   -0.9122   -0.3383 H       1  LIG1        0.0638
      6 C          -0.1482    2.3296   -1.5392 C.ar    1  LIG1       -0.0183
      7 C           1.1943    2.3514   -1.1562 C.ar    1  LIG1        0.1261
      8 H          -0.6169    3.2493   -1.8821 H       1  LIG1        0.0655
      9 H          -1.9276    1.1425   -1.7830 H       1  LIG1        0.0631
     10 N          -1.6009   -2.2413   -0.9386 N.1     1  LIG1       -0.1909
     11 C          -0.9954   -1.2488   -0.9868 C.1     1  LIG1        0.0992
     12 O           1.9123    3.5200   -1.2143 O.3     1  LIG1       -0.5061
     13 H           1.3482    4.2316   -1.5438 H       1  LIG1        0.2922
     14 C           3.2510    1.1643   -0.2761 C.ar    1  LIG1        0.0940
     15 C           4.0084    0.1608    0.3279 C.ar    1  LIG1        0.1613
     16 C           5.3462    0.6397    0.5013 C.ar    1  LIG1        0.0922
     17 C           5.3778    1.9487   -0.0109 C.ar    1  LIG1        0.0680
     18 N           4.1206    2.2267   -0.4593 N.ar    1  LIG1       -0.3501
     19 H           3.8472    3.0867   -0.9105 H       1  LIG1        0.1661
     20 O           3.5517   -1.0835    0.6537 O.3     1  LIG1       -0.4917
     21 C           3.5160   -1.3769    2.0587 C.3     1  LIG1        0.0789
     22 H           3.1238   -2.3914    2.1458 H       1  LIG1        0.0660
     23 H           4.5171   -1.3322    2.4968 H       1  LIG1        0.0660
     24 H           2.8534   -0.6793    2.5844 H       1  LIG1        0.0660
     25 C           6.4150   -0.0715    1.0990 C.1     1  LIG1       -0.0638
     26 C           7.3368   -0.6891    1.5887 C.1     1  LIG1       -0.1137
     27 H           8.1366   -1.2265    2.0431 H       1  LIG1        0.1232
     28 C           7.7312    2.7389   -0.5776 C.ar    1  LIG1        0.0345
     29 C           8.6294    3.8210   -0.6474 C.ar    1  LIG1       -0.0315
     30 C           6.4236    2.9816   -0.0743 C.ar    1  LIG1        0.0214
     31 C           8.2943    5.1146   -0.2570 C.ar    1  LIG1        0.0010
     32 H           9.6309    3.6374   -1.0281 H       1  LIG1        0.0643
     33 C           6.0913    4.2853    0.3124 C.ar    1  LIG1       -0.0348
     34 C           6.9860    5.3625    0.2308 C.ar    1  LIG1        0.0332
     35 H           5.0989    4.4737    0.7099 H       1  LIG1        0.0637
     36 N           8.1137    1.5080   -1.0742 N.pl3   1  LIG1       -0.3574
     37 H           7.6811    0.6896   -0.6681 H       1  LIG1        0.1423
     38 H           9.1071    1.3924   -1.2153 H       1  LIG1        0.1423
     39 C           6.5536    6.6661    0.6209 C.1     1  LIG1       -0.0690
     40 C           6.1592    7.7618    0.9542 C.1     1  LIG1       -0.1139
     41 H           5.8264    8.7313    1.2438 H       1  LIG1        0.1232
     42 C           9.9371    6.8004    0.7233 C.ar    1  LIG1        0.0459
     43 C           9.3103    6.1990   -0.3934 C.ar    1  LIG1        0.0044
     44 C           9.7005    6.6193   -1.6687 C.ar    1  LIG1       -0.0509
     45 C          10.6594    7.6197   -1.8064 C.ar    1  LIG1       -0.0430
     46 C          11.2034    8.1614   -0.6455 C.ar    1  LIG1        0.0279
     47 N          10.8633    7.7621    0.5851 N.ar    1  LIG1       -0.2596
     48 H           9.2415    6.1663   -2.5431 H       1  LIG1        0.0625
     49 H          11.9540    8.9483   -0.7008 H       1  LIG1        0.0829
     50 C           9.6183    6.3887    2.1389 C.3     1  LIG1       -0.0218
     51 H           9.5618    5.3007    2.2413 H       1  LIG1        0.0293
     52 H           8.6509    6.7958    2.4523 H       1  LIG1        0.0293
     53 H          10.3898    6.7778    2.8049 H       1  LIG1        0.0293
     54 H          10.9748    7.9689   -2.7844 H       1  LIG1        0.0633
@<TRIPOS>BOND
     1    54    45    1
     2    48    44    1
     3     8     6    1
     4    45    44   ar
     5    45    46   ar
     6     9     3    1
     7    44    43   ar
     8    13    12    1
     9     6     3   ar
    10     6     7   ar
    11     3     1   ar
    12    38    36    1
    13    12     7    1
    14     7     4   ar
    15    36    37    1
    16    36    28    1
    17     1    11    1
    18     1     2   ar
    19    32    29    1
    20    11    10    3
    21    19    18    1
    22    49    46    1
    23     4     2   ar
    24     4    14    1
    25     2     5    1
    26    29    28   ar
    27    29    31   ar
    28    46    47   ar
    29    28    30   ar
    30    18    14   ar
    31    18    17   ar
    32    43    31    1
    33    43    42   ar
    34    14    15   ar
    35    31    34   ar
    36    30    17    1
    37    30    33   ar
    38    17    16   ar
    39    34    33   ar
    40    34    39    1
    41    33    35    1
    42    15    16   ar
    43    15    20    1
    44    16    25    1
    45    47    42   ar
    46    39    40    3
    47    20    21    1
    48    42    50    1
    49    40    41    1
    50    25    26    3
    51    26    27    1
    52    21    22    1
    53    21    23    1
    54    21    24    1
    55    50    51    1
    56    50    52    1
    57    50    53    1
