@<TRIPOS>MOLECULE
mol_data/opt/b3lyp/geoms/mol2/4df12he4dd4eh-4eh-12hf-6hi6hh.out
 102 109 0 0 0
SMALL
GASTEIGER

@<TRIPOS>ATOM
      1 C          -0.0560   -0.9943    0.5705 C.ar    1  LIG1        0.0527
      2 C           1.3230   -0.8314    0.3748 C.ar    1  LIG1       -0.0301
      3 C          -0.9169    0.0970    0.3774 C.ar    1  LIG1       -0.0409
      4 C           1.8710    0.3943   -0.0316 C.ar    1  LIG1        0.0617
      5 H           1.9869   -1.6677    0.5643 H       1  LIG1        0.0639
      6 C          -0.3917    1.3210   -0.0155 C.ar    1  LIG1       -0.0183
      7 C           0.9809    1.4818   -0.2314 C.ar    1  LIG1        0.1276
      8 H          -1.0554    2.1680   -0.1728 H       1  LIG1        0.0655
      9 H          -1.9837   -0.0178    0.5333 H       1  LIG1        0.0631
     10 N          -1.0075   -3.2980    1.2967 N.1     1  LIG1       -0.1909
     11 C          -0.5788   -2.2650    0.9750 C.1     1  LIG1        0.0992
     12 O           1.4977    2.6651   -0.6536 O.3     1  LIG1       -0.5061
     13 H           0.7836    3.3099   -0.7497 H       1  LIG1        0.2922
     14 C           3.3052    0.4962   -0.2526 C.ar    1  LIG1        0.1610
     15 C           4.2491   -0.4332   -0.6405 C.ar    1  LIG1        0.0873
     16 C           5.5191    0.2488   -0.6529 C.ar    1  LIG1        0.0917
     17 C           5.2618    1.5519   -0.2549 C.ar    1  LIG1        0.1541
     18 O           3.9329    1.7007   -0.0276 O.2     1  LIG1       -0.4515
     19 N           4.0813   -1.7747   -0.9476 N.pl3   1  LIG1       -0.3541
     20 H           3.2065   -2.0049   -1.4018 H       1  LIG1        0.1425
     21 H           4.8774   -2.1711   -1.4332 H       1  LIG1        0.1425
     22 C           6.7149   -0.3405   -1.1249 C.1     1  LIG1       -0.0640
     23 C           7.6857   -0.9112   -1.5697 C.1     1  LIG1       -0.1137
     24 H           8.5739   -1.3849   -1.9194 H       1  LIG1        0.1232
     25 C           7.3867    2.8375    0.3027 C.ar    1  LIG1        0.0631
     26 C           8.0722    4.0611    0.3215 C.ar    1  LIG1       -0.0347
     27 C           6.0460    2.7755   -0.1542 C.ar    1  LIG1        0.0371
     28 C           7.4738    5.2601   -0.0726 C.ar    1  LIG1        0.0020
     29 H           9.0967    4.0736    0.6714 H       1  LIG1        0.0637
     30 C           5.4297    3.9819   -0.5149 C.ar    1  LIG1       -0.0318
     31 C           6.1165    5.1999   -0.4775 C.ar    1  LIG1        0.0602
     32 H           4.3934    3.9640   -0.8307 H       1  LIG1        0.0638
     33 N           8.6656    0.8267    1.3292 N.1     1  LIG1       -0.1908
     34 C           8.0712    1.6997    0.8414 C.1     1  LIG1        0.0999
     35 N           4.7356    7.2924   -1.1616 N.1     1  LIG1       -0.1908
     36 C           5.3817    6.3767   -0.8496 C.1     1  LIG1        0.0998
     37 C           8.9770    6.9521    1.0753 C.ar    1  LIG1        0.0331
     38 C           9.7045    8.1510    0.9927 C.ar    1  LIG1       -0.0362
     39 C           8.2511    6.5267   -0.0677 C.ar    1  LIG1        0.0005
     40 C           9.7421    8.9395   -0.1564 C.ar    1  LIG1        0.0052
     41 H          10.2514    8.4798    1.8687 H       1  LIG1        0.0637
     42 C           8.2922    7.3064   -1.2231 C.ar    1  LIG1       -0.0315
     43 C           9.0185    8.5056   -1.2966 C.ar    1  LIG1        0.0330
     44 H           7.7560    6.9729   -2.1066 H       1  LIG1        0.0643
     45 C           8.9656    6.2352    2.3106 C.1     1  LIG1       -0.0690
     46 C           8.9797    5.6543    3.3731 C.1     1  LIG1       -0.1139
     47 H           8.9837    5.1380    4.3051 H       1  LIG1        0.1232
     48 N           8.9946    9.2507   -2.4663 N.pl3   1  LIG1       -0.3575
     49 H           9.7639    9.8920   -2.5988 H       1  LIG1        0.1423
     50 H           8.7355    8.7488   -3.3032 H       1  LIG1        0.1423
     51 C          11.8994   10.2613    0.1398 C.ar    1  LIG1        0.0332
     52 C          12.5482   11.5048    0.1330 C.ar    1  LIG1       -0.0332
     53 C          10.5143   10.2138   -0.1657 C.ar    1  LIG1        0.0011
     54 C          11.9012   12.7107   -0.1792 C.ar    1  LIG1        0.0410
     55 H          13.5965   11.5309    0.4074 H       1  LIG1        0.0638
     56 C           9.8610   11.4128   -0.4589 C.ar    1  LIG1       -0.0314
     57 C          10.5055   12.6598   -0.4715 C.ar    1  LIG1        0.0360
     58 H           8.7969   11.3834   -0.6774 H       1  LIG1        0.0643
     59 C          12.6619    9.0895    0.4366 C.1     1  LIG1       -0.0690
     60 C          13.3455    8.1212    0.6840 C.1     1  LIG1       -0.1139
     61 H          13.9304    7.2602    0.9105 H       1  LIG1        0.1232
     62 N           9.7541   13.7991   -0.7183 N.pl3   1  LIG1       -0.3574
     63 H          10.2549   14.6231   -1.0140 H       1  LIG1        0.1423
     64 H           8.8758   13.6479   -1.1928 H       1  LIG1        0.1423
     65 C          12.6818   13.9364   -0.2061 C.ar    1  LIG1        0.1617
     66 C          14.0344   14.1900   -0.3291 C.ar    1  LIG1        0.1138
     67 C          14.1888   15.6064   -0.2323 C.ar    1  LIG1        0.1846
     68 C          12.9459   16.1703   -0.0788 C.ar    1  LIG1        0.1821
     69 O          12.0210   15.1497   -0.0585 O.2     1  LIG1       -0.4490
     70 N          15.1033   13.3048   -0.4590 N.pl3   1  LIG1       -0.3522
     71 H          14.9131   12.5039   -1.0490 H       1  LIG1        0.1425
     72 H          15.9534   13.7765   -0.7438 H       1  LIG1        0.1425
     73 O          15.4193   16.1964   -0.3109 O.3     1  LIG1       -0.5020
     74 H          15.4007   17.0327    0.1751 H       1  LIG1        0.2924
     75 C          11.3158   17.9244    0.7610 C.ar    1  LIG1        0.1277
     76 C          12.4904   17.5430    0.0436 C.ar    1  LIG1        0.0607
     77 C          13.2344   18.5884   -0.5132 C.ar    1  LIG1       -0.0427
     78 C          12.8683   19.9321   -0.3927 C.ar    1  LIG1       -0.0236
     79 C          11.6741   20.1951    0.3131 C.ar    1  LIG1        0.0793
     80 N          10.9489   19.2041    0.8721 N.ar    1  LIG1       -0.2313
     81 H          14.1292   18.3441   -1.0810 H       1  LIG1        0.0629
     82 N          10.5243   17.0133    1.4154 N.pl3   1  LIG1       -0.3426
     83 H           9.6339   17.3718    1.7255 H       1  LIG1        0.1437
     84 H          10.5618   16.0419    1.1479 H       1  LIG1        0.1437
     85 C          13.7676   20.9962   -0.9810 C.3     1  LIG1       -0.0377
     86 H          13.7425   21.9175   -0.3950 H       1  LIG1        0.0278
     87 H          13.4913   21.2595   -2.0093 H       1  LIG1        0.0278
     88 H          14.8025   20.6413   -1.0122 H       1  LIG1        0.0278
     89 C          10.6364   22.0204    1.7591 C.ar    1  LIG1        0.1255
     90 C          11.1270   21.5669    0.4997 C.ar    1  LIG1        0.0419
     91 C          11.0493   22.4589   -0.5714 C.ar    1  LIG1       -0.0271
     92 C          10.5399   23.7525   -0.4074 C.ar    1  LIG1        0.0437
     93 C          10.1190   24.0926    0.8819 C.ar    1  LIG1        0.0503
     94 N          10.1564   23.2604    1.9240 N.ar    1  LIG1       -0.2382
     95 H          11.3756   22.1379   -1.5563 H       1  LIG1        0.0644
     96 H           9.7179   25.0879    1.0777 H       1  LIG1        0.0849
     97 N          10.6856   21.2264    2.8915 N.pl3   1  LIG1       -0.3426
     98 H          10.1273   21.6021    3.6458 H       1  LIG1        0.1437
     99 H          10.5583   20.2390    2.7070 H       1  LIG1        0.1437
    100 N          10.5120   24.6788   -1.4677 N.pl3   1  LIG1       -0.3568
    101 H          10.3629   24.2516   -2.3738 H       1  LIG1        0.1424
    102 H           9.8426   25.4257   -1.3267 H       1  LIG1        0.1424
@<TRIPOS>BOND
     1    50    48    1
     2    49    48    1
     3    48    43    1
     4   101   100    1
     5    44    42    1
     6    87    85    1
     7    24    23    1
     8    23    22    3
     9    95    91    1
    10   100   102    1
    11   100    92    1
    12    21    19    1
    13    20    19    1
    14    43    42   ar
    15    43    40   ar
    16    42    39   ar
    17    64    62    1
    18    35    36    3
    19    22    16    1
    20    81    77    1
    21    71    70    1
    22    63    62    1
    23    88    85    1
    24    85    86    1
    25    85    78    1
    26    19    15    1
    27    36    31    1
    28    32    30    1
    29    13    12    1
    30    72    70    1
    31    62    57    1
    32    58    56    1
    33    12     7    1
    34    16    15   ar
    35    16    17   ar
    36    15    14   ar
    37    91    92   ar
    38    91    90   ar
    39    30    31   ar
    40    30    27   ar
    41    77    78   ar
    42    77    76   ar
    43    31    28   ar
    44    57    56   ar
    45    57    54   ar
    46    70    66    1
    47    56    53   ar
    48    92    93   ar
    49    78    79   ar
    50    66    67   ar
    51    66    65   ar
    52    73    67    1
    53    73    74    1
    54    17    27    1
    55    17    18   ar
    56    14     4    1
    57    14    18   ar
    58    67    68   ar
    59     7     4   ar
    60     7     6   ar
    61    65    54    1
    62    65    69   ar
    63    54    52   ar
    64     8     6    1
    65    53    40    1
    66    53    51   ar
    67    40    38   ar
    68    27    25   ar
    69    68    69   ar
    70    68    76    1
    71    28    39    1
    72    28    26   ar
    73    39    37   ar
    74     4     2   ar
    75     6     3   ar
    76    76    75   ar
    77    52    51   ar
    78    52    55    1
    79    51    59    1
    80    25    26   ar
    81    25    34    1
    82    79    90    1
    83    79    80   ar
    84    26    29    1
    85     2     5    1
    86     2     1   ar
    87     3     9    1
    88     3     1   ar
    89    59    60    3
    90    90    89   ar
    91     1    11    1
    92    60    61    1
    93    75    80   ar
    94    75    82    1
    95    34    33    3
    96    93    96    1
    97    93    94   ar
    98    11    10    3
    99    38    37   ar
   100    38    41    1
   101    37    45    1
   102    84    82    1
   103    82    83    1
   104    89    94   ar
   105    89    97    1
   106    45    46    3
   107    99    97    1
   108    97    98    1
   109    46    47    1
