@<TRIPOS>MOLECULE
mol_data/opt/b3lyp/geoms/mol2/4dg.out
 14 14 0 0 0
SMALL
GASTEIGER

@<TRIPOS>ATOM
      1 C           0.0650    0.0061    0.0004 C.ar    1  LIG1        0.0518
      2 C           1.4704    0.0017    0.0000 C.ar    1  LIG1       -0.0433
      3 C          -0.6192    1.2325    0.0003 C.ar    1  LIG1       -0.0433
      4 C           2.1738    1.1986   -0.0005 C.ar    1  LIG1       -0.0473
      5 H           2.0039   -0.9426    0.0001 H       1  LIG1        0.0631
      6 C           0.0866    2.4295   -0.0002 C.ar    1  LIG1       -0.0473
      7 C           1.4890    2.4239   -0.0006 C.ar    1  LIG1        0.0048
      8 H          -0.4583    3.3683   -0.0003 H       1  LIG1        0.0629
      9 H           3.2592    1.1827   -0.0007 H       1  LIG1        0.0629
     10 H          -1.7038    1.2419    0.0006 H       1  LIG1        0.0631
     11 N          -1.2543   -2.2296    0.0013 N.1     1  LIG1       -0.1909
     12 C          -0.6628   -1.2275    0.0009 C.1     1  LIG1        0.0992
     13 S           2.4621    3.9151   -0.0012 S.3     1  LIG1       -0.1426
     14 H           1.4308    4.7815   -0.0012 H       1  LIG1        0.1071
@<TRIPOS>BOND
     1    13    14    1
     2    13     7    1
     3     9     4    1
     4     7     4   ar
     5     7     6   ar
     6     4     2   ar
     7     8     6    1
     8     6     3   ar
     9     2     5    1
    10     2     1   ar
    11     3     1   ar
    12     3    10    1
    13     1    12    1
    14    12    11    3
