@<TRIPOS>MOLECULE
mol_data/opt/b3lyp/geoms/mol2/4dg4dg4dg-4dg-.out
 50 53 0 0 0
SMALL
GASTEIGER

@<TRIPOS>ATOM
      1 C          -0.2397    0.1462    0.7280 C.ar    1  LIG1        0.0524
      2 C           1.1604    0.1764    0.6786 C.ar    1  LIG1       -0.0355
      3 C          -0.9730    1.1424    0.0647 C.ar    1  LIG1       -0.0433
      4 C           1.8377    1.1843   -0.0130 C.ar    1  LIG1       -0.0022
      5 H           1.7294   -0.5922    1.1901 H       1  LIG1        0.0637
      6 C          -0.3111    2.1444   -0.6300 C.ar    1  LIG1       -0.0468
      7 C           1.0906    2.1800   -0.6802 C.ar    1  LIG1        0.0126
      8 H          -0.8914    2.9049   -1.1424 H       1  LIG1        0.0629
      9 H          -2.0570    1.1257    0.0962 H       1  LIG1        0.0631
     10 N          -1.4758   -1.7118    2.0542 N.1     1  LIG1       -0.1909
     11 C          -0.9170   -0.8845    1.4569 C.1     1  LIG1        0.0992
     12 S           1.9549    3.4482   -1.5927 S.3     1  LIG1       -0.1420
     13 H           0.8510    4.0144   -2.1171 H       1  LIG1        0.1071
     14 C           4.0681    0.1621   -0.6579 C.ar    1  LIG1        0.0601
     15 C           5.4686    0.1825   -0.6128 C.ar    1  LIG1       -0.0350
     16 C           3.3309    1.1842   -0.0194 C.ar    1  LIG1        0.0016
     17 C           6.1662    1.1985    0.0426 C.ar    1  LIG1       -0.0022
     18 H           6.0222   -0.6068   -1.1093 H       1  LIG1        0.0637
     19 C           4.0311    2.1944    0.6414 C.ar    1  LIG1       -0.0390
     20 C           5.4314    2.2202    0.6822 C.ar    1  LIG1        0.0131
     21 H           3.4636    2.9694    1.1456 H       1  LIG1        0.0635
     22 N           2.8969   -1.7461   -1.9729 N.1     1  LIG1       -0.1908
     23 C           3.4105   -0.8891   -1.3770 C.1     1  LIG1        0.0998
     24 S           6.3074    3.5021    1.5608 S.3     1  LIG1       -0.1420
     25 H           5.2081    4.1159    2.0392 H       1  LIG1        0.1071
     26 C           8.3814    0.1526    0.6948 C.ar    1  LIG1        0.0601
     27 C           9.7819    0.1499    0.6433 C.ar    1  LIG1       -0.0350
     28 C           7.6586    1.1768    0.0433 C.ar    1  LIG1        0.0016
     29 C          10.4935    1.1434   -0.0304 C.ar    1  LIG1       -0.0022
     30 H          10.3245   -0.6413    1.1486 H       1  LIG1        0.0637
     31 C           8.3721    2.1658   -0.6352 C.ar    1  LIG1       -0.0390
     32 C           9.7727    2.1677   -0.6821 C.ar    1  LIG1        0.0131
     33 H           7.8155    2.9422   -1.1492 H       1  LIG1        0.0635
     34 N           7.1855   -1.7147    2.0453 N.1     1  LIG1       -0.1908
     35 C           7.7104   -0.8761    1.4332 C.1     1  LIG1        0.0998
     36 S          10.6682    3.4207   -1.5805 S.3     1  LIG1       -0.1420
     37 H           9.5782    4.0473   -2.0639 H       1  LIG1        0.1071
     38 C          12.6832    0.0623   -0.7054 C.ar    1  LIG1        0.0596
     39 C          14.0877    0.0333   -0.6682 C.ar    1  LIG1       -0.0427
     40 C          11.9861    1.0962   -0.0398 C.ar    1  LIG1        0.0016
     41 C          14.7992    1.0103    0.0119 C.ar    1  LIG1       -0.0473
     42 H          14.6140   -0.7621   -1.1845 H       1  LIG1        0.0631
     43 C          12.7172    2.0717    0.6436 C.ar    1  LIG1       -0.0396
     44 C          14.1173    2.0416    0.6750 C.ar    1  LIG1        0.0054
     45 H          12.1771    2.8560    1.1637 H       1  LIG1        0.0635
     46 H          15.8838    0.9739    0.0273 H       1  LIG1        0.0629
     47 N          11.4380   -1.7881   -2.0342 N.1     1  LIG1       -0.1909
     48 C          11.9833   -0.9529   -1.4351 C.1     1  LIG1        0.0998
     49 S          15.0873    3.2564    1.5389 S.3     1  LIG1       -0.1426
     50 H          14.0594    4.0273    1.9428 H       1  LIG1        0.1071
@<TRIPOS>BOND
     1    13    12    1
     2    37    36    1
     3    47    48    3
     4    22    23    3
     5    12     7    1
     6    36    32    1
     7    48    38    1
     8    23    14    1
     9    42    39    1
    10    33    31    1
    11     8     6    1
    12    18    15    1
    13    38    39   ar
    14    38    40   ar
    15    32    31   ar
    16    32    29   ar
    17     7     6   ar
    18     7     4   ar
    19    39    41   ar
    20    14    15   ar
    21    14    16   ar
    22    31    28   ar
    23     6     3   ar
    24    15    17   ar
    25    40    29    1
    26    40    43   ar
    27    29    27   ar
    28    16     4    1
    29    16    19   ar
    30     4     2   ar
    31    41    46    1
    32    41    44   ar
    33    17    28    1
    34    17    20   ar
    35    28    26   ar
    36     3     9    1
    37     3     1   ar
    38    19    20   ar
    39    19    21    1
    40    27    26   ar
    41    27    30    1
    42    43    44   ar
    43    43    45    1
    44    44    49    1
    45     2     1   ar
    46     2     5    1
    47    20    24    1
    48    26    35    1
    49     1    11    1
    50    35    34    3
    51    11    10    3
    52    49    50    1
    53    24    25    1
