@<TRIPOS>MOLECULE
mol_data/opt/b3lyp/geoms/mol2/4dg4dg-4dg-.out
 38 40 0 0 0
SMALL
GASTEIGER

@<TRIPOS>ATOM
      1 C          -0.1388    0.0576   -0.4481 C.ar    1  LIG1        0.0524
      2 C           1.2620    0.0809   -0.4164 C.ar    1  LIG1       -0.0355
      3 C          -0.8556    1.1824   -0.0109 C.ar    1  LIG1       -0.0433
      4 C           1.9559    1.2061    0.0363 C.ar    1  LIG1       -0.0022
      5 H           1.8182   -0.7870   -0.7535 H       1  LIG1        0.0637
      6 C          -0.1769    2.3031    0.4454 C.ar    1  LIG1       -0.0468
      7 C           1.2254    2.3318    0.4768 C.ar    1  LIG1        0.0126
      8 H          -0.7445    3.1636    0.7845 H       1  LIG1        0.0629
      9 H          -1.9399    1.1722   -0.0302 H       1  LIG1        0.0631
     10 N          -1.4057   -2.0300   -1.3290 N.1     1  LIG1       -0.1909
     11 C          -0.8334   -1.0988   -0.9307 C.1     1  LIG1        0.0992
     12 S           2.1123    3.7567    1.0849 S.3     1  LIG1       -0.1420
     13 H           1.0199    4.4373    1.4825 H       1  LIG1        0.1071
     14 C           4.1789    0.3281    0.8846 C.ar    1  LIG1        0.0601
     15 C           5.5794    0.3217    0.8311 C.ar    1  LIG1       -0.0350
     16 C           3.4491    1.1891    0.0352 C.ar    1  LIG1        0.0016
     17 C           6.2845    1.1554   -0.0379 C.ar    1  LIG1       -0.0022
     18 H           6.1271   -0.3426    1.4904 H       1  LIG1        0.0637
     19 C           4.1563    2.0160   -0.8386 C.ar    1  LIG1       -0.0390
     20 C           5.5568    2.0156   -0.8886 C.ar    1  LIG1        0.0131
     21 H           3.5945    2.6645   -1.5025 H       1  LIG1        0.0635
     22 N           3.0012   -1.2232    2.6015 N.1     1  LIG1       -0.1908
     23 C           3.5158   -0.5269    1.8246 C.1     1  LIG1        0.0998
     24 S           6.4435    3.0580   -2.0317 S.3     1  LIG1       -0.1420
     25 H           5.3491    3.5611   -2.6347 H       1  LIG1        0.1071
     26 C           8.4849   -0.0239   -0.4755 C.ar    1  LIG1        0.0596
     27 C           9.8896   -0.0308   -0.4362 C.ar    1  LIG1       -0.0427
     28 C           7.7774    1.1192   -0.0393 C.ar    1  LIG1        0.0016
     29 C          10.5914    1.0739    0.0228 C.ar    1  LIG1       -0.0473
     30 H          10.4238   -0.9113   -0.7761 H       1  LIG1        0.0631
     31 C           8.4989    2.2229    0.4240 C.ar    1  LIG1       -0.0396
     32 C           9.8990    2.2140    0.4575 C.ar    1  LIG1        0.0054
     33 H           7.9509    3.0931    0.7702 H       1  LIG1        0.0635
     34 H          11.6762    1.0525    0.0424 H       1  LIG1        0.0629
     35 N           7.2598   -2.1249   -1.3843 N.1     1  LIG1       -0.1909
     36 C           7.7956   -1.1766   -0.9748 C.1     1  LIG1        0.0998
     37 S          10.8571    3.5923    1.0468 S.3     1  LIG1       -0.1426
     38 H           9.8221    4.4231    1.2754 H       1  LIG1        0.1071
@<TRIPOS>BOND
     1    25    24    1
     2    24    20    1
     3    21    19    1
     4    35    36    3
     5    10    11    3
     6    36    26    1
     7    11     1    1
     8    20    19   ar
     9    20    17   ar
    10    19    16   ar
    11    30    27    1
    12     5     2    1
    13    26    27   ar
    14    26    28   ar
    15     1     2   ar
    16     1     3   ar
    17    27    29   ar
    18     2     4   ar
    19    28    17    1
    20    28    31   ar
    21    17    15   ar
    22     9     3    1
    23     3     6   ar
    24    29    34    1
    25    29    32   ar
    26    16     4    1
    27    16    14   ar
    28     4     7   ar
    29    31    32   ar
    30    31    33    1
    31     6     7   ar
    32     6     8    1
    33    32    37    1
    34     7    12    1
    35    15    14   ar
    36    15    18    1
    37    14    23    1
    38    37    38    1
    39    12    13    1
    40    23    22    3
