@<TRIPOS>MOLECULE
mol_data/opt/b3lyp/geoms/mol2/4dg4dg-4dg4dg-.out
 50 53 0 0 0
SMALL
GASTEIGER

@<TRIPOS>ATOM
      1 C          -0.2384    0.1303   -0.7070 C.ar    1  LIG1        0.0524
      2 C           1.1617    0.1619   -0.6563 C.ar    1  LIG1       -0.0355
      3 C          -0.9729    1.1388   -0.0637 C.ar    1  LIG1       -0.0433
      4 C           1.8377    1.1829    0.0169 C.ar    1  LIG1       -0.0022
      5 H           1.7315   -0.6161   -1.1523 H       1  LIG1        0.0637
      6 C          -0.3121    2.1539    0.6128 C.ar    1  LIG1       -0.0468
      7 C           1.0895    2.1909    0.6642 C.ar    1  LIG1        0.0126
      8 H          -0.8933    2.9239    1.1099 H       1  LIG1        0.0629
      9 H          -2.0567    1.1211   -0.0962 H       1  LIG1        0.0631
     10 N          -1.4722   -1.7529   -1.9991 N.1     1  LIG1       -0.1909
     11 C          -0.9145   -0.9143   -1.4170 C.1     1  LIG1        0.0992
     12 S           1.9523    3.4761    1.5537 S.3     1  LIG1       -0.1420
     13 H           0.8476    4.0523    2.0655 H       1  LIG1        0.1071
     14 C           4.0678    0.1740    0.6838 C.ar    1  LIG1        0.0601
     15 C           5.4684    0.1943    0.6398 C.ar    1  LIG1       -0.0350
     16 C           3.3309    1.1835    0.0253 C.ar    1  LIG1        0.0016
     17 C           6.1663    1.1981   -0.0338 C.ar    1  LIG1       -0.0022
     18 H           6.0218   -0.5853    1.1518 H       1  LIG1        0.0637
     19 C           4.0314    2.1815   -0.6536 C.ar    1  LIG1       -0.0390
     20 C           5.4317    2.2072   -0.6933 C.ar    1  LIG1        0.0131
     21 H           3.4641    2.9466   -1.1730 H       1  LIG1        0.0635
     22 N           2.8962   -1.7097    2.0331 N.1     1  LIG1       -0.1908
     23 C           3.4099   -0.8638    1.4218 C.1     1  LIG1        0.0998
     24 S           6.3082    3.4729   -1.5947 S.3     1  LIG1       -0.1420
     25 H           5.2092    4.0767   -2.0864 H       1  LIG1        0.1071
     26 C           8.3826    0.1412   -0.6641 C.ar    1  LIG1        0.0601
     27 C           9.7829    0.1400   -0.6111 C.ar    1  LIG1       -0.0350
     28 C           7.6587    1.1771   -0.0325 C.ar    1  LIG1        0.0016
     29 C          10.4935    1.1461    0.0449 C.ar    1  LIG1       -0.0022
     30 H          10.3264   -0.6603   -1.1010 H       1  LIG1        0.0637
     31 C           8.3711    2.1788    0.6281 C.ar    1  LIG1       -0.0390
     32 C           9.7717    2.1821    0.6765 C.ar    1  LIG1        0.0131
     33 H           7.8136    2.9644    1.1270 H       1  LIG1        0.0635
     34 N           7.1887   -1.7513   -1.9810 N.1     1  LIG1       -0.1908
     35 C           7.7127   -0.9013   -1.3841 C.1     1  LIG1        0.0998
     36 S          10.6657    3.4520    1.5522 S.3     1  LIG1       -0.1420
     37 H           9.5750    4.0867    2.0232 H       1  LIG1        0.1071
     38 C          12.6821    0.0778    0.7422 C.ar    1  LIG1        0.0596
     39 C          14.0866    0.0476    0.7071 C.ar    1  LIG1       -0.0427
     40 C          11.9861    1.0991    0.0565 C.ar    1  LIG1        0.0016
     41 C          14.7991    1.0115    0.0095 C.ar    1  LIG1       -0.0473
     42 H          14.6121   -0.7382    1.2387 H       1  LIG1        0.0631
     43 C          12.7181    2.0616   -0.6441 C.ar    1  LIG1       -0.0396
     44 C          14.1182    2.0305   -0.6735 C.ar    1  LIG1        0.0054
     45 H          12.1788    2.8363   -1.1792 H       1  LIG1        0.0635
     46 H          15.8837    0.9743   -0.0045 H       1  LIG1        0.0629
     47 N          11.4342   -1.7466    2.1040 N.1     1  LIG1       -0.1909
     48 C          11.9809   -0.9232    1.4900 C.1     1  LIG1        0.0998
     49 S          15.0896    3.2292   -1.5582 S.3     1  LIG1       -0.1426
     50 H          14.0619    3.9879   -1.9847 H       1  LIG1        0.1071
@<TRIPOS>BOND
     1    25    24    1
     2    10    11    3
     3    50    49    1
     4    34    35    3
     5    24    20    1
     6    49    44    1
     7    11     1    1
     8    35    26    1
     9    45    43    1
    10    21    19    1
    11     5     2    1
    12    30    27    1
    13     1     2   ar
    14     1     3   ar
    15    20    19   ar
    16    20    17   ar
    17    44    43   ar
    18    44    41   ar
    19    26    27   ar
    20    26    28   ar
    21     2     4   ar
    22    19    16   ar
    23    43    40   ar
    24    27    29   ar
    25     9     3    1
    26     3     6   ar
    27    17    28    1
    28    17    15   ar
    29    28    31   ar
    30    46    41    1
    31    41    39   ar
    32     4    16    1
    33     4     7   ar
    34    16    14   ar
    35    29    40    1
    36    29    32   ar
    37    40    38   ar
    38     6     7   ar
    39     6     8    1
    40    31    32   ar
    41    31    33    1
    42    15    14   ar
    43    15    18    1
    44     7    12    1
    45    32    36    1
    46    14    23    1
    47    39    38   ar
    48    39    42    1
    49    38    48    1
    50    23    22    3
    51    48    47    3
    52    36    37    1
    53    12    13    1
