@<TRIPOS>MOLECULE
mol_data/opt/b3lyp/geoms/mol2/4dg4dg-4dg4dg.out
 50 53 0 0 0
SMALL
GASTEIGER

@<TRIPOS>ATOM
      1 C          -0.2402    0.1372   -0.6994 C.ar    1  LIG1        0.0524
      2 C           1.1600    0.1684   -0.6522 C.ar    1  LIG1       -0.0355
      3 C          -0.9730    1.1382   -0.0428 C.ar    1  LIG1       -0.0433
      4 C           1.8378    1.1820    0.0305 C.ar    1  LIG1       -0.0022
      5 H           1.7286   -0.6038   -1.1585 H       1  LIG1        0.0637
      6 C          -0.3106    2.1457    0.6432 C.ar    1  LIG1       -0.0468
      7 C           1.0911    2.1825    0.6912 C.ar    1  LIG1        0.0126
      8 H          -0.8906    2.9099    1.1506 H       1  LIG1        0.0629
      9 H          -2.0570    1.1207   -0.0726 H       1  LIG1        0.0631
     10 N          -1.4772   -1.7317   -2.0093 N.1     1  LIG1       -0.1909
     11 C          -0.9180   -0.8995   -1.4193 C.1     1  LIG1        0.0992
     12 S           1.9561    3.4577    1.5928 S.3     1  LIG1       -0.1420
     13 H           0.8525    4.0288    2.1127 H       1  LIG1        0.1071
     14 C           4.0700    0.1661    0.6799 C.ar    1  LIG1        0.0601
     15 C           5.4704    0.1873    0.6322 C.ar    1  LIG1       -0.0350
     16 C           3.3310    1.1828    0.0349 C.ar    1  LIG1        0.0016
     17 C           6.1662    1.1989   -0.0321 C.ar    1  LIG1       -0.0022
     18 H           6.0255   -0.5978    1.1337 H       1  LIG1        0.0637
     19 C           4.0294    2.1886   -0.6347 C.ar    1  LIG1       -0.0390
     20 C           5.4295    2.2151   -0.6780 C.ar    1  LIG1        0.0131
     21 H           3.4604    2.9594   -1.1438 H       1  LIG1        0.0635
     22 N           2.9029   -1.7330    2.0113 N.1     1  LIG1       -0.1908
     23 C           3.4146   -0.8801    1.4080 C.1     1  LIG1        0.0998
     24 S           6.3031    3.4914   -1.5676 S.3     1  LIG1       -0.1420
     25 H           5.2026    4.0995   -2.0503 H       1  LIG1        0.1071
     26 C           8.3806    0.1491   -0.6800 C.ar    1  LIG1        0.0601
     27 C           9.7811    0.1471   -0.6308 C.ar    1  LIG1       -0.0350
     28 C           7.6586    1.1780   -0.0350 C.ar    1  LIG1        0.0016
     29 C          10.4936    1.1458    0.0343 C.ar    1  LIG1       -0.0022
     30 H          10.3230   -0.6478   -1.1311 H       1  LIG1        0.0637
     31 C           8.3729    2.1722    0.6347 C.ar    1  LIG1       -0.0390
     32 C           9.7736    2.1748    0.6793 C.ar    1  LIG1        0.0131
     33 H           7.8169    2.9524    1.1439 H       1  LIG1        0.0635
     34 N           7.1824   -1.7284   -2.0144 N.1     1  LIG1       -0.1908
     35 C           7.7084   -0.8852   -1.4096 C.1     1  LIG1        0.0998
     36 S          10.6701    3.4350    1.5663 S.3     1  LIG1       -0.1420
     37 H           9.5808    4.0645    2.0473 H       1  LIG1        0.1071
     38 C          12.6842    0.0703    0.7145 C.ar    1  LIG1        0.0596
     39 C          14.0886    0.0409    0.6755 C.ar    1  LIG1       -0.0427
     40 C          11.9861    1.0987    0.0415 C.ar    1  LIG1        0.0016
     41 C          14.7992    1.0123   -0.0135 C.ar    1  LIG1       -0.0473
     42 H          14.6156   -0.7503    1.1976 H       1  LIG1        0.0631
     43 C          12.7163    2.0686   -0.6508 C.ar    1  LIG1       -0.0396
     44 C          14.1163    2.0382   -0.6840 C.ar    1  LIG1        0.0054
     45 H          12.1755    2.8487   -1.1766 H       1  LIG1        0.0635
     46 H          15.8837    0.9758   -0.0301 H       1  LIG1        0.0629
     47 N          11.4406   -1.7690    2.0602 N.1     1  LIG1       -0.1909
     48 C          11.9852   -0.9389    1.4535 C.1     1  LIG1        0.0998
     49 S          15.0852    3.2460   -1.5594 S.3     1  LIG1       -0.1426
     50 H          14.0568    4.0145   -1.9666 H       1  LIG1        0.1071
@<TRIPOS>BOND
     1    25    24    1
     2    34    35    3
     3    10    11    3
     4    50    49    1
     5    24    20    1
     6    49    44    1
     7    11     1    1
     8    35    26    1
     9    45    43    1
    10     5     2    1
    11    21    19    1
    12    30    27    1
    13     1     2   ar
    14     1     3   ar
    15    44    43   ar
    16    44    41   ar
    17    26    27   ar
    18    26    28   ar
    19    20    19   ar
    20    20    17   ar
    21     2     4   ar
    22    43    40   ar
    23    19    16   ar
    24    27    29   ar
    25     9     3    1
    26     3     6   ar
    27    28    17    1
    28    28    31   ar
    29    17    15   ar
    30    46    41    1
    31    41    39   ar
    32     4    16    1
    33     4     7   ar
    34    29    40    1
    35    29    32   ar
    36    16    14   ar
    37    40    38   ar
    38    15    14   ar
    39    15    18    1
    40    31    32   ar
    41    31    33    1
    42     6     7   ar
    43     6     8    1
    44    39    38   ar
    45    39    42    1
    46    32    36    1
    47    14    23    1
    48     7    12    1
    49    38    48    1
    50    23    22    3
    51    48    47    3
    52    36    37    1
    53    12    13    1
