@<TRIPOS>MOLECULE
mol_data/opt/b3lyp/geoms/mol2/4dg4dg.out
 26 27 0 0 0
SMALL
GASTEIGER

@<TRIPOS>ATOM
      1 C          -0.0326    0.1971    0.6668 C.ar    1  LIG1        0.0524
      2 C           1.3687    0.2056    0.6420 C.ar    1  LIG1       -0.0355
      3 C          -0.7382    1.2040   -0.0101 C.ar    1  LIG1       -0.0433
      4 C           2.0749    1.2008   -0.0381 C.ar    1  LIG1       -0.0022
      5 H           1.9159   -0.5714    1.1643 H       1  LIG1        0.0637
      6 C          -0.0475    2.1945   -0.6935 C.ar    1  LIG1       -0.0468
      7 C           1.3555    2.2079   -0.7189 C.ar    1  LIG1        0.0126
      8 H          -0.6062    2.9640   -1.2162 H       1  LIG1        0.0629
      9 H          -1.8225    1.2049    0.0019 H       1  LIG1        0.0631
     10 N          -1.3122   -1.6444    1.9745 N.1     1  LIG1       -0.1909
     11 C          -0.7362   -0.8234    1.3849 C.1     1  LIG1        0.0992
     12 S           2.2570    3.4616   -1.6134 S.3     1  LIG1       -0.1420
     13 H           1.1714    4.0500   -2.1521 H       1  LIG1        0.1071
     14 C           4.2977    0.1491   -0.6570 C.ar    1  LIG1        0.0596
     15 C           5.7015    0.1452   -0.5904 C.ar    1  LIG1       -0.0427
     16 C           3.5684    1.1774   -0.0180 C.ar    1  LIG1        0.0016
     17 C           6.3820    1.1424    0.0921 C.ar    1  LIG1       -0.0473
     18 H           6.2521   -0.6466   -1.0866 H       1  LIG1        0.0631
     19 C           4.2690    2.1730    0.6687 C.ar    1  LIG1       -0.0396
     20 C           5.6683    2.1689    0.7284 C.ar    1  LIG1        0.0054
     21 H           3.7045    2.9532    1.1691 H       1  LIG1        0.0635
     22 H           7.4665    1.1257    0.1297 H       1  LIG1        0.0629
     23 N           3.1234   -1.7427   -1.9922 N.1     1  LIG1       -0.1909
     24 C           3.6336   -0.8879   -1.3898 C.1     1  LIG1        0.0998
     25 S           6.5988    3.4118    1.5970 S.3     1  LIG1       -0.1426
     26 H           5.5497    4.1717    1.9653 H       1  LIG1        0.1071
@<TRIPOS>BOND
     1    13    12    1
     2    23    24    3
     3    12     7    1
     4    24    14    1
     5     8     6    1
     6    18    15    1
     7     7     6   ar
     8     7     4   ar
     9     6     3   ar
    10    14    15   ar
    11    14    16   ar
    12    15    17   ar
    13     4    16    1
    14     4     2   ar
    15    16    19   ar
    16     3     9    1
    17     3     1   ar
    18    17    22    1
    19    17    20   ar
    20     2     1   ar
    21     2     5    1
    22     1    11    1
    23    19    20   ar
    24    19    21    1
    25    20    25    1
    26    11    10    3
    27    25    26    1
