@<TRIPOS>MOLECULE
mol_data/opt/b3lyp/geoms/mol2/4dg4dg4dg-4dg.out
 50 53 0 0 0
SMALL
GASTEIGER

@<TRIPOS>ATOM
      1 C          -0.2403    0.1410    0.7131 C.ar    1  LIG1        0.0524
      2 C           1.1599    0.1718    0.6655 C.ar    1  LIG1       -0.0355
      3 C          -0.9730    1.1408    0.0547 C.ar    1  LIG1       -0.0433
      4 C           1.8378    1.1838   -0.0195 C.ar    1  LIG1       -0.0022
      5 H           1.7285   -0.5996    1.1732 H       1  LIG1        0.0637
      6 C          -0.3105    2.1468   -0.6336 C.ar    1  LIG1       -0.0468
      7 C           1.0912    2.1831   -0.6820 C.ar    1  LIG1        0.0126
      8 H          -0.8904    2.9100   -1.1424 H       1  LIG1        0.0629
      9 H          -2.0570    1.1236    0.0847 H       1  LIG1        0.0631
     10 N          -1.4774   -1.7248    2.0272 N.1     1  LIG1       -0.1909
     11 C          -0.9181   -0.8941    1.4354 C.1     1  LIG1        0.0992
     12 S           1.9562    3.4565   -1.5863 S.3     1  LIG1       -0.1420
     13 H           0.8526    4.0264   -2.1075 H       1  LIG1        0.1071
     14 C           4.0694    0.1657   -0.6673 C.ar    1  LIG1        0.0601
     15 C           5.4698    0.1864   -0.6202 C.ar    1  LIG1       -0.0350
     16 C           3.3309    1.1841   -0.0242 C.ar    1  LIG1        0.0016
     17 C           6.1663    1.1991    0.0416 C.ar    1  LIG1       -0.0022
     18 H           6.0243   -0.6000   -1.1203 H       1  LIG1        0.0637
     19 C           4.0301    2.1910    0.6428 C.ar    1  LIG1       -0.0390
     20 C           5.4302    2.2170    0.6856 C.ar    1  LIG1        0.0131
     21 H           3.4616    2.9632    1.1504 H       1  LIG1        0.0635
     22 N           2.9009   -1.7359   -1.9941 N.1     1  LIG1       -0.1908
     23 C           3.4132   -0.8818   -1.3929 C.1     1  LIG1        0.0998
     24 S           6.3048    3.4947    1.5722 S.3     1  LIG1       -0.1420
     25 H           5.2047    4.1045    2.0539 H       1  LIG1        0.1071
     26 C           8.3804    0.1501    0.6915 C.ar    1  LIG1        0.0601
     27 C           9.7809    0.1476    0.6419 C.ar    1  LIG1       -0.0350
     28 C           7.6585    1.1776    0.0441 C.ar    1  LIG1        0.0016
     29 C          10.4935    1.1444   -0.0259 C.ar    1  LIG1       -0.0022
     30 H          10.3228   -0.6462    1.1440 H       1  LIG1        0.0637
     31 C           8.3730    2.1700   -0.6283 C.ar    1  LIG1       -0.0390
     32 C           9.7737    2.1721   -0.6732 C.ar    1  LIG1        0.0131
     33 H           7.8171    2.9490   -1.1392 H       1  LIG1        0.0635
     34 N           7.1821   -1.7237    2.0309 N.1     1  LIG1       -0.1908
     35 C           7.7082   -0.8821    1.4239 C.1     1  LIG1        0.0998
     36 S          10.6703    3.4296   -1.5639 S.3     1  LIG1       -0.1420
     37 H           9.5810    4.0596   -2.0443 H       1  LIG1        0.1071
     38 C          12.6837    0.0663   -0.7039 C.ar    1  LIG1        0.0596
     39 C          14.0881    0.0366   -0.6652 C.ar    1  LIG1       -0.0427
     40 C          11.9862    1.0968   -0.0336 C.ar    1  LIG1        0.0016
     41 C          14.7991    1.0097    0.0210 C.ar    1  LIG1       -0.0473
     42 H          14.6147   -0.7563   -1.1850 H       1  LIG1        0.0631
     43 C          12.7167    2.0685    0.6557 C.ar    1  LIG1       -0.0396
     44 C          14.1167    2.0378    0.6887 C.ar    1  LIG1        0.0054
     45 H          12.1763    2.8504    1.1792 H       1  LIG1        0.0635
     46 H          15.8836    0.9728    0.0377 H       1  LIG1        0.0629
     47 N          11.4394   -1.7764   -2.0442 N.1     1  LIG1       -0.1909
     48 C          11.9843   -0.9447   -1.4398 C.1     1  LIG1        0.0998
     49 S          15.0863    3.2480    1.5597 S.3     1  LIG1       -0.1426
     50 H          14.0580    4.0151    1.9697 H       1  LIG1        0.1071
@<TRIPOS>BOND
     1    13    12    1
     2    37    36    1
     3    47    48    3
     4    22    23    3
     5    12     7    1
     6    36    32    1
     7    48    38    1
     8    23    14    1
     9    42    39    1
    10     8     6    1
    11    33    31    1
    12    18    15    1
    13    38    39   ar
    14    38    40   ar
    15     7     6   ar
    16     7     4   ar
    17    32    31   ar
    18    32    29   ar
    19    14    15   ar
    20    14    16   ar
    21    39    41   ar
    22     6     3   ar
    23    31    28   ar
    24    15    17   ar
    25    40    29    1
    26    40    43   ar
    27    29    27   ar
    28    16     4    1
    29    16    19   ar
    30     4     2   ar
    31    41    46    1
    32    41    44   ar
    33    17    28    1
    34    17    20   ar
    35    28    26   ar
    36     3     9    1
    37     3     1   ar
    38    27    26   ar
    39    27    30    1
    40    19    20   ar
    41    19    21    1
    42    43    44   ar
    43    43    45    1
    44     2     1   ar
    45     2     5    1
    46    20    24    1
    47    44    49    1
    48    26    35    1
    49     1    11    1
    50    35    34    3
    51    11    10    3
    52    49    50    1
    53    24    25    1
