@<TRIPOS>MOLECULE
mol_data/opt/b3lyp/geoms/mol2/4dg4dg-4dg-4dg.out
 50 53 0 0 0
SMALL
GASTEIGER

@<TRIPOS>ATOM
      1 C          -0.2111    0.6803   -1.2114 C.ar    1  LIG1        0.0524
      2 C           1.1875    0.6821   -1.1211 C.ar    1  LIG1       -0.0355
      3 C          -0.9708    1.1187   -0.1156 C.ar    1  LIG1       -0.0433
      4 C           1.8373    1.1196    0.0354 C.ar    1  LIG1       -0.0022
      5 H           1.7763    0.3422   -1.9659 H       1  LIG1        0.0637
      6 C          -0.3360    1.5493    1.0404 C.ar    1  LIG1       -0.0468
      7 C           1.0643    1.5563    1.1343 C.ar    1  LIG1        0.0126
      8 H          -0.9365    1.8802    1.8815 H       1  LIG1        0.0629
      9 H          -2.0537    1.1188   -0.1750 H       1  LIG1        0.0631
     10 N          -1.3841   -0.0949   -3.3935 N.1     1  LIG1       -0.1909
     11 C          -0.8563    0.2464   -2.4144 C.1     1  LIG1        0.0992
     12 S           1.8960    2.0837    2.6214 S.3     1  LIG1       -0.1420
     13 H           0.7754    2.2552    3.3492 H       1  LIG1        0.1071
     14 C           4.0756   -0.0765    0.0625 C.ar    1  LIG1        0.0601
     15 C           5.4763   -0.0258    0.0681 C.ar    1  LIG1       -0.0350
     16 C           3.3304    1.1236    0.0738 C.ar    1  LIG1        0.0016
     17 C           6.1653    1.1880    0.0807 C.ar    1  LIG1       -0.0022
     18 H           6.0365   -0.9544    0.0609 H       1  LIG1        0.0637
     19 C           4.0224    2.3352    0.0920 C.ar    1  LIG1       -0.0390
     20 C           5.4224    2.3881    0.0992 C.ar    1  LIG1        0.0131
     21 H           3.4487    3.2561    0.0949 H       1  LIG1        0.0635
     22 N           2.9172   -2.4000    0.0303 N.1     1  LIG1       -0.1908
     23 C           3.4251   -1.3537    0.0495 C.1     1  LIG1        0.0998
     24 S           6.2896    3.9466    0.1430 S.3     1  LIG1       -0.1420
     25 H           5.1914    4.7094    0.3061 H       1  LIG1        0.1071
     26 C           8.4100    0.6850    1.1500 C.ar    1  LIG1        0.0601
     27 C           9.8096    0.6745    1.0790 C.ar    1  LIG1       -0.0350
     28 C           7.6581    1.1837    0.0632 C.ar    1  LIG1        0.0016
     29 C          10.4921    1.1537   -0.0400 C.ar    1  LIG1       -0.0022
     30 H          10.3750    0.2919    1.9215 H       1  LIG1        0.0637
     31 C           8.3421    1.6552   -1.0581 C.ar    1  LIG1       -0.0390
     32 C           9.7417    1.6495   -1.1284 C.ar    1  LIG1        0.0131
     33 H           7.7629    2.0216   -1.8991 H       1  LIG1        0.0635
     34 N           7.2758   -0.1713    3.3228 N.1     1  LIG1       -0.1908
     35 C           7.7709    0.2108    2.3419 C.1     1  LIG1        0.0998
     36 S          10.5982    2.2246   -2.5827 S.3     1  LIG1       -0.1420
     37 H           9.4889    2.4659   -3.3078 H       1  LIG1        0.1071
     38 C          12.7055   -0.0810   -0.0465 C.ar    1  LIG1        0.0596
     39 C          14.1105   -0.0581   -0.0260 C.ar    1  LIG1       -0.0427
     40 C          11.9852    1.1351   -0.0505 C.ar    1  LIG1        0.0016
     41 C          14.8000    1.1452   -0.0131 C.ar    1  LIG1       -0.0473
     42 H          14.6546   -0.9963   -0.0261 H       1  LIG1        0.0631
     43 C          12.6944    2.3392   -0.0344 C.ar    1  LIG1       -0.0396
     44 C          14.0949    2.3581   -0.0182 C.ar    1  LIG1        0.0054
     45 H          12.1370    3.2701   -0.0241 H       1  LIG1        0.0635
     46 H          15.8852    1.1437   -0.0006 H       1  LIG1        0.0629
     47 N          11.5026   -2.3810   -0.1057 N.1     1  LIG1       -0.1909
     48 C          12.0288   -1.3436   -0.0795 C.1     1  LIG1        0.0998
     49 S          15.0368    3.8665    0.0106 S.3     1  LIG1       -0.1426
     50 H          13.9903    4.7117   -0.0560 H       1  LIG1        0.1071
@<TRIPOS>BOND
     1    10    11    3
     2    37    36    1
     3    36    32    1
     4    11     1    1
     5     5     2    1
     6    33    31    1
     7     1     2   ar
     8     1     3   ar
     9    32    31   ar
    10    32    29   ar
    11     2     4   ar
    12    31    28   ar
    13     9     3    1
    14     3     6   ar
    15    47    48    3
    16    48    38    1
    17    50    49    1
    18    40    38   ar
    19    40    29    1
    20    40    43   ar
    21    38    39   ar
    22    29    27   ar
    23    43    45    1
    24    43    44   ar
    25    42    39    1
    26    39    41   ar
    27    44    41   ar
    28    44    49    1
    29    41    46    1
    30    22    23    3
    31     4    16    1
    32     4     7   ar
    33    23    14    1
    34    18    15    1
    35    14    15   ar
    36    14    16   ar
    37    28    17    1
    38    28    26   ar
    39    15    17   ar
    40    16    19   ar
    41    17    20   ar
    42    19    21    1
    43    19    20   ar
    44    20    24    1
    45    24    25    1
    46     6     7   ar
    47     6     8    1
    48    27    26   ar
    49    27    30    1
    50     7    12    1
    51    26    35    1
    52    35    34    3
    53    12    13    1
