@<TRIPOS>MOLECULE
mol_data/opt/b3lyp/geoms/mol2/4dg4dg-4dg-4dg-.out
 50 53 0 0 0
SMALL
GASTEIGER

@<TRIPOS>ATOM
      1 C          -0.2404    0.1368   -0.6975 C.ar    1  LIG1        0.0524
      2 C           1.1598    0.1667   -0.6482 C.ar    1  LIG1       -0.0355
      3 C          -0.9729    1.1482   -0.0567 C.ar    1  LIG1       -0.0433
      4 C           1.8378    1.1890    0.0211 C.ar    1  LIG1       -0.0022
      5 H           1.7282   -0.6136   -1.1422 H       1  LIG1        0.0637
      6 C          -0.3102    2.1647    0.6160 C.ar    1  LIG1       -0.0468
      7 C           1.0915    2.2000    0.6659 C.ar    1  LIG1        0.0126
      8 H          -0.8900    2.9369    1.1111 H       1  LIG1        0.0629
      9 H          -2.0568    1.1319   -0.0882 H       1  LIG1        0.0631
     10 N          -1.4779   -1.7489   -1.9825 N.1     1  LIG1       -0.1909
     11 C          -0.9184   -0.9092   -1.4035 C.1     1  LIG1        0.0992
     12 S           1.9567    3.4869    1.5505 S.3     1  LIG1       -0.1420
     13 H           0.8533    4.0663    2.0613 H       1  LIG1        0.1071
     14 C           4.0672    0.1793    0.6891 C.ar    1  LIG1        0.0601
     15 C           5.4677    0.1976    0.6438 C.ar    1  LIG1       -0.0350
     16 C           3.3310    1.1878    0.0282 C.ar    1  LIG1        0.0016
     17 C           6.1663    1.1985   -0.0336 C.ar    1  LIG1       -0.0022
     18 H           6.0206   -0.5811    1.1576 H       1  LIG1        0.0637
     19 C           4.0321    2.1827   -0.6544 C.ar    1  LIG1       -0.0390
     20 C           5.4324    2.2065   -0.6955 C.ar    1  LIG1        0.0131
     21 H           3.4653    2.9469   -1.1757 H       1  LIG1        0.0635
     22 N           2.8943   -1.6987    2.0453 N.1     1  LIG1       -0.1908
     23 C           3.4086   -0.8554    1.4309 C.1     1  LIG1        0.0998
     24 S           6.3098    3.4683   -1.6016 S.3     1  LIG1       -0.1420
     25 H           5.2112    4.0723   -2.0938 H       1  LIG1        0.1071
     26 C           8.3807    0.1368   -0.6628 C.ar    1  LIG1        0.0601
     27 C           9.7811    0.1340   -0.6110 C.ar    1  LIG1       -0.0350
     28 C           7.6587    1.1755   -0.0337 C.ar    1  LIG1        0.0016
     29 C          10.4935    1.1412    0.0412 C.ar    1  LIG1       -0.0022
     30 H          10.3231   -0.6684   -1.0990 H       1  LIG1        0.0637
     31 C           8.3729    2.1784    0.6234 C.ar    1  LIG1       -0.0390
     32 C           9.7735    2.1800    0.6704 C.ar    1  LIG1        0.0131
     33 H           7.8168    2.9662    1.1204 H       1  LIG1        0.0635
     34 N           7.1831   -1.7582   -1.9727 N.1     1  LIG1       -0.1908
     35 C           7.7088   -0.9070   -1.3789 C.1     1  LIG1        0.0998
     36 S          10.6701    3.4515    1.5415 S.3     1  LIG1       -0.1420
     37 H           9.5805    4.0894    2.0110 H       1  LIG1        0.1071
     38 C          12.6819    0.0728    0.7397 C.ar    1  LIG1        0.0596
     39 C          14.0863    0.0414    0.7034 C.ar    1  LIG1       -0.0427
     40 C          11.9860    1.0928    0.0518 C.ar    1  LIG1        0.0016
     41 C          14.7989    1.0028    0.0025 C.ar    1  LIG1       -0.0473
     42 H          14.6116   -0.7433    1.2367 H       1  LIG1        0.0631
     43 C          12.7182    2.0527   -0.6522 C.ar    1  LIG1       -0.0396
     44 C          14.1182    2.0204   -0.6827 C.ar    1  LIG1        0.0054
     45 H          12.1790    2.8263   -1.1890 H       1  LIG1        0.0635
     46 H          15.8835    0.9648   -0.0121 H       1  LIG1        0.0629
     47 N          11.4340   -1.7471    2.1076 N.1     1  LIG1       -0.1909
     48 C          11.9806   -0.9257    1.4909 C.1     1  LIG1        0.0998
     49 S          15.0898    3.2156   -1.5720 S.3     1  LIG1       -0.1426
     50 H          14.0626    3.9764   -1.9960 H       1  LIG1        0.1071
@<TRIPOS>BOND
     1    25    24    1
     2    50    49    1
     3    10    11    3
     4    34    35    3
     5    24    20    1
     6    49    44    1
     7    11     1    1
     8    35    26    1
     9    45    43    1
    10    21    19    1
    11     5     2    1
    12    30    27    1
    13     1     2   ar
    14     1     3   ar
    15    20    19   ar
    16    20    17   ar
    17    44    43   ar
    18    44    41   ar
    19    26    27   ar
    20    26    28   ar
    21    19    16   ar
    22    43    40   ar
    23     2     4   ar
    24    27    29   ar
    25     9     3    1
    26     3     6   ar
    27    28    17    1
    28    28    31   ar
    29    17    15   ar
    30    46    41    1
    31    41    39   ar
    32     4    16    1
    33     4     7   ar
    34    16    14   ar
    35    29    40    1
    36    29    32   ar
    37    40    38   ar
    38     6     7   ar
    39     6     8    1
    40    31    32   ar
    41    31    33    1
    42    15    14   ar
    43    15    18    1
    44     7    12    1
    45    32    36    1
    46    14    23    1
    47    39    38   ar
    48    39    42    1
    49    38    48    1
    50    23    22    3
    51    48    47    3
    52    36    37    1
    53    12    13    1
