@<TRIPOS>MOLECULE
mol_data/opt/b3lyp/geoms/mol2/4dg4dg4dg.out
 38 40 0 0 0
SMALL
GASTEIGER

@<TRIPOS>ATOM
      1 C          -0.0970    0.7138    1.2210 C.ar    1  LIG1        0.0524
      2 C           1.3014    0.7037    1.1287 C.ar    1  LIG1       -0.0355
      3 C          -0.8533    1.1924    0.1397 C.ar    1  LIG1       -0.0433
      4 C           1.9547    1.1681   -0.0153 C.ar    1  LIG1       -0.0022
      5 H           1.8876    0.3331    1.9624 H       1  LIG1        0.0637
      6 C          -0.2152    1.6500   -1.0040 C.ar    1  LIG1       -0.0468
      7 C           1.1850    1.6450   -1.0999 C.ar    1  LIG1        0.0126
      8 H          -0.8132    2.0119   -1.8341 H       1  LIG1        0.0629
      9 H          -1.9361    1.2022    0.2006 H       1  LIG1        0.0631
     10 N          -1.2752   -0.1144    3.3806 N.1     1  LIG1       -0.1909
     11 C          -0.7453    0.2509    2.4115 C.1     1  LIG1        0.0992
     12 S           2.0199    2.2065   -2.5724 S.3     1  LIG1       -0.1420
     13 H           0.8998    2.4176   -3.2903 H       1  LIG1        0.1071
     14 C           4.1794   -0.0517   -0.0711 C.ar    1  LIG1        0.0601
     15 C           5.5805   -0.0159   -0.0757 C.ar    1  LIG1       -0.0350
     16 C           3.4477    1.1566   -0.0551 C.ar    1  LIG1        0.0016
     17 C           6.2844    1.1891   -0.0616 C.ar    1  LIG1       -0.0022
     18 H           6.1296   -0.9509   -0.0895 H       1  LIG1        0.0637
     19 C           4.1539    2.3602   -0.0465 C.ar    1  LIG1       -0.0390
     20 C           5.5547    2.3976   -0.0532 C.ar    1  LIG1        0.0131
     21 H           3.5910    3.2875   -0.0286 H       1  LIG1        0.0635
     22 N           3.0030   -2.3661   -0.0903 N.1     1  LIG1       -0.1908
     23 C           3.5170   -1.3225   -0.0864 C.1     1  LIG1        0.0998
     24 S           6.4389    3.9465   -0.0631 S.3     1  LIG1       -0.1420
     25 H           5.3480    4.7243   -0.2030 H       1  LIG1        0.1071
     26 C           8.5202    0.6761   -1.1419 C.ar    1  LIG1        0.0596
     27 C           9.9236    0.6431   -1.0741 C.ar    1  LIG1       -0.0427
     28 C           7.7775    1.1655   -0.0436 C.ar    1  LIG1        0.0016
     29 C          10.5900    1.0886    0.0576 C.ar    1  LIG1       -0.0473
     30 H          10.4850    0.2685   -1.9231 H       1  LIG1        0.0631
     31 C           8.4637    1.6080    1.0909 C.ar    1  LIG1       -0.0396
     32 C           9.8626    1.5775    1.1530 C.ar    1  LIG1        0.0054
     33 H           7.8889    1.9702    1.9370 H       1  LIG1        0.0635
     34 H          11.6743    1.0579    0.0909 H       1  LIG1        0.0629
     35 N           7.3733   -0.1481   -3.3203 N.1     1  LIG1       -0.1909
     36 C           7.8712    0.2250   -2.3371 C.1     1  LIG1        0.0998
     37 S          10.7755    2.1237    2.5785 S.3     1  LIG1       -0.1426
     38 H           9.7153    2.5226    3.3068 H       1  LIG1        0.1071
@<TRIPOS>BOND
     1    35    36    3
     2    13    12    1
     3    12     7    1
     4    36    26    1
     5    30    27    1
     6     8     6    1
     7    26    27   ar
     8    26    28   ar
     9     7     6   ar
    10     7     4   ar
    11    27    29   ar
    12     6     3   ar
    13    25    24    1
    14    22    23    3
    15    18    15    1
    16    23    14    1
    17    15    14   ar
    18    15    17   ar
    19    14    16   ar
    20    24    20    1
    21    17    20   ar
    22    17    28    1
    23    16    19   ar
    24    16     4    1
    25    20    19   ar
    26    19    21    1
    27    28    31   ar
    28     4     2   ar
    29    29    34    1
    30    29    32   ar
    31     3     9    1
    32     3     1   ar
    33    31    32   ar
    34    31    33    1
    35     2     1   ar
    36     2     5    1
    37    32    37    1
    38     1    11    1
    39    11    10    3
    40    37    38    1
