@<TRIPOS>MOLECULE
mol_data/opt/b3lyp/geoms/mol2/4dg4dg4dg4dg-.out
 50 53 0 0 0
SMALL
GASTEIGER

@<TRIPOS>ATOM
      1 C          -0.2072    0.7280    1.2600 C.ar    1  LIG1        0.0524
      2 C           1.1907    0.7170    1.1596 C.ar    1  LIG1       -0.0355
      3 C          -0.9698    1.1981    0.1794 C.ar    1  LIG1       -0.0433
      4 C           1.8371    1.1726    0.0082 C.ar    1  LIG1       -0.0022
      5 H           1.7817    0.3526    1.9927 H       1  LIG1        0.0637
      6 C          -0.3385    1.6469   -0.9715 C.ar    1  LIG1       -0.0468
      7 C           1.0611    1.6412   -1.0754 C.ar    1  LIG1        0.0126
      8 H          -0.9413    2.0023   -1.8009 H       1  LIG1        0.0629
      9 H          -2.0521    1.2083    0.2466 H       1  LIG1        0.0631
     10 N          -1.3731   -0.0818    3.4332 N.1     1  LIG1       -0.1909
     11 C          -0.8486    0.2750    2.4580 C.1     1  LIG1        0.0992
     12 S           1.8880    2.1921   -2.5565 S.3     1  LIG1       -0.1420
     13 H           0.7643    2.3920   -3.2720 H       1  LIG1        0.1071
     14 C           4.0622   -0.0461   -0.0611 C.ar    1  LIG1        0.0601
     15 C           5.4633   -0.0101   -0.0755 C.ar    1  LIG1       -0.0350
     16 C           3.3299    1.1617   -0.0407 C.ar    1  LIG1        0.0016
     17 C           6.1652    1.1963   -0.0662 C.ar    1  LIG1       -0.0022
     18 H           6.0135   -0.9445   -0.0927 H       1  LIG1        0.0637
     19 C           4.0347    2.3661   -0.0371 C.ar    1  LIG1       -0.0390
     20 C           5.4351    2.4043   -0.0530 C.ar    1  LIG1        0.0131
     21 H           3.4709    3.2928   -0.0156 H       1  LIG1        0.0635
     22 N           2.8792   -2.3573   -0.0722 N.1     1  LIG1       -0.1908
     23 C           3.3981   -1.3163   -0.0717 C.1     1  LIG1        0.0998
     24 S           6.3185    3.9542   -0.0686 S.3     1  LIG1       -0.1420
     25 H           5.2276    4.7319   -0.2075 H       1  LIG1        0.1071
     26 C           8.3971    0.6930   -1.1616 C.ar    1  LIG1        0.0601
     27 C           9.7970    0.6661   -1.1005 C.ar    1  LIG1       -0.0350
     28 C           7.6579    1.1758   -0.0590 C.ar    1  LIG1        0.0016
     29 C          10.4921    1.1137    0.0238 C.ar    1  LIG1       -0.0022
     30 H          10.3526    0.2960   -1.9550 H       1  LIG1        0.0637
     31 C           8.3544    1.6155    1.0674 C.ar    1  LIG1       -0.0390
     32 C           9.7543    1.5935    1.1280 C.ar    1  LIG1        0.0131
     33 H           7.7848    1.9695    1.9203 H       1  LIG1        0.0635
     34 N           7.2395   -0.1035   -3.3447 N.1     1  LIG1       -0.1908
     35 C           7.7452    0.2518   -2.3591 C.1     1  LIG1        0.0998
     36 S          10.6267    2.1278    2.5883 S.3     1  LIG1       -0.1420
     37 H           9.5250    2.3651    3.3262 H       1  LIG1        0.1071
     38 C          12.6924   -0.1439   -0.0118 C.ar    1  LIG1        0.0596
     39 C          14.0974   -0.1349   -0.0415 C.ar    1  LIG1       -0.0427
     40 C          11.9849    1.0793    0.0237 C.ar    1  LIG1        0.0016
     41 C          14.7993    1.0611   -0.0329 C.ar    1  LIG1       -0.0473
     42 H          14.6316   -1.0785   -0.0655 H       1  LIG1        0.0631
     43 C          12.7066    2.2761    0.0288 C.ar    1  LIG1       -0.0396
     44 C          14.1070    2.2808    0.0034 C.ar    1  LIG1        0.0054
     45 H          12.1588    3.2126    0.0426 H       1  LIG1        0.0635
     46 H          15.8844    1.0488   -0.0529 H       1  LIG1        0.0629
     47 N          11.4659   -2.4320    0.0055 N.1     1  LIG1       -0.1909
     48 C          12.0028   -1.3997   -0.0017 C.1     1  LIG1        0.0998
     49 S          15.0645    3.7797    0.0007 S.3     1  LIG1       -0.1426
     50 H          14.0275    4.6339    0.0953 H       1  LIG1        0.1071
@<TRIPOS>BOND
     1    34    35    3
     2    13    12    1
     3    12     7    1
     4    35    26    1
     5    30    27    1
     6     8     6    1
     7    26    27   ar
     8    26    28   ar
     9    27    29   ar
    10     7     6   ar
    11     7     4   ar
    12     6     3   ar
    13    25    24    1
    14    18    15    1
    15    15    17   ar
    16    15    14   ar
    17    22    23    3
    18    23    14    1
    19    24    20    1
    20    17    28    1
    21    17    20   ar
    22    42    39    1
    23    14    16   ar
    24    28    31   ar
    25    20    19   ar
    26    46    41    1
    27    39    41   ar
    28    39    38   ar
    29    16    19   ar
    30    16     4    1
    31    19    21    1
    32    41    44   ar
    33    38    48    1
    34    38    40   ar
    35    48    47    3
    36    49    44    1
    37    49    50    1
    38    44    43   ar
    39     4     2   ar
    40    40    29    1
    41    40    43   ar
    42    29    32   ar
    43    43    45    1
    44     3     9    1
    45     3     1   ar
    46    31    32   ar
    47    31    33    1
    48    32    36    1
    49     2     1   ar
    50     2     5    1
    51     1    11    1
    52    11    10    3
    53    36    37    1
