@<TRIPOS>MOLECULE
mol_data/opt/b3lyp/geoms/mol2/4dg4dg-.out
 26 27 0 0 0
SMALL
GASTEIGER

@<TRIPOS>ATOM
      1 C          -0.0194    0.1830   -0.6979 C.ar    1  LIG1        0.0524
      2 C           1.3812    0.1930   -0.6472 C.ar    1  LIG1       -0.0355
      3 C          -0.7377    1.2020   -0.0533 C.ar    1  LIG1       -0.0433
      4 C           2.0743    1.2013    0.0272 C.ar    1  LIG1       -0.0022
      5 H           1.9384   -0.5933   -1.1445 H       1  LIG1        0.0637
      6 C          -0.0603    2.2055    0.6241 C.ar    1  LIG1       -0.0468
      7 C           1.3420    2.2204    0.6754 C.ar    1  LIG1        0.0126
      8 H          -0.6290    2.9843    1.1219 H       1  LIG1        0.0629
      9 H          -1.8218    1.2019   -0.0856 H       1  LIG1        0.0631
     10 N          -1.2736   -1.6838   -1.9943 N.1     1  LIG1       -0.1909
     11 C          -0.7091   -0.8512   -1.4098 C.1     1  LIG1        0.0992
     12 S           2.2259    3.4910    1.5635 S.3     1  LIG1       -0.1420
     13 H           1.1301    4.0899    2.0688 H       1  LIG1        0.1071
     14 C           4.2856    0.1631    0.7070 C.ar    1  LIG1        0.0596
     15 C           5.6904    0.1584    0.6660 C.ar    1  LIG1       -0.0427
     16 C           3.5680    1.1784    0.0349 C.ar    1  LIG1        0.0016
     17 C           6.3831    1.1424   -0.0232 C.ar    1  LIG1       -0.0473
     18 H           6.2318   -0.6235    1.1875 H       1  LIG1        0.0631
     19 C           4.2809    2.1608   -0.6583 C.ar    1  LIG1       -0.0396
     20 C           5.6811    2.1560   -0.6922 C.ar    1  LIG1        0.0054
     21 H           3.7257    2.9306   -1.1842 H       1  LIG1        0.0635
     22 H           7.4682    1.1256   -0.0405 H       1  LIG1        0.0629
     23 N           3.0870   -1.7027    2.0572 N.1     1  LIG1       -0.1909
     24 C           3.6082   -0.8596    1.4477 C.1     1  LIG1        0.0998
     25 S           6.6272    3.3821   -1.5681 S.3     1  LIG1       -0.1426
     26 H           5.5853    4.1368   -1.9663 H       1  LIG1        0.1071
@<TRIPOS>BOND
     1    10    11    3
     2    26    25    1
     3    25    20    1
     4    11     1    1
     5    21    19    1
     6     5     2    1
     7     1     2   ar
     8     1     3   ar
     9    20    19   ar
    10    20    17   ar
    11    19    16   ar
    12     2     4   ar
    13     9     3    1
    14     3     6   ar
    15    22    17    1
    16    17    15   ar
    17     4    16    1
    18     4     7   ar
    19    16    14   ar
    20     6     7   ar
    21     6     8    1
    22    15    14   ar
    23    15    18    1
    24     7    12    1
    25    14    24    1
    26    24    23    3
    27    12    13    1
