@<TRIPOS>MOLECULE
mol_data/opt/b3lyp/geoms/mol2/4dg4dg4dg4dg.out
 50 53 0 0 0
SMALL
GASTEIGER

@<TRIPOS>ATOM
      1 C          -0.1782    1.3172    1.4061 C.ar    1  LIG1        0.0524
      2 C           1.2182    1.2897    1.2905 C.ar    1  LIG1       -0.0355
      3 C          -0.9660    1.1291    0.2597 C.ar    1  LIG1       -0.0433
      4 C           1.8386    1.0866    0.0556 C.ar    1  LIG1       -0.0022
      5 H           1.8288    1.4336    2.1751 H       1  LIG1        0.0637
      6 C          -0.3606    0.9204   -0.9710 C.ar    1  LIG1       -0.0468
      7 C           1.0375    0.8955   -1.0925 C.ar    1  LIG1        0.0126
      8 H          -0.9826    0.7707   -1.8475 H       1  LIG1        0.0629
      9 H          -2.0474    1.1462    0.3391 H       1  LIG1        0.0631
     10 N          -1.2944    1.7416    3.7109 N.1     1  LIG1       -0.1909
     11 C          -0.7924    1.5459    2.6798 C.1     1  LIG1        0.0992
     12 S           1.8318    0.6034   -2.6621 S.3     1  LIG1       -0.1420
     13 H           0.6951    0.3806   -3.3496 H       1  LIG1        0.1071
     14 C           4.1007    0.0700    0.5904 C.ar    1  LIG1        0.0601
     15 C           5.4997    0.1265    0.5269 C.ar    1  LIG1       -0.0350
     16 C           3.3304    1.0868   -0.0164 C.ar    1  LIG1        0.0016
     17 C           6.1633    1.1695   -0.1204 C.ar    1  LIG1       -0.0022
     18 H           6.0787   -0.6617    0.9952 H       1  LIG1        0.0637
     19 C           3.9967    2.1247   -0.6693 C.ar    1  LIG1       -0.0390
     20 C           5.3956    2.1824   -0.7356 C.ar    1  LIG1        0.0131
     21 H           3.4039    2.9072   -1.1311 H       1  LIG1        0.0635
     22 N           3.0042   -1.9236    1.8411 N.1     1  LIG1       -0.1908
     23 C           3.4812   -1.0275    1.2729 C.1     1  LIG1        0.0998
     24 S           6.2305    3.5031   -1.5931 S.3     1  LIG1       -0.1420
     25 H           5.1133    4.0740   -2.0835 H       1  LIG1        0.1071
     26 C           8.4063    0.2127   -0.8222 C.ar    1  LIG1        0.0601
     27 C           9.8066    0.2518   -0.7770 C.ar    1  LIG1       -0.0350
     28 C           7.6561    1.1904   -0.1316 C.ar    1  LIG1        0.0016
     29 C          10.4912    1.2346   -0.0607 C.ar    1  LIG1       -0.0022
     30 H          10.3704   -0.5038   -1.3129 H       1  LIG1        0.0637
     31 C           8.3428    2.1754    0.5796 C.ar    1  LIG1       -0.0390
     32 C           9.7429    2.2166    0.6241 C.ar    1  LIG1        0.0131
     33 H           7.7657    2.9217    1.1154 H       1  LIG1        0.0635
     34 N           7.2671   -1.6791   -2.1876 N.1     1  LIG1       -0.1908
     35 C           7.7645   -0.8234   -1.5763 C.1     1  LIG1        0.0998
     36 S          10.6038    3.4930    1.5236 S.3     1  LIG1       -0.1420
     37 H           9.5037    4.2056    1.8346 H       1  LIG1        0.1071
     38 C          12.7491    1.4489   -1.1939 C.ar    1  LIG1        0.0596
     39 C          14.1518    1.3904   -1.1291 C.ar    1  LIG1       -0.0427
     40 C          11.9841    1.2126   -0.0293 C.ar    1  LIG1        0.0016
     41 C          14.7956    1.1069    0.0660 C.ar    1  LIG1       -0.0473
     42 H          14.7305    1.5762   -2.0274 H       1  LIG1        0.0631
     43 C          12.6476    0.9248    1.1668 C.ar    1  LIG1       -0.0396
     44 C          14.0460    0.8720    1.2284 C.ar    1  LIG1        0.0054
     45 H          12.0559    0.7299    2.0553 H       1  LIG1        0.0635
     46 H          15.8798    1.0692    0.0978 H       1  LIG1        0.0629
     47 N          11.6418    2.0231   -3.4709 N.1     1  LIG1       -0.1909
     48 C          12.1226    1.7646   -2.4433 C.1     1  LIG1        0.0998
     49 S          14.9312    0.5025    2.7259 S.3     1  LIG1       -0.1426
     50 H          13.8565    0.4155    3.5330 H       1  LIG1        0.1071
@<TRIPOS>BOND
     1    47    48    3
     2    13    12    1
     3    12     7    1
     4    48    38    1
     5    34    35    3
     6    25    24    1
     7    42    39    1
     8     8     6    1
     9    24    20    1
    10    35    26    1
    11    30    27    1
    12    38    39   ar
    13    38    40   ar
    14    21    19    1
    15    39    41   ar
    16     7     6   ar
    17     7     4   ar
    18     6     3   ar
    19    26    27   ar
    20    26    28   ar
    21    27    29   ar
    22    20    19   ar
    23    20    17   ar
    24    19    16   ar
    25    28    17    1
    26    28    31   ar
    27    17    15   ar
    28    29    40    1
    29    29    32   ar
    30    40    43   ar
    31    16     4    1
    32    16    14   ar
    33     4     2   ar
    34    41    46    1
    35    41    44   ar
    36     3     9    1
    37     3     1   ar
    38    15    14   ar
    39    15    18    1
    40    31    32   ar
    41    31    33    1
    42    14    23    1
    43    32    36    1
    44    43    44   ar
    45    43    45    1
    46    44    49    1
    47    23    22    3
    48     2     1   ar
    49     2     5    1
    50     1    11    1
    51    36    37    1
    52    11    10    3
    53    49    50    1
