@<TRIPOS>MOLECULE
mol_data/opt/b3lyp/geoms/mol2/4dg4dg-4dg.out
 38 40 0 0 0
SMALL
GASTEIGER

@<TRIPOS>ATOM
      1 C          -0.1406    0.0646   -0.4465 C.ar    1  LIG1        0.0524
      2 C           1.2604    0.0869   -0.4186 C.ar    1  LIG1       -0.0355
      3 C          -0.8556    1.1847    0.0055 C.ar    1  LIG1       -0.0433
      4 C           1.9561    1.2067    0.0447 C.ar    1  LIG1       -0.0022
      5 H           1.8152   -0.7774   -0.7671 H       1  LIG1        0.0637
      6 C          -0.1750    2.2999    0.4723 C.ar    1  LIG1       -0.0468
      7 C           1.2275    2.3276    0.5000 C.ar    1  LIG1        0.0126
      8 H          -0.7412    3.1568    0.8227 H       1  LIG1        0.0629
      9 H          -1.9399    1.1752   -0.0107 H       1  LIG1        0.0631
     10 N          -1.4111   -2.0123   -1.3471 N.1     1  LIG1       -0.1909
     11 C          -0.8371   -1.0860   -0.9399 C.1     1  LIG1        0.0992
     12 S           2.1167    3.7454    1.1213 S.3     1  LIG1       -0.1420
     13 H           1.0260    4.4209    1.5318 H       1  LIG1        0.1071
     14 C           4.1813    0.3173    0.8755 C.ar    1  LIG1        0.0601
     15 C           5.5817    0.3113    0.8177 C.ar    1  LIG1       -0.0350
     16 C           3.4492    1.1891    0.0390 C.ar    1  LIG1        0.0016
     17 C           6.2844    1.1557   -0.0428 C.ar    1  LIG1       -0.0022
     18 H           6.1312   -0.3613    1.4669 H       1  LIG1        0.0637
     19 C           4.1541    2.0267   -0.8264 C.ar    1  LIG1       -0.0390
     20 C           5.5544    2.0267   -0.8804 C.ar    1  LIG1        0.0131
     21 H           3.5905    2.6836   -1.4805 H       1  LIG1        0.0635
     22 N           3.0084   -1.2551    2.5763 N.1     1  LIG1       -0.1908
     23 C           3.5208   -0.5492    1.8066 C.1     1  LIG1        0.0998
     24 S           6.4380    3.0832   -2.0132 S.3     1  LIG1       -0.1420
     25 H           5.3418    3.5953   -2.6054 H       1  LIG1        0.1071
     26 C           8.4825   -0.0198   -0.5001 C.ar    1  LIG1        0.0596
     27 C           9.8874   -0.0282   -0.4649 C.ar    1  LIG1       -0.0427
     28 C           7.7772    1.1188   -0.0488 C.ar    1  LIG1        0.0016
     29 C          10.5912    1.0706    0.0046 C.ar    1  LIG1       -0.0473
     30 H          10.4199   -0.9052   -0.8163 H       1  LIG1        0.0631
     31 C           8.5008    2.2167    0.4249 C.ar    1  LIG1       -0.0396
     32 C           9.9011    2.2063    0.4543 C.ar    1  LIG1        0.0054
     33 H           7.9545    3.0833    0.7827 H       1  LIG1        0.0635
     34 H          11.6762    1.0483    0.0208 H       1  LIG1        0.0629
     35 N           7.2528   -2.1089   -1.4295 N.1     1  LIG1       -0.1909
     36 C           7.7907   -1.1660   -1.0107 C.1     1  LIG1        0.0998
     37 S          10.8619    3.5768    1.0567 S.3     1  LIG1       -0.1426
     38 H           9.8285    4.4068    1.2951 H       1  LIG1        0.1071
@<TRIPOS>BOND
     1    25    24    1
     2    24    20    1
     3    21    19    1
     4    35    36    3
     5    10    11    3
     6    36    26    1
     7    11     1    1
     8    20    19   ar
     9    20    17   ar
    10    19    16   ar
    11    30    27    1
    12     5     2    1
    13    26    27   ar
    14    26    28   ar
    15    27    29   ar
    16     1     2   ar
    17     1     3   ar
    18     2     4   ar
    19    28    17    1
    20    28    31   ar
    21    17    15   ar
    22     9     3    1
    23    29    34    1
    24    29    32   ar
    25     3     6   ar
    26    16     4    1
    27    16    14   ar
    28     4     7   ar
    29    31    32   ar
    30    31    33    1
    31    32    37    1
    32     6     7   ar
    33     6     8    1
    34     7    12    1
    35    15    14   ar
    36    15    18    1
    37    14    23    1
    38    37    38    1
    39    12    13    1
    40    23    22    3
