@<TRIPOS>MOLECULE
mol_data/opt/b3lyp/geoms/mol2/4dg4dg4dg-.out
 38 40 0 0 0
SMALL
GASTEIGER

@<TRIPOS>ATOM
      1 C          -0.1395    0.0691    0.4753 C.ar    1  LIG1        0.0524
      2 C           1.2614    0.0908    0.4425 C.ar    1  LIG1       -0.0355
      3 C          -0.8556    1.1864    0.0180 C.ar    1  LIG1       -0.0433
      4 C           1.9560    1.2071   -0.0308 C.ar    1  LIG1       -0.0022
      5 H           1.8171   -0.7713    0.7951 H       1  LIG1        0.0637
      6 C          -0.1762    2.2981   -0.4588 C.ar    1  LIG1       -0.0468
      7 C           1.2262    2.3250   -0.4914 C.ar    1  LIG1        0.0126
      8 H          -0.7432    3.1529   -0.8132 H       1  LIG1        0.0629
      9 H          -1.9398    1.1774    0.0380 H       1  LIG1        0.0631
     10 N          -1.4077   -2.0009    1.3945 N.1     1  LIG1       -0.1909
     11 C          -0.8347   -1.0777    0.9790 C.1     1  LIG1        0.0992
     12 S           2.1138    3.7384   -1.1255 S.3     1  LIG1       -0.1420
     13 H           1.0219    4.4109   -1.5377 H       1  LIG1        0.1071
     14 C           4.1782    0.3113   -0.8632 C.ar    1  LIG1        0.0601
     15 C           5.5787    0.3055   -0.8103 C.ar    1  LIG1       -0.0350
     16 C           3.4491    1.1891   -0.0303 C.ar    1  LIG1        0.0016
     17 C           6.2846    1.1557    0.0419 C.ar    1  LIG1       -0.0022
     18 H           6.1258   -0.3718   -1.4567 H       1  LIG1        0.0637
     19 C           4.1572    2.0327    0.8267 C.ar    1  LIG1       -0.0390
     20 C           5.5577    2.0327    0.8759 C.ar    1  LIG1        0.0131
     21 H           3.5961    2.6942    1.4783 H       1  LIG1        0.0635
     22 N           2.9993   -1.2727   -2.5489 N.1     1  LIG1       -0.1908
     23 C           3.5143   -0.5615   -1.7858 C.1     1  LIG1        0.0998
     24 S           6.4453    3.0972    1.9981 S.3     1  LIG1       -0.1420
     25 H           5.3512    3.6128    2.5911 H       1  LIG1        0.1071
     26 C           8.4838   -0.0171    0.5002 C.ar    1  LIG1        0.0596
     27 C           9.8885   -0.0262    0.4603 C.ar    1  LIG1       -0.0427
     28 C           7.7774    1.1184    0.0429 C.ar    1  LIG1        0.0016
     29 C          10.5912    1.0688   -0.0198 C.ar    1  LIG1       -0.0473
     30 H          10.4219   -0.9008    0.8165 H       1  LIG1        0.0631
     31 C           8.4997    2.2125   -0.4415 C.ar    1  LIG1       -0.0396
     32 C           9.8999    2.2013   -0.4757 C.ar    1  LIG1        0.0054
     33 H           7.9525    3.0766   -0.8038 H       1  LIG1        0.0635
     34 H          11.6760    1.0458   -0.0397 H       1  LIG1        0.0629
     35 N           7.2564   -2.0985    1.4495 N.1     1  LIG1       -0.1909
     36 C           7.7933   -1.1590    1.0217 C.1     1  LIG1        0.0998
     37 S          10.8591    3.5668   -1.0913 S.3     1  LIG1       -0.1426
     38 H           9.8250    4.3945   -1.3349 H       1  LIG1        0.1071
@<TRIPOS>BOND
     1    22    23    3
     2    23    14    1
     3    13    12    1
     4    18    15    1
     5    38    37    1
     6    12     7    1
     7    37    32    1
     8    14    15   ar
     9    14    16   ar
    10     8     6    1
    11    15    17   ar
    12    33    31    1
    13     7     6   ar
    14     7     4   ar
    15    32    31   ar
    16    32    29   ar
    17     6     3   ar
    18    31    28   ar
    19    34    29    1
    20     4    16    1
    21     4     2   ar
    22    16    19   ar
    23    29    27   ar
    24     3     9    1
    25     3     1   ar
    26    17    28    1
    27    17    20   ar
    28    28    26   ar
    29     2     1   ar
    30     2     5    1
    31    27    26   ar
    32    27    30    1
    33     1    11    1
    34    26    36    1
    35    19    20   ar
    36    19    21    1
    37    20    24    1
    38    11    10    3
    39    36    35    3
    40    24    25    1
