@<TRIPOS>MOLECULE
mol_data/opt/b3lyp/geoms/mol2/4dh.out
 15 15 0 0 0
SMALL
GASTEIGER

@<TRIPOS>ATOM
      1 C           0.0680    0.0165    0.0098 C.ar    1  LIG1        0.0519
      2 C           1.4743    0.0101   -0.0089 C.ar    1  LIG1       -0.0426
      3 C          -0.6052    1.2513   -0.0090 C.ar    1  LIG1       -0.0426
      4 C           2.1848    1.1995   -0.0476 C.ar    1  LIG1       -0.0398
      5 H           2.0043   -0.9365    0.0043 H       1  LIG1        0.0631
      6 C           0.1043    2.4412   -0.0477 C.ar    1  LIG1       -0.0398
      7 C           1.5134    2.4382   -0.0679 C.ar    1  LIG1        0.0246
      8 H          -0.4290    3.3878   -0.0588 H       1  LIG1        0.0636
      9 H           3.2711    1.1795   -0.0587 H       1  LIG1        0.0636
     10 H          -1.6899    1.2683    0.0041 H       1  LIG1        0.0631
     11 N          -1.2605   -2.2114    0.0733 N.1     1  LIG1       -0.1909
     12 C          -0.6646   -1.2113    0.0451 C.1     1  LIG1        0.0992
     13 N           2.2219    3.6256   -0.0562 N.pl3   1  LIG1       -0.3580
     14 H           3.1825    3.5876   -0.3635 H       1  LIG1        0.1423
     15 H           1.7324    4.4529   -0.3636 H       1  LIG1        0.1423
@<TRIPOS>BOND
     1    15    13    1
     2    14    13    1
     3     7    13    1
     4     7     6   ar
     5     7     4   ar
     6     8     6    1
     7     9     4    1
     8     6     3   ar
     9     4     2   ar
    10     3    10    1
    11     3     1   ar
    12     2     5    1
    13     2     1   ar
    14     1    12    1
    15    12    11    3
