@<TRIPOS>MOLECULE
mol_data/opt/b3lyp/geoms/mol2/4dh4dh-.out
 28 29 0 0 0
SMALL
GASTEIGER

@<TRIPOS>ATOM
      1 C          -0.0330    0.2137    0.6058 C.ar    1  LIG1        0.0525
      2 C           1.3696    0.2391    0.6094 C.ar    1  LIG1       -0.0348
      3 C          -0.7272    1.2457   -0.0505 C.ar    1  LIG1       -0.0426
      4 C           2.0880    1.2586   -0.0156 C.ar    1  LIG1        0.0053
      5 H           1.9134   -0.5436    1.1278 H       1  LIG1        0.0637
      6 C          -0.0299    2.2562   -0.6872 C.ar    1  LIG1       -0.0392
      7 C           1.3799    2.2860   -0.6949 C.ar    1  LIG1        0.0325
      8 H          -0.5730    3.0416   -1.2053 H       1  LIG1        0.0636
      9 H          -1.8117    1.2449   -0.0572 H       1  LIG1        0.0631
     10 N          -1.3150   -1.7086    1.7856 N.1     1  LIG1       -0.1909
     11 C          -0.7396   -0.8439    1.2590 C.1     1  LIG1        0.0992
     12 N           2.0336    3.2607   -1.4216 N.pl3   1  LIG1       -0.3575
     13 H           3.0045    3.4252   -1.2026 H       1  LIG1        0.1423
     14 H           1.5160    4.1114   -1.5887 H       1  LIG1        0.1423
     15 C           4.3563    2.2080    0.6653 C.ar    1  LIG1        0.0596
     16 C           5.7587    2.0853    0.6880 C.ar    1  LIG1       -0.0420
     17 C           3.5797    1.2101    0.0205 C.ar    1  LIG1        0.0030
     18 C           6.3937    1.0070    0.0981 C.ar    1  LIG1       -0.0398
     19 H           6.3447    2.8497    1.1875 H       1  LIG1        0.0631
     20 C           4.2357    0.1300   -0.5668 C.ar    1  LIG1       -0.0320
     21 C           5.6380    0.0025   -0.5389 C.ar    1  LIG1        0.0252
     22 H           3.6424   -0.6309   -1.0659 H       1  LIG1        0.0642
     23 H           7.4764    0.9289    0.1319 H       1  LIG1        0.0636
     24 N           3.2794    4.2551    1.8418 N.1     1  LIG1       -0.1909
     25 C           3.7491    3.3250    1.3211 C.1     1  LIG1        0.0998
     26 N           6.2519   -1.1020   -1.0877 N.pl3   1  LIG1       -0.3579
     27 H           5.7236   -1.6553   -1.7450 H       1  LIG1        0.1423
     28 H           7.2375   -1.0397   -1.2918 H       1  LIG1        0.1423
@<TRIPOS>BOND
     1    27    26    1
     2    14    12    1
     3    12    13    1
     4    12     7    1
     5    28    26    1
     6     8     6    1
     7    26    21    1
     8    22    20    1
     9     7     6   ar
    10     7     4   ar
    11     6     3   ar
    12    20    21   ar
    13    20    17   ar
    14    21    18   ar
    15     9     3    1
    16     3     1   ar
    17     4    17    1
    18     4     2   ar
    19    17    15   ar
    20    18    23    1
    21    18    16   ar
    22     1     2   ar
    23     1    11    1
    24     2     5    1
    25    15    16   ar
    26    15    25    1
    27    16    19    1
    28    11    10    3
    29    25    24    3
