@<TRIPOS>MOLECULE
mol_data/opt/b3lyp/geoms/mol2/4dh4dh4dh-4dh.out
 54 57 0 0 0
SMALL
GASTEIGER

@<TRIPOS>ATOM
      1 C          -0.1643    2.6685    0.2802 C.ar    1  LIG1        0.0525
      2 C           1.2311    2.5248    0.2853 C.ar    1  LIG1       -0.0348
      3 C          -0.9593    1.5456   -0.0109 C.ar    1  LIG1       -0.0426
      4 C           1.8451    1.3023    0.0119 C.ar    1  LIG1        0.0053
      5 H           1.8519    3.3809    0.5277 H       1  LIG1        0.0637
      6 C          -0.3660    0.3293   -0.2958 C.ar    1  LIG1       -0.0392
      7 C           1.0358    0.1771   -0.3010 C.ar    1  LIG1        0.0325
      8 H          -0.9868   -0.5298   -0.5341 H       1  LIG1        0.0636
      9 H          -2.0401    1.6377   -0.0125 H       1  LIG1        0.0631
     10 N          -1.2528    4.9679    0.7881 N.1     1  LIG1       -0.1909
     11 C          -0.7636    3.9351    0.5647 C.1     1  LIG1        0.0992
     12 N           1.5853   -1.0304   -0.6840 N.pl3   1  LIG1       -0.3575
     13 H           2.5430   -1.2040   -0.4181 H       1  LIG1        0.1423
     14 H           0.9934   -1.8404   -0.5686 H       1  LIG1        0.1423
     15 C           4.0605    0.4260    0.9319 C.ar    1  LIG1        0.0602
     16 C           5.4643    0.4360    0.9015 C.ar    1  LIG1       -0.0342
     17 C           3.3359    1.2329    0.0172 C.ar    1  LIG1        0.0030
     18 C           6.1821    1.2116   -0.0050 C.ar    1  LIG1        0.0053
     19 H           6.0038   -0.1807    1.6119 H       1  LIG1        0.0637
     20 C           4.0556    2.0183   -0.8781 C.ar    1  LIG1       -0.0314
     21 C           5.4631    2.0335   -0.9144 C.ar    1  LIG1        0.0330
     22 H           3.5078    2.6362   -1.5839 H       1  LIG1        0.0643
     23 N           2.8711   -1.0827    2.6768 N.1     1  LIG1       -0.1908
     24 C           3.3966   -0.3888    1.9029 C.1     1  LIG1        0.0998
     25 N           6.1106    2.8100   -1.8515 N.pl3   1  LIG1       -0.3575
     26 H           7.0833    3.0255   -1.6869 H       1  LIG1        0.1423
     27 H           5.5806    3.5657   -2.2598 H       1  LIG1        0.1423
     28 C           8.4382    1.5143    1.1256 C.ar    1  LIG1        0.0602
     29 C           9.8395    1.4615    1.0536 C.ar    1  LIG1       -0.0342
     30 C           7.6723    1.1707   -0.0157 C.ar    1  LIG1        0.0030
     31 C          10.5130    1.0870   -0.1055 C.ar    1  LIG1        0.0053
     32 H          10.4179    1.7546    1.9235 H       1  LIG1        0.0637
     33 C           8.3469    0.7764   -1.1699 C.ar    1  LIG1       -0.0314
     34 C           9.7514    0.7112   -1.2443 C.ar    1  LIG1        0.0330
     35 H           7.7666    0.4858   -2.0407 H       1  LIG1        0.0643
     36 N           7.3733    2.3163    3.3515 N.1     1  LIG1       -0.1908
     37 C           7.8302    1.9540    2.3437 C.1     1  LIG1        0.0998
     38 N          10.3486    0.2184   -2.3826 N.pl3   1  LIG1       -0.3575
     39 H           9.8091    0.2584   -3.2345 H       1  LIG1        0.1423
     40 H          11.3316    0.4024   -2.5130 H       1  LIG1        0.1423
     41 C          12.7465    1.9619   -0.9461 C.ar    1  LIG1        0.0596
     42 C          14.1529    1.9433   -0.8907 C.ar    1  LIG1       -0.0420
     43 C          12.0049    1.0832   -0.1133 C.ar    1  LIG1        0.0030
     44 C          14.8235    1.0878   -0.0348 C.ar    1  LIG1       -0.0398
     45 H          14.7137    2.6235   -1.5233 H       1  LIG1        0.0631
     46 C          12.6948    0.2298    0.7442 C.ar    1  LIG1       -0.0320
     47 C          14.1026    0.2152    0.8053 C.ar    1  LIG1        0.0252
     48 H          12.1275   -0.4502    1.3731 H       1  LIG1        0.0642
     49 H          15.9093    1.0879   -0.0082 H       1  LIG1        0.0636
     50 N          11.5629    3.6412   -2.5317 N.1     1  LIG1       -0.1909
     51 C          12.0902    2.8927   -1.8115 C.1     1  LIG1        0.0998
     52 N          14.7579   -0.6708    1.6304 N.pl3   1  LIG1       -0.3579
     53 H          15.7253   -0.4851    1.8468 H       1  LIG1        0.1423
     54 H          14.2342   -1.0876    2.3850 H       1  LIG1        0.1423
@<TRIPOS>BOND
     1    39    38    1
     2    50    51    3
     3    40    38    1
     4    38    34    1
     5    27    25    1
     6    35    33    1
     7    25    26    1
     8    25    21    1
     9    51    41    1
    10    22    20    1
    11    45    42    1
    12    34    33   ar
    13    34    31   ar
    14    33    30   ar
    15    41    42   ar
    16    41    43   ar
    17    21    20   ar
    18    21    18   ar
    19    42    44   ar
    20    20    17   ar
    21    12    14    1
    22    12    13    1
    23    12     7    1
    24     8     6    1
    25     7     6   ar
    26     7     4   ar
    27     6     3   ar
    28    43    31    1
    29    43    46   ar
    30    31    29   ar
    31    44    49    1
    32    44    47   ar
    33    30    18    1
    34    30    28   ar
    35     9     3    1
    36     3     1   ar
    37    18    16   ar
    38     4    17    1
    39     4     2   ar
    40    17    15   ar
    41     1     2   ar
    42     1    11    1
    43     2     5    1
    44    11    10    3
    45    46    47   ar
    46    46    48    1
    47    47    52    1
    48    16    15   ar
    49    16    19    1
    50    15    24    1
    51    29    28   ar
    52    29    32    1
    53    28    37    1
    54    52    53    1
    55    52    54    1
    56    24    23    3
    57    37    36    3
