@<TRIPOS>MOLECULE
mol_data/opt/b3lyp/geoms/mol2/4dh4dh4dh-4dh-.out
 54 57 0 0 0
SMALL
GASTEIGER

@<TRIPOS>ATOM
      1 C          -0.2434    0.6705    1.1161 C.ar    1  LIG1        0.0525
      2 C           1.1569    0.6482    1.0428 C.ar    1  LIG1       -0.0348
      3 C          -0.9693    1.2786    0.0771 C.ar    1  LIG1       -0.0426
      4 C           1.8432    1.2219   -0.0285 C.ar    1  LIG1        0.0053
      5 H           1.7208    0.1822    1.8432 H       1  LIG1        0.0637
      6 C          -0.3049    1.8437   -0.9969 C.ar    1  LIG1       -0.0392
      7 C           1.1016    1.8314   -1.0757 C.ar    1  LIG1        0.0325
      8 H          -0.8728    2.3086   -1.7982 H       1  LIG1        0.0636
      9 H          -2.0530    1.3001    0.1197 H       1  LIG1        0.0631
     10 N          -1.4864   -0.3690    3.1425 N.1     1  LIG1       -0.1909
     11 C          -0.9235    0.0923    2.2339 C.1     1  LIG1        0.0992
     12 N           1.7299    2.4403   -2.1483 N.pl3   1  LIG1       -0.3575
     13 H           2.6832    2.1628   -2.3331 H       1  LIG1        0.1423
     14 H           1.1711    2.5577   -2.9809 H       1  LIG1        0.1423
     15 C           4.0596   -0.0212    0.0071 C.ar    1  LIG1        0.0602
     16 C           5.4627    0.0155    0.0329 C.ar    1  LIG1       -0.0342
     17 C           3.3343    1.1954   -0.0508 C.ar    1  LIG1        0.0030
     18 C           6.1796    1.2086   -0.0052 C.ar    1  LIG1        0.0053
     19 H           6.0078   -0.9204    0.0977 H       1  LIG1        0.0637
     20 C           4.0528    2.3876   -0.1123 C.ar    1  LIG1       -0.0314
     21 C           5.4611    2.4309   -0.1033 C.ar    1  LIG1        0.0330
     22 H           3.5059    3.3245   -0.1658 H       1  LIG1        0.0643
     23 N           2.9215   -2.3528   -0.0063 N.1     1  LIG1       -0.1908
     24 C           3.4091   -1.2955    0.0084 C.1     1  LIG1        0.0998
     25 N           6.1010    3.6394   -0.2596 N.pl3   1  LIG1       -0.3575
     26 H           7.0773    3.6936   -0.0115 H       1  LIG1        0.1423
     27 H           5.5759    4.4660   -0.0152 H       1  LIG1        0.1423
     28 C           8.4280    1.7491    1.0652 C.ar    1  LIG1        0.0602
     29 C           9.8290    1.6698    1.0307 C.ar    1  LIG1       -0.0342
     30 C           7.6697    1.1628    0.0197 C.ar    1  LIG1        0.0030
     31 C          10.5095    1.0130    0.0092 C.ar    1  LIG1        0.0053
     32 H          10.3968    2.1248    1.8350 H       1  LIG1        0.0637
     33 C           8.3520    0.5034   -0.9987 C.ar    1  LIG1       -0.0314
     34 C           9.7560    0.4061   -1.0293 C.ar    1  LIG1        0.0330
     35 H           7.7783    0.0614   -1.8083 H       1  LIG1        0.0643
     36 N           7.3010    2.9284    3.0839 N.1     1  LIG1       -0.1908
     37 C           7.7983    2.3917    2.1781 C.1     1  LIG1        0.0998
     38 N          10.3713   -0.2904   -2.0497 N.pl3   1  LIG1       -0.3575
     39 H           9.8316   -0.4320   -2.8907 H       1  LIG1        0.1423
     40 H          11.3490   -0.0969   -2.2109 H       1  LIG1        0.1423
     41 C          12.7717    2.1523   -0.0443 C.ar    1  LIG1        0.0596
     42 C          14.1754    2.0664    0.0026 C.ar    1  LIG1       -0.0420
     43 C          12.0007    0.9648    0.0196 C.ar    1  LIG1        0.0030
     44 C          14.8151    0.8434    0.1027 C.ar    1  LIG1       -0.0398
     45 H          14.7602    2.9788   -0.0480 H       1  LIG1        0.0631
     46 C          12.6592   -0.2621    0.1103 C.ar    1  LIG1       -0.0320
     47 C          14.0646   -0.3484    0.1594 C.ar    1  LIG1        0.0252
     48 H          12.0689   -1.1719    0.1716 H       1  LIG1        0.0642
     49 H          15.8996    0.8001    0.1432 H       1  LIG1        0.0636
     50 N          11.6748    4.4887   -0.3134 N.1     1  LIG1       -0.1909
     51 C          12.1540    3.4349   -0.1871 C.1     1  LIG1        0.0998
     52 N          14.6865   -1.5668    0.3132 N.pl3   1  LIG1       -0.3579
     53 H          14.1568   -2.4016    0.1154 H       1  LIG1        0.1423
     54 H          15.6705   -1.6294    0.1032 H       1  LIG1        0.1423
@<TRIPOS>BOND
     1    14    12    1
     2    39    38    1
     3    13    12    1
     4    40    38    1
     5    12     7    1
     6    38    34    1
     7    35    33    1
     8     8     6    1
     9     7     6   ar
    10     7     4   ar
    11    34    33   ar
    12    34    31   ar
    13    33    30   ar
    14     6     3   ar
    15    50    51    3
    16    25    21    1
    17    25    27    1
    18    25    26    1
    19    51    41    1
    20    22    20    1
    21    20    21   ar
    22    20    17   ar
    23    21    18   ar
    24    17     4    1
    25    17    15   ar
    26    45    42    1
    27    41    42   ar
    28    41    43   ar
    29     4     2   ar
    30    23    24    3
    31    18    30    1
    32    18    16   ar
    33    42    44   ar
    34    15    24    1
    35    15    16   ar
    36    31    43    1
    37    31    29   ar
    38    43    46   ar
    39    30    28   ar
    40    16    19    1
    41     3     9    1
    42     3     1   ar
    43    44    49    1
    44    44    47   ar
    45    54    52    1
    46    46    47   ar
    47    46    48    1
    48    53    52    1
    49    47    52    1
    50    29    28   ar
    51    29    32    1
    52     2     1   ar
    53     2     5    1
    54    28    37    1
    55     1    11    1
    56    37    36    3
    57    11    10    3
