@<TRIPOS>MOLECULE
mol_data/opt/b3lyp/geoms/mol2/4dh4dh-4dh4dh.out
 54 57 0 0 0
SMALL
GASTEIGER

@<TRIPOS>ATOM
      1 C          -0.2735    2.1944    0.6734 C.ar    1  LIG1        0.0525
      2 C           1.1302    2.1805    0.6620 C.ar    1  LIG1       -0.0348
      3 C          -0.9668    1.2604   -0.1171 C.ar    1  LIG1       -0.0426
      4 C           1.8429    1.2603   -0.1023 C.ar    1  LIG1        0.0053
      5 H           1.6735    2.8954    1.2708 H       1  LIG1        0.0637
      6 C          -0.2733    0.3472   -0.8909 C.ar    1  LIG1       -0.0392
      7 C           1.1371    0.3243   -0.9056 C.ar    1  LIG1        0.0325
      8 H          -0.8184   -0.3617   -1.5079 H       1  LIG1        0.0636
      9 H          -2.0516    1.2597   -0.1185 H       1  LIG1        0.0631
     10 N          -1.5657    3.8876    2.1540 N.1     1  LIG1       -0.1909
     11 C          -0.9837    3.1320    1.4859 C.1     1  LIG1        0.0992
     12 N           1.8038   -0.5573   -1.7204 N.pl3   1  LIG1       -0.3575
     13 H           2.7951   -0.6898   -1.5982 H       1  LIG1        0.1423
     14 H           1.2954   -1.3280   -2.1216 H       1  LIG1        0.1423
     15 C           4.1038    2.2655   -0.6826 C.ar    1  LIG1        0.0602
     16 C           5.5050    2.1924   -0.6342 C.ar    1  LIG1       -0.0342
     17 C           3.3358    1.2497   -0.0668 C.ar    1  LIG1        0.0030
     18 C           6.1737    1.1472   -0.0006 C.ar    1  LIG1        0.0053
     19 H           6.0871    2.9604   -1.1326 H       1  LIG1        0.0637
     20 C           4.0042    0.2152    0.5846 C.ar    1  LIG1       -0.0314
     21 C           5.4092    0.1430    0.6509 C.ar    1  LIG1        0.0330
     22 H           3.4182   -0.5467    1.0921 H       1  LIG1        0.0643
     23 N           3.0197    4.2548   -1.9479 N.1     1  LIG1       -0.1908
     24 C           3.4871    3.3544   -1.3771 C.1     1  LIG1        0.0998
     25 N           6.0034   -0.8455    1.4057 N.pl3   1  LIG1       -0.3575
     26 H           5.4542   -1.6745    1.5779 H       1  LIG1        0.1423
     27 H           6.9792   -1.0361    1.2364 H       1  LIG1        0.1423
     28 C           8.3999    0.0903   -0.6414 C.ar    1  LIG1        0.0602
     29 C           9.8029    0.1516   -0.6574 C.ar    1  LIG1       -0.0342
     30 C           7.6650    1.1287   -0.0116 C.ar    1  LIG1        0.0030
     31 C          10.5086    1.2052   -0.0830 C.ar    1  LIG1        0.0053
     32 H          10.3554   -0.6339   -1.1626 H       1  LIG1        0.0637
     33 C           8.3712    2.1737    0.5732 C.ar    1  LIG1       -0.0314
     34 C           9.7791    2.2419    0.5600 C.ar    1  LIG1        0.0330
     35 H           7.8160    2.9593    1.0773 H       1  LIG1        0.0643
     36 N           7.2149   -1.9003   -1.8108 N.1     1  LIG1       -0.1908
     37 C           7.7427   -0.9978   -1.2971 C.1     1  LIG1        0.0998
     38 N          10.4113    3.2610    1.2330 N.pl3   1  LIG1       -0.3575
     39 H          11.3770    3.4438    1.0066 H       1  LIG1        0.1423
     40 H           9.8701    4.0952    1.4059 H       1  LIG1        0.1423
     41 C          12.7359    2.1858   -0.8374 C.ar    1  LIG1        0.0596
     42 C          14.1407    2.1027   -0.8782 C.ar    1  LIG1       -0.0420
     43 C          12.0002    1.1940   -0.1380 C.ar    1  LIG1        0.0030
     44 C          14.8158    1.0695   -0.2533 C.ar    1  LIG1       -0.0398
     45 H          14.6963    2.8613   -1.4193 H       1  LIG1        0.0631
     46 C          12.6954    0.1592    0.4846 C.ar    1  LIG1       -0.0320
     47 C          14.1007    0.0716    0.4390 C.ar    1  LIG1        0.0252
     48 H          12.1330   -0.5963    1.0256 H       1  LIG1        0.0642
     49 H          15.8997    1.0216   -0.3018 H       1  LIG1        0.0636
     50 N          11.5680    4.1424   -2.0789 N.1     1  LIG1       -0.1909
     51 C          12.0823    3.2536   -1.5292 C.1     1  LIG1        0.0998
     52 N          14.7561   -0.9885    1.0238 N.pl3   1  LIG1       -0.3579
     53 H          15.7444   -0.8931    1.2005 H       1  LIG1        0.1423
     54 H          14.2582   -1.5303    1.7135 H       1  LIG1        0.1423
@<TRIPOS>BOND
     1    14    12    1
     2    50    51    3
     3    23    24    3
     4    36    37    3
     5    12    13    1
     6    12     7    1
     7    51    41    1
     8     8     6    1
     9    45    42    1
    10    24    15    1
    11    37    28    1
    12    32    29    1
    13    19    16    1
    14     7     6   ar
    15     7     4   ar
    16     6     3   ar
    17    42    41   ar
    18    42    44   ar
    19    41    43   ar
    20    15    16   ar
    21    15    17   ar
    22    29    28   ar
    23    29    31   ar
    24    28    30   ar
    25    16    18   ar
    26    49    44    1
    27    44    47   ar
    28    43    31    1
    29    43    46   ar
    30     9     3    1
    31     3     1   ar
    32     4    17    1
    33     4     2   ar
    34    31    34   ar
    35    17    20   ar
    36    30    18    1
    37    30    33   ar
    38    18    21   ar
    39    47    46   ar
    40    47    52    1
    41    46    48    1
    42    34    33   ar
    43    34    38    1
    44    33    35    1
    45    20    21   ar
    46    20    22    1
    47    21    25    1
    48     2     1   ar
    49     2     5    1
    50     1    11    1
    51    39    38    1
    52    52    53    1
    53    52    54    1
    54    38    40    1
    55    27    25    1
    56    25    26    1
    57    11    10    3
