@<TRIPOS>MOLECULE
mol_data/opt/b3lyp/geoms/mol2/4dh4dh-4dh4dh-.out
 54 57 0 0 0
SMALL
GASTEIGER

@<TRIPOS>ATOM
      1 C          -0.2439    0.2099    0.6710 C.ar    1  LIG1        0.0525
      2 C           1.1573    0.2394    0.6134 C.ar    1  LIG1       -0.0348
      3 C          -0.9677    1.2682    0.0932 C.ar    1  LIG1       -0.0426
      4 C           1.8457    1.2883    0.0026 C.ar    1  LIG1        0.0053
      5 H           1.7250   -0.5630    1.0728 H       1  LIG1        0.0637
      6 C          -0.3011    2.3083   -0.5281 C.ar    1  LIG1       -0.0392
      7 C           1.1068    2.3427   -0.5984 C.ar    1  LIG1        0.0325
      8 H          -0.8680    3.1141   -0.9860 H       1  LIG1        0.0636
      9 H          -2.0517    1.2642    0.1351 H       1  LIG1        0.0631
     10 N          -1.4764   -1.7646    1.8168 N.1     1  LIG1       -0.1909
     11 C          -0.9214   -0.8772    1.3064 C.1     1  LIG1        0.0992
     12 N           1.7247    3.3504   -1.3121 N.pl3   1  LIG1       -0.3575
     13 H           2.7022    3.5138   -1.1238 H       1  LIG1        0.1423
     14 H           1.1967    4.2049   -1.4160 H       1  LIG1        0.1423
     15 C           4.1472    2.2185    0.6040 C.ar    1  LIG1        0.0602
     16 C           5.5448    2.0855    0.5667 C.ar    1  LIG1       -0.0342
     17 C           3.3370    1.2411   -0.0302 C.ar    1  LIG1        0.0030
     18 C           6.1750    1.0163   -0.0649 C.ar    1  LIG1        0.0053
     19 H           6.1542    2.8253    1.0754 H       1  LIG1        0.0637
     20 C           3.9697    0.1809   -0.6712 C.ar    1  LIG1       -0.0314
     21 C           5.3707    0.0399   -0.7115 C.ar    1  LIG1        0.0330
     22 H           3.3574   -0.5580   -1.1798 H       1  LIG1        0.0643
     23 N           3.1348    4.2439    1.8718 N.1     1  LIG1       -0.1908
     24 C           3.5786    3.3226    1.3141 C.1     1  LIG1        0.0998
     25 N           5.9244   -0.9889   -1.4408 N.pl3   1  LIG1       -0.3575
     26 H           5.3328   -1.7899   -1.6071 H       1  LIG1        0.1423
     27 H           6.8836   -1.2324   -1.2464 H       1  LIG1        0.1423
     28 C           8.3824   -0.0955    0.5667 C.ar    1  LIG1        0.0602
     29 C           9.7865   -0.0667    0.5678 C.ar    1  LIG1       -0.0342
     30 C           7.6657    0.9535   -0.0652 C.ar    1  LIG1        0.0030
     31 C          10.5119    0.9629   -0.0256 C.ar    1  LIG1        0.0053
     32 H          10.3245   -0.8593    1.0773 H       1  LIG1        0.0637
     33 C           8.3919    1.9738   -0.6703 C.ar    1  LIG1       -0.0314
     34 C           9.8007    2.0072   -0.6761 C.ar    1  LIG1        0.0330
     35 H           7.8508    2.7665   -1.1786 H       1  LIG1        0.0643
     36 N           7.1869   -2.0644    1.7615 N.1     1  LIG1       -0.1908
     37 C           7.7136   -1.1678    1.2367 C.1     1  LIG1        0.0998
     38 N          10.4495    2.9994   -1.3748 N.pl3   1  LIG1       -0.3575
     39 H          11.4222    3.1604   -1.1619 H       1  LIG1        0.1423
     40 H           9.9285    3.8470   -1.5455 H       1  LIG1        0.1423
     41 C          12.7702    1.9062    0.6851 C.ar    1  LIG1        0.0596
     42 C          14.1727    1.7870    0.7180 C.ar    1  LIG1       -0.0420
     43 C          12.0031    0.9159    0.0177 C.ar    1  LIG1        0.0030
     44 C          14.8157    0.7201    0.1164 C.ar    1  LIG1       -0.0398
     45 H          14.7521    2.5447    1.2349 H       1  LIG1        0.0631
     46 C          12.6663   -0.1529   -0.5818 C.ar    1  LIG1       -0.0320
     47 C          14.0691   -0.2767   -0.5437 C.ar    1  LIG1        0.0252
     48 H          12.0801   -0.9077   -1.0981 H       1  LIG1        0.0642
     49 H          15.8983    0.6448    0.1586 H       1  LIG1        0.0636
     50 N          11.6656    3.9276    1.8799 N.1     1  LIG1       -0.1909
     51 C          12.1513    3.0096    1.3525 C.1     1  LIG1        0.0998
     52 N          14.6916   -1.3685   -1.1048 N.pl3   1  LIG1       -0.3579
     53 H          14.1735   -1.9188   -1.7722 H       1  LIG1        0.1423
     54 H          15.6810   -1.3062   -1.2894 H       1  LIG1        0.1423
@<TRIPOS>BOND
     1    53    52    1
     2    26    25    1
     3    40    38    1
     4    25    27    1
     5    25    21    1
     6    14    12    1
     7    38    39    1
     8    38    34    1
     9    12    13    1
    10    12     7    1
    11    54    52    1
    12    22    20    1
    13    35    33    1
    14    52    47    1
    15    48    46    1
    16     8     6    1
    17    21    20   ar
    18    21    18   ar
    19    34    33   ar
    20    34    31   ar
    21    20    17   ar
    22    33    30   ar
    23     7     6   ar
    24     7     4   ar
    25    46    47   ar
    26    46    43   ar
    27    47    44   ar
    28     6     3   ar
    29    30    18    1
    30    30    28   ar
    31    18    16   ar
    32    17     4    1
    33    17    15   ar
    34    31    43    1
    35    31    29   ar
    36     4     2   ar
    37    43    41   ar
    38     3     9    1
    39     3     1   ar
    40    44    49    1
    41    44    42   ar
    42    28    29   ar
    43    28    37    1
    44    16    15   ar
    45    16    19    1
    46    29    32    1
    47    15    24    1
    48     2     1   ar
    49     2     5    1
    50     1    11    1
    51    41    42   ar
    52    41    51    1
    53    42    45    1
    54    37    36    3
    55    11    10    3
    56    24    23    3
    57    51    50    3
