@<TRIPOS>MOLECULE
mol_data/opt/b3lyp/geoms/mol2/4dh4dh4dh4dh.out
 54 57 0 0 0
SMALL
GASTEIGER

@<TRIPOS>ATOM
      1 C          -0.2282    1.8431    1.2281 C.ar    1  LIG1        0.0525
      2 C           1.1729    1.8168    1.1677 C.ar    1  LIG1       -0.0348
      3 C          -0.9643    1.2873    0.1669 C.ar    1  LIG1       -0.0426
      4 C           1.8483    1.2656    0.0790 C.ar    1  LIG1        0.0053
      5 H           1.7452    2.2433    1.9840 H       1  LIG1        0.0637
      6 C          -0.3098    0.7263   -0.9153 C.ar    1  LIG1       -0.0392
      7 C           1.0975    0.7021   -0.9880 C.ar    1  LIG1        0.0325
      8 H          -0.8860    0.2946   -1.7290 H       1  LIG1        0.0636
      9 H          -2.0484    1.2974    0.2018 H       1  LIG1        0.0631
     10 N          -1.4462    2.9257    3.2469 N.1     1  LIG1       -0.1909
     11 C          -0.8962    2.4359    2.3450 C.1     1  LIG1        0.0992
     12 N           1.7156    0.1667   -2.1021 N.pl3   1  LIG1       -0.3575
     13 H           2.6843   -0.1032   -2.0067 H       1  LIG1        0.1423
     14 H           1.1654   -0.4742   -2.6548 H       1  LIG1        0.1423
     15 C           4.1165    0.6525    1.0485 C.ar    1  LIG1        0.0602
     16 C           5.5173    0.7011    0.9640 C.ar    1  LIG1       -0.0342
     17 C           3.3391    1.2806    0.0436 C.ar    1  LIG1        0.0030
     18 C           6.1781    1.3404   -0.0806 C.ar    1  LIG1        0.0053
     19 H           6.1042    0.1946    1.7232 H       1  LIG1        0.0637
     20 C           4.0023    1.9374   -0.9912 C.ar    1  LIG1       -0.0314
     21 C           5.4069    1.9977   -1.0770 C.ar    1  LIG1        0.0330
     22 H           3.4130    2.4440   -1.7499 H       1  LIG1        0.0643
     23 N           3.0783   -0.6694    3.0250 N.1     1  LIG1       -0.1908
     24 C           3.5210   -0.0694    2.1305 C.1     1  LIG1        0.0998
     25 N           5.9957    2.7458   -2.0686 N.pl3   1  LIG1       -0.3575
     26 H           6.9765    2.6054   -2.2568 H       1  LIG1        0.1423
     27 H           5.4416    2.9475   -2.8870 H       1  LIG1        0.1423
     28 C           8.3798    0.6759   -1.1608 C.ar    1  LIG1        0.0602
     29 C           9.7828    0.6932   -1.1539 C.ar    1  LIG1       -0.0342
     30 C           7.6682    1.3295   -0.1223 C.ar    1  LIG1        0.0030
     31 C          10.5104    1.3199   -0.1452 C.ar    1  LIG1        0.0053
     32 H          10.3155    0.1904   -1.9537 H       1  LIG1        0.0637
     33 C           8.3955    1.9525    0.8863 C.ar    1  LIG1       -0.0314
     34 C           9.8035    1.9612    0.9061 C.ar    1  LIG1        0.0330
     35 H           7.8557    2.4648    1.6776 H       1  LIG1        0.0643
     36 N           7.1345   -0.6067   -3.0427 N.1     1  LIG1       -0.1908
     37 C           7.6918   -0.0340   -2.1957 C.1     1  LIG1        0.0998
     38 N          10.4670    2.5711    1.9509 N.pl3   1  LIG1       -0.3575
     39 H          11.4322    2.8237    1.7960 H       1  LIG1        0.1423
     40 H           9.9420    3.2450    2.4885 H       1  LIG1        0.1423
     41 C          12.7061    1.8884   -1.2755 C.ar    1  LIG1        0.0596
     42 C          14.1118    1.8274   -1.2958 C.ar    1  LIG1       -0.0420
     43 C          12.0015    1.3113   -0.1893 C.ar    1  LIG1        0.0030
     44 C          14.8176    1.2210   -0.2715 C.ar    1  LIG1       -0.0398
     45 H          14.6454    2.2723   -2.1290 H       1  LIG1        0.0631
     46 C          12.7268    0.7118    0.8412 C.ar    1  LIG1       -0.0320
     47 C          14.1340    0.6493    0.8206 C.ar    1  LIG1        0.0252
     48 H          12.1874    0.2585    1.6679 H       1  LIG1        0.0642
     49 H          15.9023    1.1803   -0.3099 H       1  LIG1        0.0636
     50 N          11.4856    3.1187   -3.2070 N.1     1  LIG1       -0.1909
     51 C          12.0209    2.5596   -2.3369 C.1     1  LIG1        0.0998
     52 N          14.8208   -0.0039    1.8192 N.pl3   1  LIG1       -0.3579
     53 H          15.8084    0.1764    1.9126 H       1  LIG1        0.1423
     54 H          14.3407   -0.1846    2.6873 H       1  LIG1        0.1423
@<TRIPOS>BOND
     1    50    51    3
     2    36    37    3
     3    27    25    1
     4    14    12    1
     5    51    41    1
     6    26    25    1
     7    37    28    1
     8    45    42    1
     9    12    13    1
    10    12     7    1
    11    25    21    1
    12    32    29    1
    13    22    20    1
    14     8     6    1
    15    42    41   ar
    16    42    44   ar
    17    41    43   ar
    18    28    29   ar
    19    28    30   ar
    20    29    31   ar
    21    21    20   ar
    22    21    18   ar
    23    20    17   ar
    24     7     6   ar
    25     7     4   ar
    26     6     3   ar
    27    49    44    1
    28    44    47   ar
    29    43    31    1
    30    43    46   ar
    31    31    34   ar
    32    30    18    1
    33    30    33   ar
    34    18    16   ar
    35    17     4    1
    36    17    15   ar
    37     4     2   ar
    38     3     9    1
    39     3     1   ar
    40    47    46   ar
    41    47    52    1
    42    46    48    1
    43    33    34   ar
    44    33    35    1
    45    34    38    1
    46    16    15   ar
    47    16    19    1
    48    15    24    1
    49     2     1   ar
    50     2     5    1
    51     1    11    1
    52    39    38    1
    53    52    53    1
    54    52    54    1
    55    38    40    1
    56    24    23    3
    57    11    10    3
