@<TRIPOS>MOLECULE
mol_data/opt/b3lyp/geoms/mol2/4dh4dh-4dh-4dh.out
 54 57 0 0 0
SMALL
GASTEIGER

@<TRIPOS>ATOM
      1 C          -0.2701    0.8405    1.1218 C.ar    1  LIG1        0.0525
      2 C           1.1327    0.8512    1.1038 C.ar    1  LIG1       -0.0348
      3 C          -0.9678    1.2220   -0.0376 C.ar    1  LIG1       -0.0426
      4 C           1.8443    1.2186   -0.0373 C.ar    1  LIG1        0.0053
      5 H           1.6770    0.5598    1.9956 H       1  LIG1        0.0637
      6 C          -0.2751    1.6023   -1.1738 C.ar    1  LIG1       -0.0392
      7 C           1.1333    1.6104   -1.2019 C.ar    1  LIG1        0.0325
      8 H          -0.8218    1.9024   -2.0635 H       1  LIG1        0.0636
      9 H          -2.0525    1.2215   -0.0362 H       1  LIG1        0.0631
     10 N          -1.5602    0.0983    3.2470 N.1     1  LIG1       -0.1909
     11 C          -0.9783    0.4363    2.2969 C.1     1  LIG1        0.0992
     12 N           1.7979    1.9611   -2.3644 N.pl3   1  LIG1       -0.3575
     13 H           2.7574    2.2606   -2.2618 H       1  LIG1        0.1423
     14 H           1.2719    2.5192   -3.0215 H       1  LIG1        0.1423
     15 C           4.0966    2.0376    0.8093 C.ar    1  LIG1        0.0602
     16 C           5.4978    1.9564    0.7847 C.ar    1  LIG1       -0.0342
     17 C           3.3366    1.1856   -0.0282 C.ar    1  LIG1        0.0030
     18 C           6.1735    1.0530   -0.0310 C.ar    1  LIG1        0.0053
     19 H           6.0699    2.6205    1.4235 H       1  LIG1        0.0637
     20 C           4.0139    0.2918   -0.8552 C.ar    1  LIG1       -0.0314
     21 C           5.4181    0.1949   -0.8733 C.ar    1  LIG1        0.0330
     22 H           3.4354   -0.3636   -1.5000 H       1  LIG1        0.0643
     23 N           2.9975    3.7892    2.3773 N.1     1  LIG1       -0.1908
     24 C           3.4734    2.9980    1.6682 C.1     1  LIG1        0.0998
     25 N           6.0295   -0.7482   -1.6727 N.pl3   1  LIG1       -0.3575
     26 H           5.4858   -1.1230   -2.4356 H       1  LIG1        0.1423
     27 H           7.0097   -0.6223   -1.8791 H       1  LIG1        0.1423
     28 C           8.4474    2.1083   -0.4221 C.ar    1  LIG1        0.0602
     29 C           9.8476    2.0067   -0.3935 C.ar    1  LIG1       -0.0342
     30 C           7.6637    0.9997   -0.0183 C.ar    1  LIG1        0.0030
     31 C          10.4999    0.8459    0.0113 C.ar    1  LIG1        0.0053
     32 H          10.4406    2.8516   -0.7280 H       1  LIG1        0.0637
     33 C           8.3165   -0.1571    0.4009 C.ar    1  LIG1       -0.0314
     34 C           9.7206   -0.2624    0.4390 C.ar    1  LIG1        0.0330
     35 H           7.7208   -1.0024    0.7333 H       1  LIG1        0.0643
     36 N           7.3929    4.3065   -1.3104 N.1     1  LIG1       -0.1908
     37 C           7.8497    3.3153   -0.9043 C.1     1  LIG1        0.0998
     38 N          10.3034   -1.3980    0.9521 N.pl3   1  LIG1       -0.3575
     39 H           9.7430   -2.2369    0.9635 H       1  LIG1        0.1423
     40 H          11.2796   -1.5568    0.7549 H       1  LIG1        0.1423
     41 C          12.6965   -0.0619   -0.8862 C.ar    1  LIG1        0.0596
     42 C          14.1040   -0.0464   -0.8872 C.ar    1  LIG1       -0.0420
     43 C          11.9914    0.8008   -0.0068 C.ar    1  LIG1        0.0030
     44 C          14.8099    0.7988   -0.0495 C.ar    1  LIG1       -0.0398
     45 H          14.6376   -0.7017   -1.5676 H       1  LIG1        0.0631
     46 C          12.7159    1.6470    0.8287 C.ar    1  LIG1       -0.0320
     47 C          14.1251    1.6674    0.8246 C.ar    1  LIG1        0.0252
     48 H          12.1755    2.2980    1.5097 H       1  LIG1        0.0642
     49 H          15.8959    0.7943   -0.0639 H       1  LIG1        0.0636
     50 N          11.4416   -1.6292   -2.5306 N.1     1  LIG1       -0.1909
     51 C          12.0012   -0.9181   -1.7970 C.1     1  LIG1        0.0998
     52 N          14.8151    2.4812    1.6938 N.pl3   1  LIG1       -0.3579
     53 H          15.7870    2.6660    1.4975 H       1  LIG1        0.1423
     54 H          14.3190    3.2522    2.1142 H       1  LIG1        0.1423
@<TRIPOS>BOND
     1    14    12    1
     2    50    51    3
     3    26    25    1
     4    12    13    1
     5    12     7    1
     6     8     6    1
     7    27    25    1
     8    51    41    1
     9    25    21    1
    10    45    42    1
    11    22    20    1
    12    36    37    3
    13     7     6   ar
    14     7     4   ar
    15     6     3   ar
    16    37    28    1
    17    42    41   ar
    18    42    44   ar
    19    41    43   ar
    20    21    20   ar
    21    21    18   ar
    22    20    17   ar
    23    32    29    1
    24    28    29   ar
    25    28    30   ar
    26    29    31   ar
    27    49    44    1
    28    44    47   ar
    29     3     9    1
    30     3     1   ar
    31     4    17    1
    32     4     2   ar
    33    18    30    1
    34    18    16   ar
    35    17    15   ar
    36    30    33   ar
    37    43    31    1
    38    43    46   ar
    39    31    34   ar
    40    33    34   ar
    41    33    35    1
    42    34    38    1
    43    40    38    1
    44    16    15   ar
    45    16    19    1
    46    15    24    1
    47    47    46   ar
    48    47    52    1
    49    46    48    1
    50    38    39    1
    51     2     1   ar
    52     2     5    1
    53     1    11    1
    54    53    52    1
    55    24    23    3
    56    52    54    1
    57    11    10    3
