@<TRIPOS>MOLECULE
mol_data/opt/b3lyp/geoms/mol2/4dh4dh-4dh-4dh-.out
 54 57 0 0 0
SMALL
GASTEIGER

@<TRIPOS>ATOM
      1 C          -0.2771    0.0288   -0.0045 C.ar    1  LIG1        0.0525
      2 C           1.1259    0.0446   -0.0116 C.ar    1  LIG1       -0.0348
      3 C          -0.9668    1.2545    0.0200 C.ar    1  LIG1       -0.0426
      4 C           1.8466    1.2379    0.0077 C.ar    1  LIG1        0.0053
      5 H           1.6677   -0.8955   -0.0112 H       1  LIG1        0.0637
      6 C          -0.2673    2.4473    0.0230 C.ar    1  LIG1       -0.0392
      7 C           1.1432    2.4735    0.0064 C.ar    1  LIG1        0.0325
      8 H          -0.8085    3.3892    0.0246 H       1  LIG1        0.0636
      9 H          -2.0515    1.2604    0.0333 H       1  LIG1        0.0631
     10 N          -1.5627   -2.2240   -0.0359 N.1     1  LIG1       -0.1909
     11 C          -0.9865   -1.2121   -0.0187 C.1     1  LIG1        0.0992
     12 N           1.7993    3.6802   -0.0863 N.pl3   1  LIG1       -0.3575
     13 H           2.7842    3.7046    0.1306 H       1  LIG1        0.1423
     14 H           1.2951    4.4979    0.2224 H       1  LIG1        0.1423
     15 C           4.1179    1.6692    1.0770 C.ar    1  LIG1        0.0602
     16 C           5.5175    1.5844    1.0108 C.ar    1  LIG1       -0.0342
     17 C           3.3371    1.1830   -0.0029 C.ar    1  LIG1        0.0030
     18 C           6.1734    1.0179   -0.0783 C.ar    1  LIG1        0.0053
     19 H           6.1034    1.9612    1.8421 H       1  LIG1        0.0637
     20 C           3.9958    0.6188   -1.0913 C.ar    1  LIG1       -0.0314
     21 C           5.3986    0.5189   -1.1578 C.ar    1  LIG1        0.0330
     22 H           3.4037    0.2587   -1.9277 H       1  LIG1        0.0643
     23 N           3.0399    2.6714    3.2147 N.1     1  LIG1       -0.1908
     24 C           3.5127    2.2150    2.2534 C.1     1  LIG1        0.0998
     25 N           5.9935   -0.0778   -2.2508 N.pl3   1  LIG1       -0.3575
     26 H           5.4353   -0.1373   -3.0899 H       1  LIG1        0.1423
     27 H           6.9652    0.1409   -2.4191 H       1  LIG1        0.1423
     28 C           8.4561    2.1218   -0.1115 C.ar    1  LIG1        0.0602
     29 C           9.8553    2.0084   -0.1213 C.ar    1  LIG1       -0.0342
     30 C           7.6631    0.9487   -0.1000 C.ar    1  LIG1        0.0030
     31 C          10.4958    0.7727   -0.1082 C.ar    1  LIG1        0.0053
     32 H          10.4539    2.9127   -0.1412 H       1  LIG1        0.0637
     33 C           8.3052   -0.2880   -0.1023 C.ar    1  LIG1       -0.0314
     34 C           9.7076   -0.4068   -0.0968 C.ar    1  LIG1        0.0330
     35 H           7.7016   -1.1912   -0.0913 H       1  LIG1        0.0643
     36 N           7.3937    4.4895   -0.1528 N.1     1  LIG1       -0.1908
     37 C           7.8602    3.4229   -0.1349 C.1     1  LIG1        0.0998
     38 N          10.2920   -1.6561   -0.0396 N.pl3   1  LIG1       -0.3575
     39 H           9.7213   -2.4389   -0.3229 H       1  LIG1        0.1423
     40 H          11.2597   -1.7232   -0.3191 H       1  LIG1        0.1423
     41 C          12.7381    1.1254   -1.2362 C.ar    1  LIG1        0.0596
     42 C          14.1436    1.0757   -1.1845 C.ar    1  LIG1       -0.0420
     43 C          11.9876    0.7044   -0.1109 C.ar    1  LIG1        0.0030
     44 C          14.8018    0.6159   -0.0573 C.ar    1  LIG1       -0.0398
     45 H          14.7141    1.3991   -2.0487 H       1  LIG1        0.0631
     46 C          12.6631    0.2313    1.0136 C.ar    1  LIG1       -0.0320
     47 C          14.0701    0.1826    1.0670 C.ar    1  LIG1        0.0252
     48 H          12.0860   -0.0846    1.8781 H       1  LIG1        0.0642
     49 H          15.8875    0.5916   -0.0356 H       1  LIG1        0.0636
     50 N          11.5900    1.9125   -3.4262 N.1     1  LIG1       -0.1909
     51 C          12.0933    1.5663   -2.4348 C.1     1  LIG1        0.0998
     52 N          14.7141   -0.2292    2.2123 N.pl3   1  LIG1       -0.3579
     53 H          14.1852   -0.7512    2.8938 H       1  LIG1        0.1423
     54 H          15.6861   -0.4880    2.1437 H       1  LIG1        0.1423
@<TRIPOS>BOND
     1    50    51    3
     2    26    25    1
     3    51    41    1
     4    27    25    1
     5    25    21    1
     6    45    42    1
     7    22    20    1
     8    41    42   ar
     9    41    43   ar
    10    42    44   ar
    11    21    20   ar
    12    21    18   ar
    13    20    17   ar
    14    39    38    1
    15    40    38    1
    16    36    37    3
    17    32    29    1
    18    37    28    1
    19    29    28   ar
    20    29    31   ar
    21    28    30   ar
    22    43    31    1
    23    43    46   ar
    24    31    34   ar
    25    33    30   ar
    26    33    34   ar
    27    33    35    1
    28    30    18    1
    29    34    38    1
    30    12     7    1
    31    12    13    1
    32    12    14    1
    33    18    16   ar
    34    44    49    1
    35    44    47   ar
    36    10    11    3
    37    11     1    1
    38     2     5    1
    39     2     1   ar
    40     2     4   ar
    41     1     3   ar
    42    17     4    1
    43    17    15   ar
    44     7     4   ar
    45     7     6   ar
    46     3     6   ar
    47     3     9    1
    48     6     8    1
    49    16    15   ar
    50    16    19    1
    51    46    47   ar
    52    46    48    1
    53    47    52    1
    54    15    24    1
    55    54    52    1
    56    52    53    1
    57    24    23    3
