@<TRIPOS>MOLECULE
mol_data/opt/b3lyp/geoms/mol2/4dh4ai12fa6le.out
 51 54 0 0 0
SMALL
GASTEIGER

@<TRIPOS>ATOM
      1 C          -0.2192   -0.0946    0.4959 C.ar    1  LIG1        0.0525
      2 C           1.1721    0.0883    0.5336 C.ar    1  LIG1       -0.0349
      3 C          -0.9886    0.7188   -0.3534 C.ar    1  LIG1       -0.0426
      4 C           1.8153    1.0523   -0.2450 C.ar    1  LIG1        0.0040
      5 H           1.7676   -0.5270    1.1997 H       1  LIG1        0.0637
      6 C          -0.3704    1.6754   -1.1398 C.ar    1  LIG1       -0.0392
      7 C           1.0259    1.8609   -1.1101 C.ar    1  LIG1        0.0324
      8 H          -0.9686    2.2968   -1.8009 H       1  LIG1        0.0636
      9 H          -2.0652    0.5920   -0.3927 H       1  LIG1        0.0631
     10 N          -1.3502   -1.9006    1.9763 N.1     1  LIG1       -0.1909
     11 C          -0.8415   -1.0894    1.3132 C.1     1  LIG1        0.0992
     12 N           1.5982    2.8392   -1.9041 N.pl3   1  LIG1       -0.3575
     13 H           2.5866    2.7447   -2.0915 H       1  LIG1        0.1423
     14 H           1.0562    3.1362   -2.7024 H       1  LIG1        0.1423
     15 C           4.1172    0.0476   -0.2547 C.ar    1  LIG1       -0.0533
     16 C           5.4955    0.1616   -0.1534 C.ar    1  LIG1       -0.0501
     17 C           3.2958    1.1818   -0.1716 C.ar    1  LIG1       -0.0158
     18 C           6.1276    1.4091    0.0407 C.ar    1  LIG1        0.0239
     19 H           6.1047   -0.7298   -0.2331 H       1  LIG1        0.0625
     20 C           3.9258    2.4211    0.0242 C.ar    1  LIG1       -0.0504
     21 C           5.3123    2.5701    0.1354 C.ar    1  LIG1       -0.0391
     22 H           3.3092    3.3100    0.1239 H       1  LIG1        0.0626
     23 H           3.6723   -0.9290   -0.4205 H       1  LIG1        0.0624
     24 C           5.8587    3.9599    0.3708 C.3     1  LIG1       -0.0390
     25 H           5.0368    4.6603    0.5416 H       1  LIG1        0.0278
     26 H           6.4428    4.3187   -0.4818 H       1  LIG1        0.0278
     27 H           6.5312    3.9939    1.2315 H       1  LIG1        0.0278
     28 C           7.5808    1.4230    0.1382 C.ar    1  LIG1        0.1771
     29 C           8.5234    0.4198    0.2933 C.ar    1  LIG1        0.1632
     30 C           9.8062    1.0276    0.3095 C.ar    1  LIG1        0.0266
     31 C           9.5949    2.3775    0.1628 C.ar    1  LIG1        0.1445
     32 O           8.2613    2.6189    0.0585 O.2     1  LIG1       -0.4509
     33 O           8.2381   -0.9070    0.4224 O.3     1  LIG1       -0.5032
     34 H           9.0591   -1.3892    0.5805 H       1  LIG1        0.2923
     35 H          10.7597    0.5360    0.4447 H       1  LIG1        0.0692
     36 C          10.2910    4.7975    0.5524 C.ar    1  LIG1        0.2255
     37 C          10.5410    3.4828    0.0638 C.ar    1  LIG1        0.0800
     38 C          11.7970    3.2664   -0.5011 C.ar    1  LIG1       -0.0291
     39 C          12.7501    4.2988   -0.5716 C.ar    1  LIG1        0.0437
     40 C          12.3689    5.5497   -0.0684 C.ar    1  LIG1        0.0468
     41 N          11.1727    5.7871    0.4768 N.ar    1  LIG1       -0.2195
     42 H          12.0379    2.2910   -0.9096 H       1  LIG1        0.0639
     43 H          13.0601    6.3876   -0.1097 H       1  LIG1        0.0843
     44 O           9.1014    5.0321    1.1362 O.3     1  LIG1       -0.4792
     45 C           8.8725    6.3493    1.6539 C.3     1  LIG1        0.0804
     46 H           7.8712    6.3151    2.0835 H       1  LIG1        0.0660
     47 H           9.6102    6.6032    2.4193 H       1  LIG1        0.0660
     48 H           8.9225    7.0971    0.8585 H       1  LIG1        0.0660
     49 C          14.0395    4.0925   -1.1455 C.1     1  LIG1       -0.0681
     50 C          15.1348    3.9191   -1.6300 C.1     1  LIG1       -0.1139
     51 H          16.0992    3.7699   -2.0575 H       1  LIG1        0.1232
@<TRIPOS>BOND
     1    14    12    1
     2    13    12    1
     3    51    50    1
     4    12     7    1
     5     8     6    1
     6    50    49    3
     7    49    39    1
     8     6     7   ar
     9     6     3   ar
    10     7     4   ar
    11    42    38    1
    12    39    38   ar
    13    39    40   ar
    14    38    37   ar
    15    26    24    1
    16    23    15    1
    17     9     3    1
    18     3     1   ar
    19    15    17   ar
    20    15    16   ar
    21     4    17    1
    22     4     2   ar
    23    19    16    1
    24    17    20   ar
    25    16    18   ar
    26    43    40    1
    27    40    41   ar
    28    20    22    1
    29    20    21   ar
    30    18    21   ar
    31    18    28    1
    32    32    28   ar
    33    32    31   ar
    34    37    31    1
    35    37    36   ar
    36    21    24    1
    37    28    29   ar
    38    31    30   ar
    39    29    30   ar
    40    29    33    1
    41    30    35    1
    42    24    25    1
    43    24    27    1
    44    33    34    1
    45    41    36   ar
    46     1     2   ar
    47     1    11    1
    48     2     5    1
    49    36    44    1
    50    48    45    1
    51    44    45    1
    52    11    10    3
    53    45    46    1
    54    45    47    1
