@<TRIPOS>MOLECULE
mol_data/opt/b3lyp/geoms/mol2/4dh4dh4dh4dh-.out
 54 57 0 0 0
SMALL
GASTEIGER

@<TRIPOS>ATOM
      1 C          -0.2080    2.0646    0.9980 C.ar    1  LIG1        0.0525
      2 C           1.1918    2.0207    0.9134 C.ar    1  LIG1       -0.0348
      3 C          -0.9634    1.2379    0.1470 C.ar    1  LIG1       -0.0426
      4 C           1.8469    1.1804    0.0138 C.ar    1  LIG1        0.0053
      5 H           1.7837    2.6407    1.5786 H       1  LIG1        0.0637
      6 C          -0.3297    0.4104   -0.7618 C.ar    1  LIG1       -0.0392
      7 C           1.0766    0.3663   -0.8601 C.ar    1  LIG1        0.0325
      8 H          -0.9212   -0.2119   -1.4274 H       1  LIG1        0.0636
      9 H          -2.0466    1.2545    0.2043 H       1  LIG1        0.0631
     10 N          -1.3732    3.6420    2.6962 N.1     1  LIG1       -0.1909
     11 C          -0.8500    2.9320    1.9357 C.1     1  LIG1        0.0992
     12 N           1.6649   -0.4007   -1.8421 N.pl3   1  LIG1       -0.3575
     13 H           2.6488   -0.6040   -1.7535 H       1  LIG1        0.1423
     14 H           1.1222   -1.1728   -2.1994 H       1  LIG1        0.1423
     15 C           4.1088    0.0447    0.3204 C.ar    1  LIG1        0.0602
     16 C           5.5108    0.1255    0.2890 C.ar    1  LIG1       -0.0342
     17 C           3.3387    1.1866   -0.0224 C.ar    1  LIG1        0.0030
     18 C           6.1807    1.2917   -0.0677 C.ar    1  LIG1        0.0053
     19 H           6.0915   -0.7551    0.5436 H       1  LIG1        0.0637
     20 C           4.0101    2.3560   -0.3624 C.ar    1  LIG1       -0.0314
     21 C           5.4166    2.4476   -0.3838 C.ar    1  LIG1        0.0330
     22 H           3.4260    3.2346   -0.6202 H       1  LIG1        0.0643
     23 N           3.0250   -2.2010    1.0386 N.1     1  LIG1       -0.1908
     24 C           3.4979   -1.1841    0.7236 C.1     1  LIG1        0.0998
     25 N           6.0135    3.6558   -0.6451 N.pl3   1  LIG1       -0.3575
     26 H           6.9954    3.6669   -0.8734 H       1  LIG1        0.1423
     27 H           5.4638    4.3536   -1.1227 H       1  LIG1        0.1423
     28 C           8.4162    1.4809   -1.2720 C.ar    1  LIG1        0.0602
     29 C           9.8196    1.4643   -1.2176 C.ar    1  LIG1       -0.0342
     30 C           7.6726    1.3032   -0.0768 C.ar    1  LIG1        0.0030
     31 C          10.5156    1.2775   -0.0272 C.ar    1  LIG1        0.0053
     32 H          10.3804    1.6103   -2.1350 H       1  LIG1        0.0637
     33 C           8.3685    1.1009    1.1098 C.ar    1  LIG1       -0.0314
     34 C           9.7766    1.0723    1.1693 C.ar    1  LIG1        0.0330
     35 H           7.8041    0.9603    2.0270 H       1  LIG1        0.0643
     36 N           7.2678    1.7873   -3.5787 N.1     1  LIG1       -0.1908
     37 C           7.7725    1.6439   -2.5388 C.1     1  LIG1        0.0998
     38 N          10.3984    0.7860    2.3609 N.pl3   1  LIG1       -0.3575
     39 H          11.3780    1.0094    2.4484 H       1  LIG1        0.1423
     40 H           9.8651    0.9352    3.2043 H       1  LIG1        0.1423
     41 C          12.7781    2.2565    0.6083 C.ar    1  LIG1        0.0596
     42 C          14.1828    2.2056    0.5299 C.ar    1  LIG1       -0.0420
     43 C          12.0081    1.2625   -0.0498 C.ar    1  LIG1        0.0030
     44 C          14.8241    1.2075   -0.1818 C.ar    1  LIG1       -0.0398
     45 H          14.7655    2.9730    1.0285 H       1  LIG1        0.0631
     46 C          12.6688    0.2656   -0.7641 C.ar    1  LIG1       -0.0320
     47 C          14.0744    0.2171   -0.8482 C.ar    1  LIG1        0.0252
     48 H          12.0793   -0.5023   -1.2567 H       1  LIG1        0.0642
     49 H          15.9090    1.1853   -0.2280 H       1  LIG1        0.0636
     50 N          11.6645    4.2034    1.9135 N.1     1  LIG1       -0.1909
     51 C          12.1560    3.3311    1.3184 C.1     1  LIG1        0.0998
     52 N          14.7004   -0.8066   -1.5229 N.pl3   1  LIG1       -0.3579
     53 H          14.1558   -1.3382   -2.1849 H       1  LIG1        0.1423
     54 H          15.6662   -0.6784   -1.7835 H       1  LIG1        0.1423
@<TRIPOS>BOND
     1    36    37    3
     2    37    28    1
     3    14    12    1
     4    53    52    1
     5    32    29    1
     6    12    13    1
     7    12     7    1
     8    54    52    1
     9    52    47    1
    10     8     6    1
    11    28    29   ar
    12    28    30   ar
    13    48    46    1
    14    29    31   ar
    15    27    25    1
    16    26    25    1
    17     7     6   ar
    18     7     4   ar
    19    47    46   ar
    20    47    44   ar
    21    46    43   ar
    22     6     3   ar
    23    25    21    1
    24    22    20    1
    25    21    20   ar
    26    21    18   ar
    27    20    17   ar
    28    49    44    1
    29    44    42   ar
    30    30    18    1
    31    30    33   ar
    32    18    16   ar
    33    43    31    1
    34    43    41   ar
    35    31    34   ar
    36    17     4    1
    37    17    15   ar
    38     4     2   ar
    39     3     9    1
    40     3     1   ar
    41    16    15   ar
    42    16    19    1
    43    15    24    1
    44    42    41   ar
    45    42    45    1
    46    41    51    1
    47    24    23    3
    48     2     1   ar
    49     2     5    1
    50     1    11    1
    51    33    34   ar
    52    33    35    1
    53    34    38    1
    54    51    50    3
    55    11    10    3
    56    38    39    1
    57    38    40    1
