@<TRIPOS>MOLECULE
mol_data/opt/b3lyp/geoms/mol2/4dh4dh-4dh.out
 41 43 0 0 0
SMALL
GASTEIGER

@<TRIPOS>ATOM
      1 C          -0.1361    0.1066    0.4157 C.ar    1  LIG1        0.0525
      2 C           1.2661    0.1443    0.4027 C.ar    1  LIG1       -0.0348
      3 C          -0.8482    1.2361   -0.0258 C.ar    1  LIG1       -0.0426
      4 C           1.9665    1.2699   -0.0323 C.ar    1  LIG1        0.0053
      5 H           1.8240   -0.7156    0.7583 H       1  LIG1        0.0637
      6 C          -0.1689    2.3548   -0.4725 C.ar    1  LIG1       -0.0392
      7 C           1.2401    2.3995   -0.4959 C.ar    1  LIG1        0.0325
      8 H          -0.7261    3.2177   -0.8262 H       1  LIG1        0.0636
      9 H          -1.9328    1.2255   -0.0161 H       1  LIG1        0.0631
     10 N          -1.3920   -2.0111    1.2335 N.1     1  LIG1       -0.1909
     11 C          -0.8266   -1.0602    0.8703 C.1     1  LIG1        0.0992
     12 N           1.8743    3.5004   -1.0379 N.pl3   1  LIG1       -0.3575
     13 H           2.8446    3.6355   -0.7971 H       1  LIG1        0.1423
     14 H           1.3450    4.3604   -1.0332 H       1  LIG1        0.1423
     15 C           4.2460    2.0991    0.7668 C.ar    1  LIG1        0.0602
     16 C           5.6448    1.9736    0.7487 C.ar    1  LIG1       -0.0342
     17 C           3.4584    1.2288   -0.0310 C.ar    1  LIG1        0.0030
     18 C           6.2977    1.0142   -0.0204 C.ar    1  LIG1        0.0053
     19 H           6.2362    2.6280    1.3807 H       1  LIG1        0.0637
     20 C           4.1136    0.2798   -0.8086 C.ar    1  LIG1       -0.0314
     21 C           5.5162    0.1482   -0.8318 C.ar    1  LIG1        0.0330
     22 H           3.5190   -0.3735   -1.4404 H       1  LIG1        0.0643
     23 N           3.1968    3.9108    2.3000 N.1     1  LIG1       -0.1908
     24 C           3.6549    3.0833    1.6201 C.1     1  LIG1        0.0998
     25 N           6.0949   -0.7549   -1.6948 N.pl3   1  LIG1       -0.3575
     26 H           5.5130   -1.5200   -2.0032 H       1  LIG1        0.1423
     27 H           7.0513   -1.0223   -1.5185 H       1  LIG1        0.1423
     28 C           8.4880   -0.1825    0.4962 C.ar    1  LIG1        0.0596
     29 C           9.8954   -0.1656    0.5271 C.ar    1  LIG1       -0.0420
     30 C           7.7885    0.9528    0.0103 C.ar    1  LIG1        0.0030
     31 C          10.6086    0.9391    0.0973 C.ar    1  LIG1       -0.0398
     32 H          10.4228   -1.0354    0.9048 H       1  LIG1        0.0631
     33 C           8.5223    2.0576   -0.4173 C.ar    1  LIG1       -0.0320
     34 C           9.9303    2.0781   -0.3808 C.ar    1  LIG1        0.0252
     35 H           7.9878    2.9242   -0.7958 H       1  LIG1        0.0642
     36 H          11.6941    0.9330    0.1347 H       1  LIG1        0.0636
     37 N           7.2536   -2.2940    1.3630 N.1     1  LIG1       -0.1909
     38 C           7.7970   -1.3361    0.9839 C.1     1  LIG1        0.0998
     39 N          10.6248    3.2031   -0.7662 N.pl3   1  LIG1       -0.3579
     40 H          11.6054    3.1017   -0.9791 H       1  LIG1        0.1423
     41 H          10.1425    3.8844   -1.3322 H       1  LIG1        0.1423
@<TRIPOS>BOND
     1    26    25    1
     2    25    27    1
     3    25    21    1
     4    22    20    1
     5    41    39    1
     6    12    14    1
     7    12    13    1
     8    12     7    1
     9    40    39    1
    10    21    20   ar
    11    21    18   ar
    12     8     6    1
    13    20    17   ar
    14    35    33    1
    15    39    34    1
    16     7     6   ar
    17     7     4   ar
    18     6     3   ar
    19    33    34   ar
    20    33    30   ar
    21    34    31   ar
    22     4    17    1
    23     4     2   ar
    24    17    15   ar
    25     3     9    1
    26     3     1   ar
    27    18    30    1
    28    18    16   ar
    29    30    28   ar
    30    31    36    1
    31    31    29   ar
    32     2     1   ar
    33     2     5    1
    34     1    11    1
    35    28    29   ar
    36    28    38    1
    37    29    32    1
    38    16    15   ar
    39    16    19    1
    40    15    24    1
    41    11    10    3
    42    38    37    3
    43    24    23    3
