@<TRIPOS>MOLECULE
mol_data/opt/b3lyp/geoms/mol2/4dh4dh.out
 28 29 0 0 0
SMALL
GASTEIGER

@<TRIPOS>ATOM
      1 C          -0.0042    0.2111    0.7081 C.ar    1  LIG1        0.0525
      2 C           1.3954    0.2069    0.6156 C.ar    1  LIG1       -0.0348
      3 C          -0.7225    1.2585    0.1057 C.ar    1  LIG1       -0.0426
      4 C           2.0871    1.2199   -0.0487 C.ar    1  LIG1        0.0053
      5 H           1.9543   -0.5989    1.0786 H       1  LIG1        0.0637
      6 C          -0.0516    2.2650   -0.5667 C.ar    1  LIG1       -0.0392
      7 C           1.3537    2.2712   -0.6588 C.ar    1  LIG1        0.0325
      8 H          -0.6140    3.0685   -1.0346 H       1  LIG1        0.0636
      9 H          -1.8054    1.2723    0.1668 H       1  LIG1        0.0631
     10 N          -1.2531   -1.6640    1.9950 N.1     1  LIG1       -0.1909
     11 C          -0.6891   -0.8275    1.4141 C.1     1  LIG1        0.0992
     12 N           1.9943    3.3150   -1.3076 N.pl3   1  LIG1       -0.3575
     13 H           2.9359    3.1324   -1.6249 H       1  LIG1        0.1423
     14 H           1.4357    3.8219   -1.9791 H       1  LIG1        0.1423
     15 C           4.2822    0.1191   -0.6996 C.ar    1  LIG1        0.0596
     16 C           5.6895    0.1198   -0.6814 C.ar    1  LIG1       -0.0420
     17 C           3.5788    1.1908   -0.0955 C.ar    1  LIG1        0.0030
     18 C           6.3990    1.1515   -0.0918 C.ar    1  LIG1       -0.0398
     19 H           6.2208   -0.7036   -1.1470 H       1  LIG1        0.0631
     20 C           4.3089    2.2288    0.4864 C.ar    1  LIG1       -0.0320
     21 C           5.7165    2.2301    0.5048 C.ar    1  LIG1        0.0252
     22 H           3.7711    3.0463    0.9578 H       1  LIG1        0.0642
     23 H           7.4850    1.1289   -0.0842 H       1  LIG1        0.0636
     24 N           3.0840   -1.8340   -1.9173 N.1     1  LIG1       -0.1909
     25 C           3.6008   -0.9519   -1.3600 C.1     1  LIG1        0.0998
     26 N           6.4089    3.2378    1.1436 N.pl3   1  LIG1       -0.3579
     27 H           7.3845    3.3533    0.9156 H       1  LIG1        0.1423
     28 H           5.9190    4.1002    1.3268 H       1  LIG1        0.1423
@<TRIPOS>BOND
     1    14    12    1
     2    24    25    3
     3    13    12    1
     4    25    15    1
     5    12     7    1
     6    19    16    1
     7     8     6    1
     8    15    16   ar
     9    15    17   ar
    10    16    18   ar
    11     7     6   ar
    12     7     4   ar
    13     6     3   ar
    14    17     4    1
    15    17    20   ar
    16    18    23    1
    17    18    21   ar
    18     4     2   ar
    19     3     9    1
    20     3     1   ar
    21    20    21   ar
    22    20    22    1
    23    21    26    1
    24     2     1   ar
    25     2     5    1
    26     1    11    1
    27    27    26    1
    28    26    28    1
    29    11    10    3
