@<TRIPOS>MOLECULE
mol_data/opt/b3lyp/geoms/mol2/4dh4dh4dh.out
 41 43 0 0 0
SMALL
GASTEIGER

@<TRIPOS>ATOM
      1 C          -0.0982    0.8353    1.2636 C.ar    1  LIG1        0.0525
      2 C           1.3017    0.8014    1.1746 C.ar    1  LIG1       -0.0348
      3 C          -0.8387    1.2894    0.1581 C.ar    1  LIG1       -0.0426
      4 C           1.9684    1.2177    0.0237 C.ar    1  LIG1        0.0053
      5 H           1.8792    0.4502    2.0229 H       1  LIG1        0.0637
      6 C          -0.1908    1.6932   -0.9964 C.ar    1  LIG1       -0.0392
      7 C           1.2145    1.6675   -1.0917 C.ar    1  LIG1        0.0325
      8 H          -0.7710    2.0361   -1.8486 H       1  LIG1        0.0636
      9 H          -1.9217    1.3173    0.2123 H       1  LIG1        0.0631
     10 N          -1.3022    0.1045    3.4425 N.1     1  LIG1       -0.1909
     11 C          -0.7594    0.4262    2.4640 C.1     1  LIG1        0.0992
     12 N           1.8372    2.1123   -2.2449 N.pl3   1  LIG1       -0.3575
     13 H           2.7820    1.7897   -2.4006 H       1  LIG1        0.1423
     14 H           1.2707    2.1104   -3.0809 H       1  LIG1        0.1423
     15 C           4.1925   -0.0122    0.0082 C.ar    1  LIG1        0.0602
     16 C           5.5956    0.0286   -0.0342 C.ar    1  LIG1       -0.0342
     17 C           3.4606    1.1991   -0.0233 C.ar    1  LIG1        0.0030
     18 C           6.2968    1.2289   -0.0958 C.ar    1  LIG1        0.0053
     19 H           6.1477   -0.9050   -0.0221 H       1  LIG1        0.0637
     20 C           4.1648    2.3994   -0.0965 C.ar    1  LIG1       -0.0314
     21 C           5.5705    2.4463   -0.1248 C.ar    1  LIG1        0.0330
     22 H           3.6069    3.3312   -0.1210 H       1  LIG1        0.0643
     23 N           3.0329   -2.3321    0.1002 N.1     1  LIG1       -0.1908
     24 C           3.5364   -1.2833    0.0598 C.1     1  LIG1        0.0998
     25 N           6.2212    3.6651   -0.1382 N.pl3   1  LIG1       -0.3575
     26 H           7.1822    3.6649   -0.4477 H       1  LIG1        0.1423
     27 H           5.6854    4.4596   -0.4551 H       1  LIG1        0.1423
     28 C           8.4845    0.7881   -1.2956 C.ar    1  LIG1        0.0596
     29 C           9.8917    0.7703   -1.2880 C.ar    1  LIG1       -0.0420
     30 C           7.7902    1.2229   -0.1402 C.ar    1  LIG1        0.0030
     31 C          10.6050    1.1780   -0.1742 C.ar    1  LIG1       -0.0398
     32 H          10.4194    0.4352   -2.1747 H       1  LIG1        0.0631
     33 C           8.5208    1.6433    0.9700 C.ar    1  LIG1       -0.0320
     34 C           9.9296    1.6249    0.9795 C.ar    1  LIG1        0.0252
     35 H           7.9857    1.9723    1.8564 H       1  LIG1        0.0642
     36 H          11.6908    1.1507   -0.1859 H       1  LIG1        0.0636
     37 N           7.2285    0.0959   -3.4583 N.1     1  LIG1       -0.1909
     38 C           7.7804    0.3990   -2.4788 C.1     1  LIG1        0.0998
     39 N          10.6277    1.9860    2.1105 N.pl3   1  LIG1       -0.3579
     40 H          11.6074    2.2038    2.0134 H       1  LIG1        0.1423
     41 H          10.1449    2.5222    2.8149 H       1  LIG1        0.1423
@<TRIPOS>BOND
     1    37    38    3
     2    14    12    1
     3    38    28    1
     4    13    12    1
     5    12     7    1
     6    32    29    1
     7     8     6    1
     8    28    29   ar
     9    28    30   ar
    10    29    31   ar
    11     7     6   ar
    12     7     4   ar
    13     6     3   ar
    14    27    25    1
    15    26    25    1
    16    36    31    1
    17    31    34   ar
    18    30    18    1
    19    30    33   ar
    20    25    21    1
    21    21    20   ar
    22    21    18   ar
    23    22    20    1
    24    20    17   ar
    25    18    16   ar
    26    16    19    1
    27    16    15   ar
    28    17    15   ar
    29    17     4    1
    30    15    24    1
    31     4     2   ar
    32    24    23    3
    33     3     9    1
    34     3     1   ar
    35    33    34   ar
    36    33    35    1
    37    34    39    1
    38     2     1   ar
    39     2     5    1
    40     1    11    1
    41    40    39    1
    42    39    41    1
    43    11    10    3
