@<TRIPOS>MOLECULE
mol_data/opt/b3lyp/geoms/mol2/4di6ae-13hh13li.out
 54 57 0 0 0
SMALL
GASTEIGER

@<TRIPOS>ATOM
      1 C          -0.0440    1.5843   -0.1807 C.ar    1  LIG1        0.0524
      2 C           1.3052    1.2926   -0.4210 C.ar    1  LIG1       -0.0363
      3 C          -0.4231    2.1334    1.0533 C.ar    1  LIG1       -0.0441
      4 C           2.2890    1.5355    0.5472 C.ar    1  LIG1       -0.0123
      5 H           1.5952    0.8870   -1.3844 H       1  LIG1        0.0636
      6 C           0.5491    2.3666    2.0177 C.ar    1  LIG1       -0.0570
      7 C           1.9035    2.0774    1.7983 C.ar    1  LIG1       -0.0426
      8 H           0.2508    2.7735    2.9799 H       1  LIG1        0.0621
      9 H          -1.4650    2.3634    1.2478 H       1  LIG1        0.0630
     10 N          -1.8258    1.1189   -2.0124 N.1     1  LIG1       -0.1909
     11 C          -1.0266    1.3277   -1.1930 C.1     1  LIG1        0.0992
     12 C           2.8932    2.3230    2.9135 C.3     1  LIG1       -0.0391
     13 H           2.3857    2.3253    3.8820 H       1  LIG1        0.0278
     14 H           3.3934    3.2928    2.8087 H       1  LIG1        0.0278
     15 H           3.6754    1.5602    2.9352 H       1  LIG1        0.0278
     16 C           4.7467    2.1313    0.3275 C.ar    1  LIG1        0.0361
     17 C           3.6989    1.1964    0.2214 C.ar    1  LIG1        0.0017
     18 C           4.0506   -0.0451   -0.3104 C.ar    1  LIG1       -0.0350
     19 C           5.3788   -0.3451   -0.6492 C.ar    1  LIG1        0.0527
     20 C           6.3867    0.6297   -0.3604 C.ar    1  LIG1        0.1043
     21 N           6.0167    1.8704    0.0614 N.ar    1  LIG1       -0.2516
     22 H           3.2872   -0.7950   -0.4942 H       1  LIG1        0.0637
     23 H           4.5274    3.1540    0.6305 H       1  LIG1        0.0836
     24 C           5.6212   -1.5486   -1.3714 C.1     1  LIG1       -0.0675
     25 C           5.7608   -2.5670   -2.0157 C.1     1  LIG1       -0.1138
     26 H           5.8739   -3.4368   -2.6206 H       1  LIG1        0.1232
     27 C           7.8076    0.4510   -0.5057 C.ar    1  LIG1        0.0894
     28 C           8.7018   -0.6442   -0.4850 C.ar    1  LIG1        0.0734
     29 C          10.0197   -0.1175   -0.5806 C.ar    1  LIG1        0.0734
     30 C           9.9214    1.2818   -0.6247 C.ar    1  LIG1        0.0897
     31 N           8.6010    1.5945   -0.5708 N.ar    1  LIG1       -0.3487
     32 H           8.2231    2.5307   -0.5878 H       1  LIG1        0.1661
     33 N           8.4692   -1.9832   -0.2522 N.pl3   1  LIG1       -0.3548
     34 H           7.6365   -2.3806   -0.6676 H       1  LIG1        0.1424
     35 H           9.3104   -2.5299   -0.3970 H       1  LIG1        0.1424
     36 N          11.1663   -0.9641   -0.5864 N.pl3   1  LIG1       -0.3548
     37 H          11.6792   -0.9744   -1.4624 H       1  LIG1        0.1424
     38 H          11.8024   -0.8194    0.1910 H       1  LIG1        0.1424
     39 C          10.9287    2.3079   -0.7037 C.ar    1  LIG1        0.1072
     40 C          10.8104    3.6940   -0.6332 C.ar    1  LIG1        0.1496
     41 C          12.0976    4.2832   -0.7927 C.ar    1  LIG1        0.0092
     42 C          12.9764    3.2276   -0.9544 C.ar    1  LIG1        0.0087
     43 N          12.2719    2.0508   -0.8980 N.ar    1  LIG1       -0.3563
     44 H          12.6514    1.1262   -1.0104 H       1  LIG1        0.1655
     45 H          14.0447    3.2327   -1.1127 H       1  LIG1        0.0811
     46 O           9.6092    4.3541   -0.4887 O.3     1  LIG1       -0.4927
     47 C           9.3896    4.9027    0.8158 C.3     1  LIG1        0.0789
     48 H           8.4035    5.3711    0.7929 H       1  LIG1        0.0660
     49 H           9.4044    4.1171    1.5806 H       1  LIG1        0.0660
     50 H          10.1431    5.6590    1.0639 H       1  LIG1        0.0660
     51 C          12.4220    5.7474   -0.8056 C.3     1  LIG1       -0.0348
     52 H          13.4001    5.9303   -1.2598 H       1  LIG1        0.0279
     53 H          12.4458    6.1791    0.2030 H       1  LIG1        0.0279
     54 H          11.6754    6.3071   -1.3784 H       1  LIG1        0.0279
@<TRIPOS>BOND
     1    26    25    1
     2    25    24    3
     3    10    11    3
     4    37    36    1
     5     5     2    1
     6    54    51    1
     7    24    19    1
     8    52    51    1
     9    11     1    1
    10    45    42    1
    11    44    43    1
    12    42    43   ar
    13    42    41   ar
    14    43    39   ar
    15    51    41    1
    16    51    53    1
    17    41    40   ar
    18    39    40   ar
    19    39    30    1
    20    34    33    1
    21    19    20   ar
    22    19    18   ar
    23    40    46    1
    24    30    29   ar
    25    30    31   ar
    26    32    31    1
    27    36    29    1
    28    36    38    1
    29    29    28   ar
    30    31    27   ar
    31    27    28   ar
    32    27    20    1
    33    22    18    1
    34    46    47    1
    35    28    33    1
    36     2     1   ar
    37     2     4   ar
    38    35    33    1
    39    20    21   ar
    40    18    17   ar
    41     1     3   ar
    42    21    16   ar
    43    17    16   ar
    44    17     4    1
    45    16    23    1
    46     4     7   ar
    47    48    47    1
    48    47    50    1
    49    47    49    1
    50     3     9    1
    51     3     6   ar
    52     7     6   ar
    53     7    12    1
    54     6     8    1
    55    14    12    1
    56    12    15    1
    57    12    13    1
