@<TRIPOS>MOLECULE
mol_data/opt/b3lyp/geoms/mol2/4dl12aa6li-6de.out
 52 55 0 0 0
SMALL
GASTEIGER

@<TRIPOS>ATOM
      1 C           0.7179   -0.6547   -1.3317 C.ar    1  LIG1        0.0527
      2 C           1.8528   -0.2678   -0.6114 C.ar    1  LIG1       -0.0302
      3 C          -0.2469    0.3130   -1.6655 C.ar    1  LIG1       -0.0409
      4 C           2.0472    1.0553   -0.1845 C.ar    1  LIG1        0.0601
      5 H           2.6255   -1.0000   -0.4053 H       1  LIG1        0.0639
      6 C          -0.0807    1.6189   -1.2380 C.ar    1  LIG1       -0.0180
      7 C           1.0349    2.0060   -0.4772 C.ar    1  LIG1        0.1308
      8 H          -0.8252    2.3772   -1.4538 H       1  LIG1        0.0655
      9 H          -1.1224    0.0291   -2.2392 H       1  LIG1        0.0631
     10 N           0.4289   -3.1228   -2.0825 N.1     1  LIG1       -0.1909
     11 C           0.5598   -2.0160   -1.7472 C.1     1  LIG1        0.0992
     12 O           1.0385    3.3082   -0.1001 O.3     1  LIG1       -0.4944
     13 C           1.4720    3.6891    1.2157 C.3     1  LIG1        0.0788
     14 H           0.8022    4.4934    1.5293 H       1  LIG1        0.0660
     15 H           1.3835    2.8554    1.9184 H       1  LIG1        0.0660
     16 H           2.4992    4.0532    1.1885 H       1  LIG1        0.0660
     17 C           3.3075    1.3620    0.4971 C.ar    1  LIG1        0.1392
     18 C           4.0385    0.6747    1.4329 C.ar    1  LIG1       -0.0151
     19 C           5.2265    1.4244    1.6534 C.ar    1  LIG1       -0.0151
     20 C           5.1576    2.5284    0.8371 C.ar    1  LIG1        0.1408
     21 O           3.9858    2.4917    0.1286 O.2     1  LIG1       -0.4545
     22 H           3.7426   -0.2415    1.9231 H       1  LIG1        0.0656
     23 H           6.0180    1.1958    2.3521 H       1  LIG1        0.0656
     24 C           5.7215    4.9314    0.1997 C.ar    1  LIG1        0.2260
     25 C           6.0943    3.6214    0.6131 C.ar    1  LIG1        0.0790
     26 C           7.4560    3.4323    0.8508 C.ar    1  LIG1       -0.0410
     27 C           8.4034    4.4522    0.6898 C.ar    1  LIG1       -0.0235
     28 C           7.9087    5.6879    0.2416 C.ar    1  LIG1        0.0805
     29 N           6.5986    5.9006    0.0132 N.ar    1  LIG1       -0.2120
     30 H           7.7948    2.4511    1.1710 H       1  LIG1        0.0630
     31 O           4.4142    5.1870    0.0081 O.3     1  LIG1       -0.4792
     32 C           4.0528    6.5298   -0.3548 C.3     1  LIG1        0.0804
     33 H           2.9669    6.5121   -0.4478 H       1  LIG1        0.0660
     34 H           4.3673    7.2397    0.4138 H       1  LIG1        0.0660
     35 H           4.5107    6.8099   -1.3067 H       1  LIG1        0.0660
     36 C           9.8542    4.1785    1.0149 C.3     1  LIG1       -0.0377
     37 H          10.3685    5.0701    1.3810 H       1  LIG1        0.0278
     38 H          10.4116    3.8127    0.1440 H       1  LIG1        0.0278
     39 H           9.9302    3.4084    1.7879 H       1  LIG1        0.0278
     40 C           8.4394    8.1596    0.4795 C.ar    1  LIG1        0.1492
     41 C           8.7724    6.8749   -0.0108 C.ar    1  LIG1        0.0377
     42 C           9.9289    6.7861   -0.7888 C.ar    1  LIG1       -0.0329
     43 C          10.6999    7.9273   -1.0524 C.ar    1  LIG1        0.0435
     44 C          10.2598    9.1495   -0.5055 C.ar    1  LIG1        0.0444
     45 N           9.1666    9.2640    0.2390 N.ar    1  LIG1       -0.2428
     46 H          10.2241    5.8350   -1.2163 H       1  LIG1        0.0638
     47 H          10.8248   10.0597   -0.6882 H       1  LIG1        0.0842
     48 N           6.3829    8.5907    2.0213 N.1     1  LIG1       -0.1893
     49 C           7.2860    8.3748    1.3221 C.1     1  LIG1        0.1198
     50 C          11.8784    7.8659   -1.8513 C.1     1  LIG1       -0.0681
     51 C          12.8804    7.8214   -2.5278 C.1     1  LIG1       -0.1139
     52 H          13.7624    7.7839   -3.1251 H       1  LIG1        0.1232
@<TRIPOS>BOND
     1    52    51    1
     2    51    50    3
     3     9     3    1
     4    10    11    3
     5    50    43    1
     6    11     1    1
     7     3     1   ar
     8     3     6   ar
     9     8     6    1
    10     1     2   ar
    11    35    32    1
    12     6     7   ar
    13    46    42    1
    14    43    42   ar
    15    43    44   ar
    16    42    41   ar
    17    47    44    1
    18     2     5    1
    19     2     4   ar
    20    44    45   ar
    21     7     4   ar
    22     7    12    1
    23    33    32    1
    24    32    31    1
    25    32    34    1
    26     4    17    1
    27    12    13    1
    28    41    28    1
    29    41    40   ar
    30    31    24    1
    31    29    24   ar
    32    29    28   ar
    33    21    17   ar
    34    21    20   ar
    35    38    36    1
    36    24    25   ar
    37    45    40   ar
    38    28    27   ar
    39    40    49    1
    40    17    18   ar
    41    25    20    1
    42    25    26   ar
    43    27    26   ar
    44    27    36    1
    45    20    19   ar
    46    26    30    1
    47    36    37    1
    48    36    39    1
    49    16    13    1
    50    13    14    1
    51    13    15    1
    52    49    48    3
    53    18    19   ar
    54    18    22    1
    55    19    23    1
