@<TRIPOS>MOLECULE
mol_data/opt/b3lyp/geoms/mol2/4ea.out
 14 14 0 0 0
SMALL
GASTEIGER

@<TRIPOS>ATOM
      1 C           0.1103    0.0622    0.0002 C.ar    1  LIG1        0.0247
      2 C           1.5179    0.0636   -0.0001 C.ar    1  LIG1       -0.0463
      3 C          -0.5742    1.2922    0.0002 C.ar    1  LIG1       -0.0463
      4 C           2.2189    1.2666   -0.0004 C.ar    1  LIG1       -0.0606
      5 H           2.0476   -0.8833   -0.0001 H       1  LIG1        0.0630
      6 C           0.1350    2.4904   -0.0001 C.ar    1  LIG1       -0.0606
      7 C           1.5315    2.4823   -0.0004 C.ar    1  LIG1       -0.0617
      8 H          -0.4038    3.4334   -0.0002 H       1  LIG1        0.0618
      9 H           3.3046    1.2555   -0.0007 H       1  LIG1        0.0618
     10 H          -1.6594    1.2936    0.0004 H       1  LIG1        0.0630
     11 C          -0.6142   -1.1708    0.0005 C.1     1  LIG1       -0.0697
     12 C          -1.2273   -2.2142    0.0009 C.1     1  LIG1       -0.1139
     13 H          -1.7671   -3.1326    0.0017 H       1  LIG1        0.1232
     14 H           2.0815    3.4187   -0.0007 H       1  LIG1        0.0618
@<TRIPOS>BOND
     1    14     7    1
     2     9     4    1
     3     7     4   ar
     4     7     6   ar
     5     4     2   ar
     6     8     6    1
     7     6     3   ar
     8     2     5    1
     9     2     1   ar
    10     3     1   ar
    11     3    10    1
    12     1    11    1
    13    11    12    3
    14    12    13    1
