@<TRIPOS>MOLECULE
mol_data/opt/b3lyp/geoms/mol2/4ea13dd-6aa-13fh-.out
 44 47 0 0 0
SMALL
GASTEIGER

@<TRIPOS>ATOM
      1 C          -0.1403    0.0869   -0.4447 C.ar    1  LIG1        0.0253
      2 C           1.2533    0.0012   -0.2969 C.ar    1  LIG1       -0.0372
      3 C          -0.7943    1.2983   -0.1512 C.ar    1  LIG1       -0.0463
      4 C           1.9952    1.1051    0.1484 C.ar    1  LIG1        0.0008
      5 H           1.7499   -0.9305   -0.5392 H       1  LIG1        0.0636
      6 C          -0.0604    2.3949    0.2913 C.ar    1  LIG1       -0.0600
      7 C           1.3207    2.3040    0.4461 C.ar    1  LIG1       -0.0525
      8 H          -0.5685    3.3241    0.5299 H       1  LIG1        0.0618
      9 H          -1.8704    1.3635   -0.2692 H       1  LIG1        0.0630
     10 C          -0.8847   -1.0443   -0.9028 C.1     1  LIG1       -0.0696
     11 C          -1.5179   -1.9989   -1.2910 C.1     1  LIG1       -0.1139
     12 H          -2.0687   -2.8463   -1.6287 H       1  LIG1        0.1232
     13 H           1.8709    3.1559    0.8352 H       1  LIG1        0.0624
     14 C           3.4504    1.0230    0.2914 C.ar    1  LIG1        0.0658
     15 C           4.3024   -0.0380    0.5919 C.ar    1  LIG1        0.0949
     16 C           5.6488    0.4731    0.6041 C.ar    1  LIG1        0.0949
     17 C           5.5878    1.8365    0.3083 C.ar    1  LIG1        0.0672
     18 N           4.2536    2.1303    0.1402 N.ar    1  LIG1       -0.3521
     19 H           3.9196    3.0097   -0.2235 H       1  LIG1        0.1660
     20 N           3.6169   -2.4721    1.1149 N.1     1  LIG1       -0.1908
     21 C           3.9232   -1.3729    0.8834 C.1     1  LIG1        0.1026
     22 N           7.7747   -0.8877    1.1470 N.1     1  LIG1       -0.1908
     23 C           6.8144   -0.2738    0.9073 C.1     1  LIG1        0.1026
     24 C           6.3373    4.2107    0.4168 C.ar    1  LIG1        0.0374
     25 C           6.6231    2.8543    0.1814 C.ar    1  LIG1        0.0177
     26 C           7.9511    2.5444   -0.1805 C.ar    1  LIG1       -0.0491
     27 C           8.8839    3.5569   -0.2979 C.ar    1  LIG1       -0.0335
     28 C           8.4863    4.8910   -0.0613 C.ar    1  LIG1        0.0907
     29 N           7.2164    5.1999    0.2978 N.ar    1  LIG1       -0.2527
     30 H           8.2405    1.5172   -0.3723 H       1  LIG1        0.0625
     31 H           5.3419    4.5094    0.7465 H       1  LIG1        0.0836
     32 H           9.9089    3.3440   -0.5776 H       1  LIG1        0.0640
     33 C           9.3969    6.0015   -0.1801 C.ar    1  LIG1        0.1088
     34 C          10.7441    6.1049   -0.5239 C.ar    1  LIG1        0.1643
     35 C          11.1197    7.4705   -0.4720 C.ar    1  LIG1        0.0849
     36 C           9.9878    8.1854   -0.0942 C.ar    1  LIG1        0.0267
     37 N           8.9712    7.2981    0.0743 N.ar    1  LIG1       -0.3549
     38 H           8.0199    7.4848    0.3532 H       1  LIG1        0.1655
     39 H           9.8479    9.2453    0.0614 H       1  LIG1        0.0827
     40 O          11.5871    5.1000   -0.8592 O.3     1  LIG1       -0.5031
     41 H          12.4395    5.5407   -1.0335 H       1  LIG1        0.2923
     42 N          12.4573    7.8572   -0.7828 N.pl3   1  LIG1       -0.3540
     43 H          12.5048    8.4876   -1.5781 H       1  LIG1        0.1425
     44 H          12.9232    8.3081   -0.0005 H       1  LIG1        0.1425
@<TRIPOS>BOND
     1    12    11    1
     2    43    42    1
     3    11    10    3
     4    41    40    1
     5    10     1    1
     6    40    34    1
     7    42    35    1
     8    42    44    1
     9    32    27    1
    10     5     2    1
    11    34    35   ar
    12    34    33   ar
    13    35    36   ar
    14     1     2   ar
    15     1     3   ar
    16    30    26    1
    17    27    26   ar
    18    27    28   ar
    19     2     4   ar
    20     9     3    1
    21    19    18    1
    22    26    25   ar
    23    33    28    1
    24    33    37   ar
    25     3     6   ar
    26    36    39    1
    27    36    37   ar
    28    28    29   ar
    29    37    38    1
    30    18    14   ar
    31    18    17   ar
    32     4    14    1
    33     4     7   ar
    34    25    17    1
    35    25    24   ar
    36     6     7   ar
    37     6     8    1
    38    14    15   ar
    39    29    24   ar
    40    17    16   ar
    41    24    31    1
    42     7    13    1
    43    15    16   ar
    44    15    21    1
    45    16    23    1
    46    21    20    3
    47    23    22    3
