@<TRIPOS>MOLECULE
mol_data/opt/b3lyp/geoms/mol2/4ea13li6fl13lf-.out
 56 59 0 0 0
SMALL
GASTEIGER

@<TRIPOS>ATOM
      1 C          -0.3819    0.0551   -0.9645 C.ar    1  LIG1        0.0253
      2 C           0.9816   -0.0146   -0.6410 C.ar    1  LIG1       -0.0371
      3 C          -1.0440    1.2975   -0.9265 C.ar    1  LIG1       -0.0463
      4 C           1.6961    1.1375   -0.2680 C.ar    1  LIG1        0.0031
      5 H           1.4951   -0.9673   -0.6898 H       1  LIG1        0.0636
      6 C          -0.3402    2.4411   -0.5604 C.ar    1  LIG1       -0.0600
      7 C           1.0109    2.3677   -0.2285 C.ar    1  LIG1       -0.0524
      8 H          -0.8506    3.3988   -0.5220 H       1  LIG1        0.0618
      9 H          -2.0971    1.3499   -1.1799 H       1  LIG1        0.0630
     10 C          -1.0917   -1.1292   -1.3399 C.1     1  LIG1       -0.0696
     11 C          -1.6969   -2.1281   -1.6563 C.1     1  LIG1       -0.1139
     12 H          -2.2268   -3.0087   -1.9366 H       1  LIG1        0.1232
     13 H           1.5298    3.2677    0.0887 H       1  LIG1        0.0624
     14 C           3.1176    1.0539    0.0511 C.ar    1  LIG1        0.0895
     15 C           3.9242   -0.0068    0.4456 C.ar    1  LIG1        0.1487
     16 C           5.2679    0.4442    0.6004 C.ar    1  LIG1        0.0173
     17 C           5.2686    1.7970    0.2839 C.ar    1  LIG1        0.0587
     18 N           3.9510    2.1650    0.0070 N.ar    1  LIG1       -0.3509
     19 H           3.7400    2.9636   -0.5760 H       1  LIG1        0.1660
     20 O           3.5233   -1.2993    0.6763 O.3     1  LIG1       -0.4927
     21 C           2.8836   -1.5080    1.9407 C.3     1  LIG1        0.0789
     22 H           2.6799   -2.5783    2.0111 H       1  LIG1        0.0660
     23 H           3.5362   -1.2052    2.7684 H       1  LIG1        0.0660
     24 H           1.9403   -0.9540    2.0063 H       1  LIG1        0.0660
     25 C           6.4129   -0.4059    1.0629 C.3     1  LIG1       -0.0342
     26 H           7.1862    0.1955    1.5484 H       1  LIG1        0.0279
     27 H           6.8830   -0.9461    0.2317 H       1  LIG1        0.0279
     28 H           6.0695   -1.1643    1.7721 H       1  LIG1        0.0279
     29 C           6.1871    4.1097    0.6988 C.ar    1  LIG1        0.2225
     30 C           6.3494    2.7811    0.2408 C.ar    1  LIG1        0.0635
     31 C           7.6194    2.4592   -0.2666 C.ar    1  LIG1       -0.0035
     32 C           8.6440    3.4014   -0.3018 C.ar    1  LIG1        0.1484
     33 C           8.3861    4.6952    0.2163 C.ar    1  LIG1        0.1361
     34 N           7.1566    5.0040    0.6800 N.ar    1  LIG1       -0.2072
     35 H           7.7740    1.4693   -0.6757 H       1  LIG1        0.0663
     36 O           5.0027    4.5686    1.2019 O.3     1  LIG1       -0.4919
     37 H           4.4252    3.8067    1.3649 H       1  LIG1        0.2937
     38 O           9.8680    3.1736   -0.8531 O.3     1  LIG1       -0.4929
     39 C          10.1831    1.8590   -1.2772 C.3     1  LIG1        0.0789
     40 H          11.2207    1.8927   -1.6112 H       1  LIG1        0.0660
     41 H          10.0921    1.1364   -0.4561 H       1  LIG1        0.0660
     42 H           9.5474    1.5350   -2.1123 H       1  LIG1        0.0660
     43 C           9.3360    5.8028    0.2657 C.ar    1  LIG1        0.1146
     44 C          10.7291    5.9678    0.2111 C.ar    1  LIG1        0.1883
     45 C          10.9983    7.3523    0.3915 C.ar    1  LIG1        0.1769
     46 C           9.7901    8.0025    0.5687 C.ar    1  LIG1        0.0480
     47 N           8.8057    7.0560    0.4910 N.ar    1  LIG1       -0.3533
     48 H           7.8214    7.1618    0.6894 H       1  LIG1        0.1656
     49 H           9.5696    9.0462    0.7378 H       1  LIG1        0.0845
     50 O          11.6857    4.9997    0.1236 O.3     1  LIG1       -0.4895
     51 C          12.4496    5.0289   -1.0823 C.3     1  LIG1        0.0791
     52 H          13.2090    4.2492   -0.9850 H       1  LIG1        0.0660
     53 H          11.8131    4.8126   -1.9491 H       1  LIG1        0.0660
     54 H          12.9434    5.9970   -1.2198 H       1  LIG1        0.0660
     55 O          12.2695    7.8653    0.3773 O.3     1  LIG1       -0.5023
     56 H          12.2256    8.8077    0.5813 H       1  LIG1        0.2923
@<TRIPOS>BOND
     1    42    39    1
     2    53    51    1
     3    12    11    1
     4    11    10    3
     5    40    39    1
     6    10     1    1
     7    39    38    1
     8    39    41    1
     9    54    51    1
    10     9     3    1
    11    51    52    1
    12    51    50    1
    13     1     3   ar
    14     1     2   ar
    15     3     6   ar
    16    38    32    1
    17     5     2    1
    18    35    31    1
    19     2     4   ar
    20    19    18    1
    21     6     8    1
    22     6     7   ar
    23    32    31   ar
    24    32    33   ar
    25     4     7   ar
    26     4    14    1
    27    31    30   ar
    28     7    13    1
    29    18    14   ar
    30    18    17   ar
    31    14    15   ar
    32    50    44    1
    33    44    43   ar
    34    44    45   ar
    35    33    43    1
    36    33    34   ar
    37    27    25    1
    38    30    17    1
    39    30    29   ar
    40    43    47   ar
    41    17    16   ar
    42    55    45    1
    43    55    56    1
    44    45    46   ar
    45    15    16   ar
    46    15    20    1
    47    47    46   ar
    48    47    48    1
    49    46    49    1
    50    16    25    1
    51    20    21    1
    52    34    29   ar
    53    29    36    1
    54    25    26    1
    55    25    28    1
    56    36    37    1
    57    21    24    1
    58    21    22    1
    59    21    23    1
