@<TRIPOS>MOLECULE
mol_data/opt/b3lyp/geoms/mol2/4ea13ff12ih-12lh-.out
 49 52 0 0 0
SMALL
GASTEIGER

@<TRIPOS>ATOM
      1 C          -0.1901    0.0076    0.4362 C.ar    1  LIG1        0.0253
      2 C           1.1998   -0.0780    0.2678 C.ar    1  LIG1       -0.0371
      3 C          -0.8251    1.2634    0.3866 C.ar    1  LIG1       -0.0463
      4 C           1.9755    1.0747    0.0441 C.ar    1  LIG1        0.0032
      5 H           1.6798   -1.0475    0.3119 H       1  LIG1        0.0636
      6 C          -0.0633    2.4060    0.1609 C.ar    1  LIG1       -0.0600
      7 C           1.3155    2.3191   -0.0133 C.ar    1  LIG1       -0.0524
      8 H          -0.5484    3.3765    0.1117 H       1  LIG1        0.0618
      9 H          -1.8995    1.3267    0.5198 H       1  LIG1        0.0630
     10 C          -0.9582   -1.1784    0.6640 C.1     1  LIG1       -0.0696
     11 C          -1.6139   -2.1771    0.8571 C.1     1  LIG1       -0.1139
     12 H          -2.1871   -3.0586    1.0268 H       1  LIG1        0.1232
     13 H           1.8745    3.2272   -0.2193 H       1  LIG1        0.0624
     14 C           3.4183    0.9729   -0.1172 C.ar    1  LIG1        0.0928
     15 C           4.2473   -0.1278   -0.3383 C.ar    1  LIG1        0.1849
     16 C           5.5765    0.3276   -0.4494 C.ar    1  LIG1        0.1879
     17 C           5.5801    1.7128   -0.2733 C.ar    1  LIG1        0.1286
     18 N           4.2614    2.0725   -0.1027 N.ar    1  LIG1       -0.3459
     19 H           3.9885    3.0163    0.1173 H       1  LIG1        0.1662
     20 O           3.8588   -1.4274   -0.4678 O.3     1  LIG1       -0.5019
     21 H           4.6674   -1.9409   -0.6166 H       1  LIG1        0.2924
     22 O           6.6212   -0.5491   -0.6806 O.3     1  LIG1       -0.5018
     23 H           7.0553   -0.3041   -1.5097 H       1  LIG1        0.2924
     24 C           6.6088    2.7202   -0.2651 C.ar    1  LIG1        0.1603
     25 C           7.9811    2.7316   -0.1298 C.ar    1  LIG1        0.0183
     26 C           8.3731    4.1110   -0.1910 C.ar    1  LIG1        0.0778
     27 C           7.2180    4.8551   -0.3398 C.ar    1  LIG1        0.1951
     28 O           6.1351    4.0016   -0.3828 O.2     1  LIG1       -0.4478
     29 C           8.9326    1.5980    0.1040 C.3     1  LIG1       -0.0343
     30 H           9.5420    1.7902    0.9950 H       1  LIG1        0.0279
     31 H           9.6309    1.4716   -0.7357 H       1  LIG1        0.0279
     32 H           8.4091    0.6520    0.2459 H       1  LIG1        0.0279
     33 N           9.6777    4.5659   -0.0313 N.pl3   1  LIG1       -0.3547
     34 H          10.3759    3.9722   -0.4597 H       1  LIG1        0.1424
     35 H           9.8020    5.5454   -0.2660 H       1  LIG1        0.1424
     36 C           6.9497    6.2592   -0.4534 C.ar    1  LIG1        0.2147
     37 C           7.7309    7.3901   -0.3399 C.ar    1  LIG1        0.1895
     38 C           6.8930    8.5248   -0.6037 C.ar    1  LIG1        0.1059
     39 C           5.6524    8.0140   -0.8548 C.ar    1  LIG1        0.1171
     40 O           5.6761    6.6388   -0.7660 O.2     1  LIG1       -0.4541
     41 H           4.6973    8.4560   -1.0867 H       1  LIG1        0.1050
     42 O           9.0787    7.4610   -0.0597 O.3     1  LIG1       -0.4896
     43 C           9.3604    7.8333    1.3041 C.3     1  LIG1        0.0791
     44 H          10.4456    7.9276    1.3799 H       1  LIG1        0.0660
     45 H           8.8858    8.7891    1.5474 H       1  LIG1        0.0660
     46 H           9.0088    7.0592    1.9941 H       1  LIG1        0.0660
     47 N           7.3337    9.8524   -0.5187 N.pl3   1  LIG1       -0.3527
     48 H           8.2778    9.9533   -0.8760 H       1  LIG1        0.1425
     49 H           6.7191   10.5086   -0.9850 H       1  LIG1        0.1425
@<TRIPOS>BOND
     1    23    22    1
     2    41    39    1
     3    49    47    1
     4    48    47    1
     5    39    40   ar
     6    39    38   ar
     7    40    36   ar
     8    31    29    1
     9    22    16    1
    10    21    20    1
    11    38    47    1
    12    38    37   ar
    13    20    15    1
    14    34    33    1
    15    36    37   ar
    16    36    27    1
    17    16    15   ar
    18    16    17   ar
    19    28    27   ar
    20    28    24   ar
    21    37    42    1
    22    27    26   ar
    23    15    14   ar
    24    17    24    1
    25    17    18   ar
    26    35    33    1
    27    24    25   ar
    28    13     7    1
    29    26    25   ar
    30    26    33    1
    31    25    29    1
    32    14    18   ar
    33    14     4    1
    34    18    19    1
    35    42    43    1
    36     7     4   ar
    37     7     6   ar
    38     4     2   ar
    39    29    32    1
    40    29    30    1
    41     8     6    1
    42     6     3   ar
    43     2     5    1
    44     2     1   ar
    45     3     1   ar
    46     3     9    1
    47     1    10    1
    48    10    11    3
    49    11    12    1
    50    43    44    1
    51    43    45    1
    52    43    46    1
