@<TRIPOS>MOLECULE
mol_data/opt/b3lyp/geoms/mol2/4ea4ea.out
 26 27 0 0 0
SMALL
GASTEIGER

@<TRIPOS>ATOM
      1 C          -0.0920    0.1418    0.2843 C.ar    1  LIG1        0.0253
      2 C           1.3075    0.0988    0.4023 C.ar    1  LIG1       -0.0386
      3 C          -0.6988    1.2491   -0.3368 C.ar    1  LIG1       -0.0463
      4 C           2.1051    1.1407   -0.0865 C.ar    1  LIG1       -0.0156
      5 H           1.7672   -0.7527    0.8892 H       1  LIG1        0.0636
      6 C           0.0890    2.2872   -0.8238 C.ar    1  LIG1       -0.0600
      7 C           1.4771    2.2379   -0.6993 C.ar    1  LIG1       -0.0539
      8 H          -0.3793    3.1386   -1.3086 H       1  LIG1        0.0618
      9 H          -1.7792    1.2812   -0.4300 H       1  LIG1        0.0630
     10 C          -0.8907   -0.9276    0.7985 C.1     1  LIG1       -0.0696
     11 C          -1.5696   -1.8305    1.2325 C.1     1  LIG1       -0.1139
     12 H          -2.1652   -2.6260    1.6162 H       1  LIG1        0.1232
     13 H           2.0849    3.0447   -1.0974 H       1  LIG1        0.0624
     14 C           4.3837    0.0052   -0.2858 C.ar    1  LIG1        0.0324
     15 C           5.7799    0.0670   -0.1102 C.ar    1  LIG1       -0.0457
     16 C           3.5855    1.1240    0.0692 C.ar    1  LIG1       -0.0025
     17 C           6.3905    1.2063    0.4013 C.ar    1  LIG1       -0.0606
     18 H           6.3747   -0.7955   -0.3923 H       1  LIG1        0.0630
     19 C           4.2284    2.2621    0.5785 C.ar    1  LIG1       -0.0529
     20 C           5.6104    2.3109    0.7458 C.ar    1  LIG1       -0.0611
     21 H           3.6218    3.1149    0.8677 H       1  LIG1        0.0624
     22 H           7.4683    1.2317    0.5295 H       1  LIG1        0.0618
     23 C           3.8298   -1.1846   -0.8561 C.1     1  LIG1       -0.0691
     24 C           3.4191   -2.2111   -1.3487 C.1     1  LIG1       -0.1139
     25 H           3.0338   -3.1054   -1.7809 H       1  LIG1        0.1232
     26 H           6.0741    3.2053    1.1510 H       1  LIG1        0.0618
@<TRIPOS>BOND
     1    25    24    1
     2    24    23    3
     3     8     6    1
     4    13     7    1
     5    23    14    1
     6     6     7   ar
     7     6     3   ar
     8     7     4   ar
     9     9     3    1
    10    18    15    1
    11     3     1   ar
    12    14    15   ar
    13    14    16   ar
    14    15    17   ar
    15     4    16    1
    16     4     2   ar
    17    16    19   ar
    18     1     2   ar
    19     1    10    1
    20    17    22    1
    21    17    20   ar
    22     2     5    1
    23    19    20   ar
    24    19    21    1
    25    20    26    1
    26    10    11    3
    27    11    12    1
