@<TRIPOS>MOLECULE
mol_data/opt/b3lyp/geoms/mol2/4ea4ea4ea-4ea.out
 50 53 0 0 0
SMALL
GASTEIGER

@<TRIPOS>ATOM
      1 C          -0.3494    0.4346    0.3778 C.ar    1  LIG1        0.0253
      2 C           1.0523    0.3694    0.4530 C.ar    1  LIG1       -0.0386
      3 C          -0.9516    1.2268   -0.6171 C.ar    1  LIG1       -0.0463
      4 C           1.8571    1.0822   -0.4444 C.ar    1  LIG1       -0.0156
      5 H           1.5083   -0.2356    1.2273 H       1  LIG1        0.0636
      6 C          -0.1566    1.9369   -1.5113 C.ar    1  LIG1       -0.0600
      7 C           1.2336    1.8698   -1.4269 C.ar    1  LIG1       -0.0539
      8 H          -0.6215    2.5433   -2.2830 H       1  LIG1        0.0618
      9 H          -2.0337    1.2751   -0.6767 H       1  LIG1        0.0630
     10 C          -1.1545   -0.2925    1.3101 C.1     1  LIG1       -0.0696
     11 C          -1.8388   -0.9060    2.0974 C.1     1  LIG1       -0.1139
     12 H          -2.4389   -1.4462    2.7923 H       1  LIG1        0.1232
     13 H           1.8454    2.4146   -2.1395 H       1  LIG1        0.0624
     14 C           4.0866   -0.1472   -0.2345 C.ar    1  LIG1        0.0329
     15 C           5.4891   -0.0885   -0.1497 C.ar    1  LIG1       -0.0380
     16 C           3.3410    1.0542   -0.3472 C.ar    1  LIG1       -0.0024
     17 C           6.1850    1.1248   -0.1705 C.ar    1  LIG1       -0.0155
     18 H           6.0365   -1.0202   -0.0546 H       1  LIG1        0.0636
     19 C           4.0518    2.2629   -0.3760 C.ar    1  LIG1       -0.0523
     20 C           5.4385    2.3077   -0.2874 C.ar    1  LIG1       -0.0533
     21 H           3.4948    3.1916   -0.4528 H       1  LIG1        0.0624
     22 C           3.4704   -1.4391   -0.2377 C.1     1  LIG1       -0.0690
     23 C           3.0034   -2.5556   -0.2450 C.1     1  LIG1       -0.1139
     24 H           2.5698   -3.5287   -0.2513 H       1  LIG1        0.1232
     25 H           5.9462    3.2651   -0.3129 H       1  LIG1        0.0624
     26 C           8.4077    1.9939    0.7363 C.ar    1  LIG1        0.0329
     27 C           9.8130    1.9446    0.7259 C.ar    1  LIG1       -0.0380
     28 C           7.6701    1.1317   -0.1155 C.ar    1  LIG1       -0.0024
     29 C          10.5200    1.0618   -0.0970 C.ar    1  LIG1       -0.0155
     30 H          10.3538    2.5975    1.4026 H       1  LIG1        0.0636
     31 C           8.3918    0.2492   -0.9330 C.ar    1  LIG1       -0.0523
     32 C           9.7813    0.2068   -0.9296 C.ar    1  LIG1       -0.0533
     33 H           7.8434   -0.3994   -1.6091 H       1  LIG1        0.0624
     34 C           7.7790    2.8953    1.6534 C.1     1  LIG1       -0.0690
     35 C           7.3026    3.6701    2.4521 C.1     1  LIG1       -0.1139
     36 H           6.8646    4.3405    3.1546 H       1  LIG1        0.1232
     37 H          10.2973   -0.4788   -1.5919 H       1  LIG1        0.0624
     38 C          12.7902   -0.1019   -0.0277 C.ar    1  LIG1        0.0324
     39 C          14.1951   -0.0044   -0.0452 C.ar    1  LIG1       -0.0457
     40 C          12.0070    1.0799   -0.1038 C.ar    1  LIG1       -0.0025
     41 C          14.8289    1.2300   -0.1306 C.ar    1  LIG1       -0.0606
     42 H          14.7772   -0.9176    0.0199 H       1  LIG1        0.0630
     43 C          12.6731    2.3122   -0.1840 C.ar    1  LIG1       -0.0529
     44 C          14.0634    2.3948   -0.1975 C.ar    1  LIG1       -0.0611
     45 H          12.0807    3.2188   -0.2595 H       1  LIG1        0.0624
     46 H          15.9133    1.2820   -0.1436 H       1  LIG1        0.0618
     47 C          12.2099   -1.4029    0.1094 C.1     1  LIG1       -0.0691
     48 C          11.7785   -2.5268    0.2364 C.1     1  LIG1       -0.1139
     49 H          11.3796   -3.5077    0.3533 H       1  LIG1        0.1232
     50 H          14.5458    3.3650   -0.2688 H       1  LIG1        0.0618
@<TRIPOS>BOND
     1     8     6    1
     2    13     7    1
     3    33    31    1
     4    37    32    1
     5     6     7   ar
     6     6     3   ar
     7     7     4   ar
     8    31    32   ar
     9    31    28   ar
    10    32    29   ar
    11     9     3    1
    12     3     1   ar
    13    21    19    1
    14     4    16    1
    15     4     2   ar
    16    19    16   ar
    17    19    20   ar
    18    16    14   ar
    19    25    20    1
    20    20    17   ar
    21    50    44    1
    22    45    43    1
    23    24    23    1
    24    23    22    3
    25    22    14    1
    26    14    15   ar
    27    44    43   ar
    28    44    41   ar
    29    43    40   ar
    30    17    15   ar
    31    17    28    1
    32    15    18    1
    33    46    41    1
    34    41    39   ar
    35    28    26   ar
    36    40    29    1
    37    40    38   ar
    38    29    27   ar
    39    39    38   ar
    40    39    42    1
    41    38    47    1
    42    47    48    3
    43    48    49    1
    44     1     2   ar
    45     1    10    1
    46     2     5    1
    47    27    26   ar
    48    27    30    1
    49    26    34    1
    50    10    11    3
    51    34    35    3
    52    11    12    1
    53    35    36    1
