@<TRIPOS>MOLECULE
mol_data/opt/b3lyp/geoms/mol2/4ea4ea4ea4ea.out
 50 53 0 0 0
SMALL
GASTEIGER

@<TRIPOS>ATOM
      1 C          -0.3882    0.7802    0.4633 C.ar    1  LIG1        0.0253
      2 C           1.0051    0.6651    0.6040 C.ar    1  LIG1       -0.0386
      3 C          -0.9305    1.1159   -0.7910 C.ar    1  LIG1       -0.0463
      4 C           1.8608    0.8815   -0.4833 C.ar    1  LIG1       -0.0156
      5 H           1.4150    0.4145    1.5748 H       1  LIG1        0.0636
      6 C          -0.0850    1.3321   -1.8746 C.ar    1  LIG1       -0.0600
      7 C           1.2968    1.2193   -1.7252 C.ar    1  LIG1       -0.0539
      8 H          -0.5038    1.5849   -2.8442 H       1  LIG1        0.0618
      9 H          -2.0063    1.2023   -0.9001 H       1  LIG1        0.0630
     10 C          -1.2452    0.5652    1.5882 C.1     1  LIG1       -0.0696
     11 C          -1.9733    0.3841    2.5377 C.1     1  LIG1       -0.1139
     12 H          -2.6121    0.2253    3.3752 H       1  LIG1        0.1232
     13 H           1.9474    1.3728   -2.5808 H       1  LIG1        0.0624
     14 C           3.9997   -0.2794    0.2985 C.ar    1  LIG1        0.0329
     15 C           5.4024   -0.2835    0.3943 C.ar    1  LIG1       -0.0380
     16 C           3.3389    0.8042   -0.3365 C.ar    1  LIG1       -0.0024
     17 C           6.1813    0.7568   -0.1224 C.ar    1  LIG1       -0.0155
     18 H           5.8795   -1.1225    0.8856 H       1  LIG1        0.0636
     19 C           4.1320    1.8380   -0.8540 C.ar    1  LIG1       -0.0523
     20 C           5.5186    1.8235   -0.7502 C.ar    1  LIG1       -0.0533
     21 H           3.6428    2.6802   -1.3337 H       1  LIG1        0.0624
     22 C           3.2930   -1.4052    0.8297 C.1     1  LIG1       -0.0690
     23 C           2.7470   -2.3836    1.2874 C.1     1  LIG1       -0.1139
     24 H           2.2460   -3.2354    1.6853 H       1  LIG1        0.1232
     25 H           6.0964    2.6402   -1.1720 H       1  LIG1        0.0624
     26 C           8.4823   -0.3431   -0.2892 C.ar    1  LIG1        0.0329
     27 C           9.8764   -0.2479   -0.1349 C.ar    1  LIG1       -0.0380
     28 C           7.6609    0.7731    0.0179 C.ar    1  LIG1       -0.0024
     29 C          10.4919    0.9243    0.3148 C.ar    1  LIG1       -0.0155
     30 H          10.4786   -1.1156   -0.3748 H       1  LIG1        0.0636
     31 C           8.2916    1.9434    0.4636 C.ar    1  LIG1       -0.0523
     32 C           9.6717    2.0234    0.6143 C.ar    1  LIG1       -0.0533
     33 H           7.6785    2.8036    0.7144 H       1  LIG1        0.0624
     34 C           7.9506   -1.5746   -0.7887 C.1     1  LIG1       -0.0690
     35 C           7.5557   -2.6337   -1.2212 C.1     1  LIG1       -0.1139
     36 H           7.1863   -3.5586   -1.5994 H       1  LIG1        0.1232
     37 H          10.1213    2.9509    0.9554 H       1  LIG1        0.0624
     38 C          12.8995    0.5837   -0.4622 C.ar    1  LIG1        0.0324
     39 C          14.2780    0.6930   -0.1951 C.ar    1  LIG1       -0.0457
     40 C          11.9630    1.0078    0.5171 C.ar    1  LIG1       -0.0025
     41 C          14.7379    1.2137    1.0091 C.ar    1  LIG1       -0.0606
     42 H          14.9791    0.3689   -0.9570 H       1  LIG1        0.0630
     43 C          12.4550    1.5349    1.7207 C.ar    1  LIG1       -0.0529
     44 C          13.8212    1.6394    1.9713 C.ar    1  LIG1       -0.0611
     45 H          11.7445    1.8454    2.4806 H       1  LIG1        0.0624
     46 H          15.8051    1.2877    1.1945 H       1  LIG1        0.0618
     47 C          12.5002    0.0790   -1.7403 C.1     1  LIG1       -0.0691
     48 C          12.2210   -0.3460   -2.8387 C.1     1  LIG1       -0.1139
     49 H          11.9509   -0.7184   -3.7996 H       1  LIG1        0.1232
     50 H          14.1672    2.0438    2.9178 H       1  LIG1        0.0618
@<TRIPOS>BOND
     1    49    48    1
     2     8     6    1
     3    48    47    3
     4    13     7    1
     5     6     7   ar
     6     6     3   ar
     7    47    38    1
     8     7     4   ar
     9    36    35    1
    10    21    19    1
    11    35    34    3
    12    25    20    1
    13    42    39    1
    14     9     3    1
    15    19    20   ar
    16    19    16   ar
    17     3     1   ar
    18    34    26    1
    19    20    17   ar
    20     4    16    1
    21     4     2   ar
    22    38    39   ar
    23    38    40   ar
    24    30    27    1
    25    16    14   ar
    26    26    27   ar
    27    26    28   ar
    28    39    41   ar
    29    27    29   ar
    30    17    28    1
    31    17    15   ar
    32    28    31   ar
    33    14    15   ar
    34    14    22    1
    35    29    40    1
    36    29    32   ar
    37    15    18    1
    38     1     2   ar
    39     1    10    1
    40    31    32   ar
    41    31    33    1
    42    40    43   ar
    43     2     5    1
    44    32    37    1
    45    22    23    3
    46    41    46    1
    47    41    44   ar
    48    23    24    1
    49    10    11    3
    50    43    44   ar
    51    43    45    1
    52    44    50    1
    53    11    12    1
