@<TRIPOS>MOLECULE
mol_data/opt/b3lyp/geoms/mol2/4ea4ea4ea-4ea-.out
 50 53 0 0 0
SMALL
GASTEIGER

@<TRIPOS>ATOM
      1 C          -0.3329    0.3297    0.3786 C.ar    1  LIG1        0.0253
      2 C           1.0696    0.2917    0.4568 C.ar    1  LIG1       -0.0386
      3 C          -0.9484    1.1216   -0.6083 C.ar    1  LIG1       -0.0463
      4 C           1.8622    1.0307   -0.4303 C.ar    1  LIG1       -0.0156
      5 H           1.5357   -0.3130    1.2252 H       1  LIG1        0.0636
      6 C          -0.1657    1.8583   -1.4918 C.ar    1  LIG1       -0.0600
      7 C           1.2254    1.8176   -1.4047 C.ar    1  LIG1       -0.0539
      8 H          -0.6407    2.4647   -2.2571 H       1  LIG1        0.0618
      9 H          -2.0311    1.1492   -0.6701 H       1  LIG1        0.0630
     10 C          -1.1256   -0.4246    1.2998 C.1     1  LIG1       -0.0696
     11 C          -1.7993   -1.0617    2.0775 C.1     1  LIG1       -0.1139
     12 H          -2.3902   -1.6224    2.7639 H       1  LIG1        0.1232
     13 H           1.8280    2.3831   -2.1090 H       1  LIG1        0.0624
     14 C           4.1144   -0.1575   -0.2239 C.ar    1  LIG1        0.0329
     15 C           5.5153   -0.0721   -0.1351 C.ar    1  LIG1       -0.0380
     16 C           3.3462    1.0302   -0.3301 C.ar    1  LIG1       -0.0024
     17 C           6.1883    1.1541   -0.1472 C.ar    1  LIG1       -0.0155
     18 H           6.0800   -0.9939   -0.0443 H       1  LIG1        0.0636
     19 C           4.0341    2.2524   -0.3495 C.ar    1  LIG1       -0.0523
     20 C           5.4195    2.3233   -0.2585 C.ar    1  LIG1       -0.0533
     21 H           3.4596    3.1708   -0.4211 H       1  LIG1        0.0624
     22 C           3.5242   -1.4613   -0.2379 C.1     1  LIG1       -0.0690
     23 C           3.0809   -2.5874   -0.2547 C.1     1  LIG1       -0.1139
     24 H           2.6672   -3.5691   -0.2695 H       1  LIG1        0.1232
     25 H           5.9089    3.2902   -0.2774 H       1  LIG1        0.0624
     26 C           8.3942    2.0649    0.7626 C.ar    1  LIG1        0.0329
     27 C           9.7999    2.0479    0.7548 C.ar    1  LIG1       -0.0380
     28 C           7.6728    1.1888   -0.0902 C.ar    1  LIG1       -0.0024
     29 C          10.5236    1.1814   -0.0703 C.ar    1  LIG1       -0.0155
     30 H          10.3242    2.7170    1.4262 H       1  LIG1        0.0636
     31 C           8.4110    0.3208   -0.9074 C.ar    1  LIG1       -0.0523
     32 C           9.8015    0.3098   -0.9008 C.ar    1  LIG1       -0.0533
     33 H           7.8770   -0.3391   -1.5839 H       1  LIG1        0.0624
     34 C           7.7454    2.9476    1.6843 C.1     1  LIG1       -0.0690
     35 C           7.2505    3.7057    2.4876 C.1     1  LIG1       -0.1139
     36 H           6.7980    4.3618    3.1945 H       1  LIG1        0.1232
     37 H          10.3354   -0.3594   -1.5686 H       1  LIG1        0.0624
     38 C          12.8145    2.3066   -0.1207 C.ar    1  LIG1        0.0324
     39 C          14.2173    2.1834   -0.0950 C.ar    1  LIG1       -0.0457
     40 C          12.0098    1.1390   -0.0495 C.ar    1  LIG1       -0.0025
     41 C          14.8283    0.9379   -0.0060 C.ar    1  LIG1       -0.0606
     42 H          14.8162    3.0860   -0.1560 H       1  LIG1        0.0630
     43 C          12.6532   -0.1052    0.0344 C.ar    1  LIG1       -0.0529
     44 C          14.0416   -0.2131    0.0567 C.ar    1  LIG1       -0.0611
     45 H          12.0441   -1.0010    0.1065 H       1  LIG1        0.0624
     46 H          15.9114    0.8664    0.0134 H       1  LIG1        0.0618
     47 C          12.2580    3.6177   -0.2585 C.1     1  LIG1       -0.0691
     48 C          11.8464    4.7489   -0.3849 C.1     1  LIG1       -0.1139
     49 H          11.4615    5.7362   -0.4954 H       1  LIG1        0.1232
     50 H          14.5060   -1.1918    0.1311 H       1  LIG1        0.0618
@<TRIPOS>BOND
     1     8     6    1
     2    13     7    1
     3    33    31    1
     4    37    32    1
     5     6     7   ar
     6     6     3   ar
     7     7     4   ar
     8    31    32   ar
     9    31    28   ar
    10    32    29   ar
    11     9     3    1
    12     3     1   ar
    13    49    48    1
    14     4    16    1
    15     4     2   ar
    16    21    19    1
    17    48    47    3
    18    19    16   ar
    19    19    20   ar
    20    16    14   ar
    21    25    20    1
    22    24    23    1
    23    47    38    1
    24    20    17   ar
    25    23    22    3
    26    22    14    1
    27    14    15   ar
    28    42    39    1
    29    17    15   ar
    30    17    28    1
    31    15    18    1
    32    38    39   ar
    33    38    40   ar
    34    39    41   ar
    35    28    26   ar
    36    29    40    1
    37    29    27   ar
    38    40    43   ar
    39    41    46    1
    40    41    44   ar
    41    43    44   ar
    42    43    45    1
    43    44    50    1
    44     1     2   ar
    45     1    10    1
    46     2     5    1
    47    27    26   ar
    48    27    30    1
    49    26    34    1
    50    10    11    3
    51    34    35    3
    52    11    12    1
    53    35    36    1
