@<TRIPOS>MOLECULE
mol_data/opt/b3lyp/geoms/mol2/4ea4ea4ea.out
 38 40 0 0 0
SMALL
GASTEIGER

@<TRIPOS>ATOM
      1 C          -0.2610    0.3921    0.4413 C.ar    1  LIG1        0.0253
      2 C           1.1362    0.3097    0.5660 C.ar    1  LIG1       -0.0386
      3 C          -0.8178    1.1848   -0.5792 C.ar    1  LIG1       -0.0463
      4 C           1.9811    1.0055   -0.3075 C.ar    1  LIG1       -0.0156
      5 H           1.5568   -0.2959    1.3596 H       1  LIG1        0.0636
      6 C           0.0170    1.8783   -1.4498 C.ar    1  LIG1       -0.0600
      7 C           1.4025    1.7937   -1.3167 C.ar    1  LIG1       -0.0539
      8 H          -0.4127    2.4849   -2.2414 H       1  LIG1        0.0618
      9 H          -1.8964    1.2465   -0.6769 H       1  LIG1        0.0630
     10 C          -1.1077   -0.3180    1.3496 C.1     1  LIG1       -0.0696
     11 C          -1.8271   -0.9170    2.1165 C.1     1  LIG1       -0.1139
     12 H          -2.4583   -1.4445    2.7933 H       1  LIG1        0.1232
     13 H           2.0459    2.3242   -2.0120 H       1  LIG1        0.0624
     14 C           4.1875   -0.2488   -0.0018 C.ar    1  LIG1        0.0329
     15 C           5.5869   -0.2106    0.1295 C.ar    1  LIG1       -0.0380
     16 C           3.4605    0.9599   -0.1587 C.ar    1  LIG1       -0.0024
     17 C           6.2981    0.9931    0.1091 C.ar    1  LIG1       -0.0155
     18 H           6.1159   -1.1481    0.2492 H       1  LIG1        0.0636
     19 C           4.1866    2.1590   -0.1822 C.ar    1  LIG1       -0.0523
     20 C           5.5706    2.1832   -0.0488 C.ar    1  LIG1       -0.0533
     21 H           3.6453    3.0939   -0.2903 H       1  LIG1        0.0624
     22 C           3.5538   -1.5325   -0.0012 C.1     1  LIG1       -0.0690
     23 C           3.0714   -2.6424   -0.0027 C.1     1  LIG1       -0.1139
     24 H           2.6260   -3.6102   -0.0047 H       1  LIG1        0.1232
     25 H           6.0964    3.1326   -0.0797 H       1  LIG1        0.0624
     26 C           8.6628    0.1972   -0.4324 C.ar    1  LIG1        0.0324
     27 C          10.0487    0.2956   -0.2018 C.ar    1  LIG1       -0.0457
     28 C           7.7736    1.0344    0.2916 C.ar    1  LIG1       -0.0025
     29 C          10.5620    1.2018    0.7190 C.ar    1  LIG1       -0.0606
     30 H          10.7134   -0.3483   -0.7681 H       1  LIG1        0.0630
     31 C           8.3193    1.9436    1.2104 C.ar    1  LIG1       -0.0529
     32 C           9.6924    2.0323    1.4272 C.ar    1  LIG1       -0.0611
     33 H           7.6441    2.5750    1.7798 H       1  LIG1        0.0624
     34 H          11.6339    1.2600    0.8818 H       1  LIG1        0.0618
     35 C           8.2108   -0.7267   -1.4272 C.1     1  LIG1       -0.0691
     36 C           7.8874   -1.5177   -2.2844 C.1     1  LIG1       -0.1139
     37 H           7.5783   -2.2081   -3.0346 H       1  LIG1        0.1232
     38 H          10.0798    2.7414    2.1526 H       1  LIG1        0.0618
@<TRIPOS>BOND
     1    37    36    1
     2    36    35    3
     3     8     6    1
     4    13     7    1
     5     6     7   ar
     6     6     3   ar
     7    35    26    1
     8     7     4   ar
     9    30    27    1
    10     9     3    1
    11     3     1   ar
    12    26    27   ar
    13    26    28   ar
    14     4    16    1
    15     4     2   ar
    16    21    19    1
    17    27    29   ar
    18    19    16   ar
    19    19    20   ar
    20    16    14   ar
    21    25    20    1
    22    20    17   ar
    23    24    23    1
    24    23    22    3
    25    14    22    1
    26    14    15   ar
    27    17    15   ar
    28    17    28    1
    29    15    18    1
    30    28    31   ar
    31     1     2   ar
    32     1    10    1
    33     2     5    1
    34    29    34    1
    35    29    32   ar
    36    31    32   ar
    37    31    33    1
    38    10    11    3
    39    32    38    1
    40    11    12    1
