@<TRIPOS>MOLECULE
mol_data/opt/b3lyp/geoms/mol2/4ea4ea-4ea4ea.out
 50 53 0 0 0
SMALL
GASTEIGER

@<TRIPOS>ATOM
      1 C          -0.3189    0.2024    0.0238 C.ar    1  LIG1        0.0253
      2 C           1.0819    0.1938    0.1390 C.ar    1  LIG1       -0.0386
      3 C          -0.9513    1.3133   -0.5628 C.ar    1  LIG1       -0.0463
      4 C           1.8552    1.2701   -0.3152 C.ar    1  LIG1       -0.0156
      5 H           1.5649   -0.6576    0.6067 H       1  LIG1        0.0636
      6 C          -0.1874    2.3842   -1.0179 C.ar    1  LIG1       -0.0600
      7 C           1.2012    2.3688   -0.8967 C.ar    1  LIG1       -0.0539
      8 H          -0.6772    3.2377   -1.4772 H       1  LIG1        0.0618
      9 H          -2.0322    1.3238   -0.6545 H       1  LIG1        0.0630
     10 C          -1.0885   -0.9043    0.5015 C.1     1  LIG1       -0.0696
     11 C          -1.7412   -1.8406    0.9039 C.1     1  LIG1       -0.1139
     12 H          -2.3153   -2.6643    1.2599 H       1  LIG1        0.1232
     13 H           1.7843    3.2054   -1.2642 H       1  LIG1        0.0624
     14 C           4.1251    2.2776    0.2834 C.ar    1  LIG1        0.0329
     15 C           5.5234    2.1414    0.3431 C.ar    1  LIG1       -0.0380
     16 C           3.3376    1.2073   -0.2135 C.ar    1  LIG1       -0.0024
     17 C           6.1753    0.9732   -0.0661 C.ar    1  LIG1       -0.0155
     18 H           6.1017    2.9646    0.7488 H       1  LIG1        0.0636
     19 C           4.0039    0.0410   -0.6178 C.ar    1  LIG1       -0.0523
     20 C           5.3867   -0.0834   -0.5478 C.ar    1  LIG1       -0.0533
     21 H           3.4178   -0.7777   -1.0238 H       1  LIG1        0.0624
     22 C           3.5524    3.4928    0.7778 C.1     1  LIG1       -0.0690
     23 C           3.1253    4.5373    1.2156 C.1     1  LIG1       -0.1139
     24 H           2.7295    5.4470    1.6036 H       1  LIG1        0.1232
     25 H           5.8599   -0.9971   -0.8886 H       1  LIG1        0.0624
     26 C           8.3597   -0.2236    0.4984 C.ar    1  LIG1        0.0329
     27 C           9.7654   -0.2296    0.4980 C.ar    1  LIG1       -0.0380
     28 C           7.6585    0.8953   -0.0228 C.ar    1  LIG1       -0.0024
     29 C          10.5089    0.8455    0.0010 C.ar    1  LIG1       -0.0155
     30 H          10.2739   -1.0898    0.9160 H       1  LIG1        0.0636
     31 C           8.4163    1.9693   -0.5113 C.ar    1  LIG1       -0.0523
     32 C           9.8066    1.9529   -0.5005 C.ar    1  LIG1       -0.0533
     33 H           7.8973    2.8233   -0.9353 H       1  LIG1        0.0624
     34 C           7.6906   -1.3468    1.0816 C.1     1  LIG1       -0.0690
     35 C           7.1791   -2.3166    1.5943 C.1     1  LIG1       -0.1139
     36 H           6.7126   -3.1597    2.0487 H       1  LIG1        0.1232
     37 H          10.3558    2.7939   -0.9128 H       1  LIG1        0.0624
     38 C          12.7823   -0.2434   -0.4040 C.ar    1  LIG1        0.0324
     39 C          14.1866   -0.1599   -0.3358 C.ar    1  LIG1       -0.0457
     40 C          11.9955    0.8530    0.0373 C.ar    1  LIG1       -0.0025
     41 C          14.8165    0.9797    0.1511 C.ar    1  LIG1       -0.0606
     42 H          14.7717   -1.0053   -0.6824 H       1  LIG1        0.0630
     43 C          12.6578    1.9923    0.5191 C.ar    1  LIG1       -0.0529
     44 C          14.0475    2.0629    0.5787 C.ar    1  LIG1       -0.0611
     45 H          12.0626    2.8277    0.8748 H       1  LIG1        0.0624
     46 H          15.9004    1.0220    0.1957 H       1  LIG1        0.0618
     47 C          12.2071   -1.4306   -0.9585 C.1     1  LIG1       -0.0691
     48 C          11.7802   -2.4539   -1.4439 C.1     1  LIG1       -0.1139
     49 H          11.3816   -3.3464   -1.8677 H       1  LIG1        0.1232
     50 H          14.5266    2.9572    0.9658 H       1  LIG1        0.0618
@<TRIPOS>BOND
     1    49    48    1
     2     8     6    1
     3    48    47    3
     4    13     7    1
     5    21    19    1
     6     6     7   ar
     7     6     3   ar
     8    47    38    1
     9    33    31    1
    10    37    32    1
    11     7     4   ar
    12    25    20    1
    13    42    39    1
    14     9     3    1
    15    19    20   ar
    16    19    16   ar
    17     3     1   ar
    18    20    17   ar
    19    31    32   ar
    20    31    28   ar
    21    32    29   ar
    22    38    39   ar
    23    38    40   ar
    24    39    41   ar
    25     4    16    1
    26     4     2   ar
    27    16    14   ar
    28    17    28    1
    29    17    15   ar
    30    28    26   ar
    31    29    40    1
    32    29    27   ar
    33     1     2   ar
    34     1    10    1
    35    40    43   ar
    36     2     5    1
    37    41    46    1
    38    41    44   ar
    39    14    15   ar
    40    14    22    1
    41    15    18    1
    42    27    26   ar
    43    27    30    1
    44    26    34    1
    45    10    11    3
    46    43    44   ar
    47    43    45    1
    48    44    50    1
    49    22    23    3
    50    11    12    1
    51    34    35    3
    52    23    24    1
    53    35    36    1
