@<TRIPOS>MOLECULE
mol_data/opt/b3lyp/geoms/mol2/4ea4ih-12ee-12al.out
 51 54 0 0 0
SMALL
GASTEIGER

@<TRIPOS>ATOM
      1 C          -0.2319    0.2860   -0.7440 C.ar    1  LIG1        0.0253
      2 C           1.1738    0.2827   -0.7312 C.ar    1  LIG1       -0.0386
      3 C          -0.9278    0.9868    0.2581 C.ar    1  LIG1       -0.0463
      4 C           1.8922    0.9646    0.2585 C.ar    1  LIG1       -0.0164
      5 H           1.7023   -0.2423   -1.5189 H       1  LIG1        0.0636
      6 C          -0.2202    1.6690    1.2432 C.ar    1  LIG1       -0.0600
      7 C           1.1747    1.6621    1.2449 C.ar    1  LIG1       -0.0539
      8 H          -0.7580    2.2069    2.0184 H       1  LIG1        0.0618
      9 H          -2.0126    0.9882    0.2516 H       1  LIG1        0.0630
     10 C          -0.9443   -0.4110   -1.7699 C.1     1  LIG1       -0.0696
     11 C          -1.5483   -1.0008   -2.6369 C.1     1  LIG1       -0.1139
     12 H          -2.0790   -1.5200   -3.4009 H       1  LIG1        0.1232
     13 H           1.7197    2.1864    2.0239 H       1  LIG1        0.0624
     14 C           4.1716   -0.1845    0.2456 C.ar    1  LIG1       -0.0420
     15 C           5.5538   -0.0330    0.2525 C.ar    1  LIG1       -0.0458
     16 C           3.3833    0.9922    0.2560 C.ar    1  LIG1       -0.0132
     17 C           6.2109    1.2133    0.2698 C.ar    1  LIG1        0.0394
     18 H           6.1669   -0.9268    0.2472 H       1  LIG1        0.0628
     19 C           4.0157    2.2355    0.2774 C.ar    1  LIG1       -0.0324
     20 C           5.4123    2.3933    0.2803 C.ar    1  LIG1        0.0360
     21 H           3.4010    3.1323    0.2752 H       1  LIG1        0.0642
     22 C           3.5786   -1.5765    0.2574 C.3     1  LIG1       -0.0391
     23 H           4.3158   -2.2997    0.6171 H       1  LIG1        0.0278
     24 H           3.2634   -1.9071   -0.7396 H       1  LIG1        0.0278
     25 H           2.6997   -1.6392    0.9053 H       1  LIG1        0.0278
     26 N           5.9357    3.6720    0.3584 N.pl3   1  LIG1       -0.3574
     27 H           6.8786    3.8168    0.0340 H       1  LIG1        0.1423
     28 H           5.2952    4.4182    0.1338 H       1  LIG1        0.1423
     29 C           7.6651    1.2338    0.2918 C.ar    1  LIG1        0.1541
     30 C           8.6418    0.3031    0.6164 C.ar    1  LIG1        0.0865
     31 C           9.9230    0.9508    0.4053 C.ar    1  LIG1        0.0894
     32 C           9.6407    2.2306   -0.0255 C.ar    1  LIG1        0.1872
     33 O           8.2885    2.3951   -0.0973 O.2     1  LIG1       -0.4491
     34 C           8.4892   -1.0183    1.0988 C.1     1  LIG1       -0.0646
     35 C           8.4081   -2.1526    1.5144 C.1     1  LIG1       -0.1138
     36 H           8.3322   -3.1464    1.8902 H       1  LIG1        0.1232
     37 C          11.2006    0.3835    0.6140 C.1     1  LIG1       -0.0645
     38 C          12.2935   -0.1064    0.7927 C.1     1  LIG1       -0.1138
     39 H          13.2461   -0.5539    0.9572 H       1  LIG1        0.1232
     40 C          10.4584    3.3514   -0.3824 C.ar    1  LIG1        0.1746
     41 C          11.8220    3.5195   -0.4579 C.ar    1  LIG1        0.0291
     42 C          12.0216    4.8740   -0.8687 C.ar    1  LIG1        0.1583
     43 C          10.7800    5.4351   -1.0150 C.ar    1  LIG1        0.1342
     44 O           9.8179    4.5084   -0.7189 O.2     1  LIG1       -0.4560
     45 H          10.4427    6.4158   -1.3043 H       1  LIG1        0.1068
     46 H          12.5608    2.7638   -0.2447 H       1  LIG1        0.0693
     47 O          13.1793    5.5444   -1.0918 O.3     1  LIG1       -0.4919
     48 C          14.3783    4.8058   -0.8949 C.3     1  LIG1        0.0789
     49 H          15.1974    5.4919   -1.1140 H       1  LIG1        0.0660
     50 H          14.4679    4.4543    0.1407 H       1  LIG1        0.0660
     51 H          14.4357    3.9453   -1.5734 H       1  LIG1        0.0660
@<TRIPOS>BOND
     1    12    11    1
     2    11    10    3
     3    10     1    1
     4    51    48    1
     5     5     2    1
     6    45    43    1
     7    49    48    1
     8    47    48    1
     9    47    42    1
    10    43    42   ar
    11    43    44   ar
    12    48    50    1
    13    42    41   ar
    14     1     2   ar
    15     1     3   ar
    16    24    22    1
    17     2     4   ar
    18    44    40   ar
    19    41    40   ar
    20    41    46    1
    21    40    32    1
    22    33    32   ar
    23    33    29   ar
    24    32    31   ar
    25    27    26    1
    26    28    26    1
    27    14    15   ar
    28    14    16   ar
    29    14    22    1
    30    18    15    1
    31     9     3    1
    32    15    17   ar
    33    16     4    1
    34    16    19   ar
    35    22    23    1
    36    22    25    1
    37     3     6   ar
    38     4     7   ar
    39    17    20   ar
    40    17    29    1
    41    21    19    1
    42    19    20   ar
    43    20    26    1
    44    29    30   ar
    45    31    37    1
    46    31    30   ar
    47    37    38    3
    48    30    34    1
    49    38    39    1
    50    34    35    3
    51     6     7   ar
    52     6     8    1
    53     7    13    1
    54    35    36    1
