@<TRIPOS>MOLECULE
mol_data/opt/b3lyp/geoms/mol2/4ea4ea-4ea4ea-.out
 50 53 0 0 0
SMALL
GASTEIGER

@<TRIPOS>ATOM
      1 C          -0.2971    0.1045    0.0445 C.ar    1  LIG1        0.0253
      2 C           1.1053    0.1260    0.1355 C.ar    1  LIG1       -0.0386
      3 C          -0.9639    1.2049   -0.5236 C.ar    1  LIG1       -0.0463
      4 C           1.8469    1.2219   -0.3249 C.ar    1  LIG1       -0.0156
      5 H           1.6147   -0.7175    0.5892 H       1  LIG1        0.0636
      6 C          -0.2318    2.2953   -0.9845 C.ar    1  LIG1       -0.0600
      7 C           1.1588    2.3097   -0.8873 C.ar    1  LIG1       -0.0539
      8 H          -0.7480    3.1409   -1.4291 H       1  LIG1        0.0618
      9 H          -2.0461    1.1920   -0.5966 H       1  LIG1        0.0630
     10 C          -1.0339   -1.0220    0.5277 C.1     1  LIG1       -0.0696
     11 C          -1.6588   -1.9750    0.9349 C.1     1  LIG1       -0.1139
     12 H          -2.2082   -2.8136    1.2950 H       1  LIG1        0.1232
     13 H           1.7168    3.1615   -1.2589 H       1  LIG1        0.0624
     14 C           4.1049    2.2746    0.2400 C.ar    1  LIG1        0.0329
     15 C           5.5068    2.1694    0.2724 C.ar    1  LIG1       -0.0380
     16 C           3.3318    1.1908   -0.2500 C.ar    1  LIG1       -0.0024
     17 C           6.1766    1.0190   -0.1578 C.ar    1  LIG1       -0.0155
     18 H           6.0740    3.0026    0.6735 H       1  LIG1        0.0636
     19 C           4.0160    0.0423   -0.6752 C.ar    1  LIG1       -0.0523
     20 C           5.4023   -0.0515   -0.6321 C.ar    1  LIG1       -0.0533
     21 H           3.4409   -0.7863   -1.0765 H       1  LIG1        0.0624
     22 C           3.5151    3.4736    0.7537 C.1     1  LIG1       -0.0690
     23 C           3.0745    4.5057    1.2072 C.1     1  LIG1       -0.1139
     24 H           2.6667    5.4040    1.6092 H       1  LIG1        0.1232
     25 H           5.8888   -0.9520   -0.9888 H       1  LIG1        0.0624
     26 C           8.3982   -0.1316    0.3522 C.ar    1  LIG1        0.0329
     27 C           9.8037   -0.0994    0.3228 C.ar    1  LIG1       -0.0380
     28 C           7.6616    0.9746   -0.1447 C.ar    1  LIG1       -0.0024
     29 C          10.5124    0.9985   -0.1762 C.ar    1  LIG1       -0.0155
     30 H          10.3444   -0.9475    0.7293 H       1  LIG1        0.0636
     31 C           8.3851    2.0703   -0.6388 C.ar    1  LIG1       -0.0523
     32 C           9.7749    2.0918   -0.6566 C.ar    1  LIG1       -0.0533
     33 H           7.8369    2.9142   -1.0460 H       1  LIG1        0.0624
     34 C           7.7704   -1.2789    0.9338 C.1     1  LIG1       -0.0690
     35 C           7.2962   -2.2694    1.4431 C.1     1  LIG1       -0.1139
     36 H           6.8605   -3.1301    1.8949 H       1  LIG1        0.1232
     37 H          10.2914    2.9526   -1.0654 H       1  LIG1        0.0624
     38 C          12.8066    2.0459    0.2142 C.ar    1  LIG1        0.0324
     39 C          14.2087    1.9416    0.1303 C.ar    1  LIG1       -0.0457
     40 C          11.9982    0.9649   -0.2260 C.ar    1  LIG1       -0.0025
     41 C          14.8157    0.7959   -0.3711 C.ar    1  LIG1       -0.0606
     42 H          14.8104    2.7753    0.4767 H       1  LIG1        0.0630
     43 C          12.6377   -0.1809   -0.7230 C.ar    1  LIG1       -0.0529
     44 C          14.0255   -0.2724   -0.7975 C.ar    1  LIG1       -0.0611
     45 H          12.0259   -1.0045   -1.0777 H       1  LIG1        0.0624
     46 H          15.8983    0.7371   -0.4275 H       1  LIG1        0.0618
     47 C          12.2567    3.2375    0.7852 C.1     1  LIG1       -0.0691
     48 C          11.8532    4.2635    1.2849 C.1     1  LIG1       -0.1139
     49 H          11.4781    5.1572    1.7272 H       1  LIG1        0.1232
     50 H          14.4866   -1.1714   -1.1952 H       1  LIG1        0.0618
@<TRIPOS>BOND
     1     8     6    1
     2    13     7    1
     3    50    44    1
     4    45    43    1
     5    21    19    1
     6    37    32    1
     7    33    31    1
     8    25    20    1
     9     6     7   ar
    10     6     3   ar
    11     7     4   ar
    12    44    43   ar
    13    44    41   ar
    14    43    40   ar
    15    19    20   ar
    16    19    16   ar
    17    32    31   ar
    18    32    29   ar
    19    31    28   ar
    20    20    17   ar
    21     9     3    1
    22     3     1   ar
    23    46    41    1
    24    41    39   ar
    25     4    16    1
    26     4     2   ar
    27    16    14   ar
    28    40    29    1
    29    40    38   ar
    30    29    27   ar
    31    17    28    1
    32    17    15   ar
    33    28    26   ar
    34     1     2   ar
    35     1    10    1
    36    39    38   ar
    37    39    42    1
    38     2     5    1
    39    38    47    1
    40    14    15   ar
    41    14    22    1
    42    15    18    1
    43    27    26   ar
    44    27    30    1
    45    26    34    1
    46    10    11    3
    47    22    23    3
    48    47    48    3
    49    34    35    3
    50    11    12    1
    51    23    24    1
    52    48    49    1
    53    35    36    1
