@<TRIPOS>MOLECULE
mol_data/opt/b3lyp/geoms/mol2/4ea4ea-4ea-4ea-.out
 50 53 0 0 0
SMALL
GASTEIGER

@<TRIPOS>ATOM
      1 C          -0.2233   -0.0161   -0.3217 C.ar    1  LIG1        0.0253
      2 C           1.1756    0.0516   -0.2033 C.ar    1  LIG1       -0.0386
      3 C          -0.9627    1.1775   -0.4027 C.ar    1  LIG1       -0.0463
      4 C           1.8429    1.2827   -0.1612 C.ar    1  LIG1       -0.0156
      5 H           1.7407   -0.8711   -0.1245 H       1  LIG1        0.0636
      6 C          -0.3044    2.4033   -0.3636 C.ar    1  LIG1       -0.0600
      7 C           1.0832    2.4613   -0.2427 C.ar    1  LIG1       -0.0539
      8 H          -0.8764    3.3238   -0.4336 H       1  LIG1        0.0618
      9 H          -2.0426    1.1299   -0.4949 H       1  LIG1        0.0630
     10 C          -0.8833   -1.2845   -0.3549 C.1     1  LIG1       -0.0696
     11 C          -1.4425   -2.3573   -0.3843 C.1     1  LIG1       -0.1139
     12 H          -1.9346   -3.3018   -0.4088 H       1  LIG1        0.1232
     13 H           1.5836    3.4226   -0.2231 H       1  LIG1        0.0624
     14 C           4.0332    2.1479    0.8302 C.ar    1  LIG1        0.0329
     15 C           5.4388    2.1293    0.8481 C.ar    1  LIG1       -0.0380
     16 C           3.3273    1.3145   -0.0764 C.ar    1  LIG1       -0.0024
     17 C           6.1775    1.3014   -0.0032 C.ar    1  LIG1       -0.0155
     18 H           5.9503    2.7649    1.5606 H       1  LIG1        0.0636
     19 C           4.0801    0.4852   -0.9198 C.ar    1  LIG1       -0.0523
     20 C           5.4703    0.4712   -0.8875 C.ar    1  LIG1       -0.0533
     21 H           3.5581   -0.1421   -1.6357 H       1  LIG1        0.0624
     22 C           3.3678    2.9871    1.7803 C.1     1  LIG1       -0.0690
     23 C           2.8593    3.7073    2.6096 C.1     1  LIG1       -0.1139
     24 H           2.3949    4.3307    3.3379 H       1  LIG1        0.1232
     25 H           6.0160   -0.1671   -1.5756 H       1  LIG1        0.0624
     26 C           8.4758    2.4161    0.0449 C.ar    1  LIG1        0.0329
     27 C           9.8753    2.2892    0.0901 C.ar    1  LIG1       -0.0380
     28 C           7.6620    1.2532    0.0452 C.ar    1  LIG1       -0.0024
     29 C          10.5025    1.0404    0.1351 C.ar    1  LIG1       -0.0155
     30 H          10.4721    3.1931    0.0902 H       1  LIG1        0.0636
     31 C           8.3042    0.0075    0.0843 C.ar    1  LIG1       -0.0523
     32 C           9.6894   -0.1039    0.1323 C.ar    1  LIG1       -0.0533
     33 H           7.6968   -0.8923    0.0961 H       1  LIG1        0.0624
     34 C           7.9287    3.7365   -0.0323 C.1     1  LIG1       -0.0690
     35 C           7.5208    4.8737   -0.1051 C.1     1  LIG1       -0.1139
     36 H           7.1415    5.8672   -0.1683 H       1  LIG1        0.1232
     37 H          10.1483   -1.0877    0.1552 H       1  LIG1        0.0624
     38 C          12.8714    1.6128   -0.6257 C.ar    1  LIG1        0.0324
     39 C          14.2604    1.4359   -0.4745 C.ar    1  LIG1       -0.0457
     40 C          11.9812    0.9096    0.2280 C.ar    1  LIG1       -0.0025
     41 C          14.7753    0.5809    0.4932 C.ar    1  LIG1       -0.0606
     42 H          14.9254    1.9770   -1.1394 H       1  LIG1        0.0630
     43 C          12.5280    0.0489    1.1917 C.ar    1  LIG1       -0.0529
     44 C          13.9039   -0.1184    1.3294 C.ar    1  LIG1       -0.0611
     45 H          11.8535   -0.4794    1.8586 H       1  LIG1        0.0624
     46 H          15.8496    0.4606    0.5931 H       1  LIG1        0.0618
     47 C          12.4134    2.4748   -1.6721 C.1     1  LIG1       -0.0691
     48 C          12.0840    3.2078   -2.5772 C.1     1  LIG1       -0.1139
     49 H          11.7699    3.8490   -3.3679 H       1  LIG1        0.1232
     50 H          14.2930   -0.7859    2.0924 H       1  LIG1        0.0618
@<TRIPOS>BOND
     1    49    48    1
     2    48    47    3
     3    47    38    1
     4    21    19    1
     5    25    20    1
     6    42    39    1
     7    19    20   ar
     8    19    16   ar
     9    20    17   ar
    10    38    39   ar
    11    38    40   ar
    12     9     3    1
    13    39    41   ar
    14     8     6    1
    15    12    11    1
    16     3     6   ar
    17     3     1   ar
    18    11    10    3
    19     6     7   ar
    20    10     1    1
    21     1     2   ar
    22     7    13    1
    23     7     4   ar
    24     2     4   ar
    25     2     5    1
    26    36    35    1
    27     4    16    1
    28    35    34    3
    29    16    14   ar
    30    34    26    1
    31    17    28    1
    32    17    15   ar
    33    26    28   ar
    34    26    27   ar
    35    28    31   ar
    36    31    33    1
    37    31    32   ar
    38    27    30    1
    39    27    29   ar
    40    32    29   ar
    41    32    37    1
    42    29    40    1
    43    40    43   ar
    44    41    46    1
    45    41    44   ar
    46    14    15   ar
    47    14    22    1
    48    15    18    1
    49    43    44   ar
    50    43    45    1
    51    44    50    1
    52    22    23    3
    53    23    24    1
