@<TRIPOS>MOLECULE
mol_data/opt/b3lyp/geoms/mol2/4ea4ed-13ai-13de.out
 49 52 0 0 0
SMALL
GASTEIGER

@<TRIPOS>ATOM
      1 C          -0.2155    0.2636   -0.7422 C.ar    1  LIG1        0.0253
      2 C           1.1878    0.2314   -0.6828 C.ar    1  LIG1       -0.0386
      3 C          -0.9220    1.1340    0.1085 C.ar    1  LIG1       -0.0463
      4 C           1.8897    1.0524    0.2083 C.ar    1  LIG1       -0.0155
      5 H           1.7251   -0.4330   -1.3487 H       1  LIG1        0.0636
      6 C          -0.2285    1.9520    0.9949 C.ar    1  LIG1       -0.0600
      7 C           1.1644    1.9159    1.0462 C.ar    1  LIG1       -0.0539
      8 H          -0.7751    2.6185    1.6551 H       1  LIG1        0.0618
      9 H          -2.0055    1.1576    0.0642 H       1  LIG1        0.0630
     10 C          -0.9153   -0.5759   -1.6644 C.1     1  LIG1       -0.0696
     11 C          -1.5098   -1.2858   -2.4434 C.1     1  LIG1       -0.1139
     12 H          -2.0322   -1.9095   -3.1312 H       1  LIG1        0.1232
     13 H           1.6952    2.5440    1.7552 H       1  LIG1        0.0624
     14 C           4.1564   -0.1352    0.3295 C.ar    1  LIG1        0.0331
     15 C           5.5547   -0.0551    0.3539 C.ar    1  LIG1       -0.0354
     16 C           3.3758    1.0528    0.2502 C.ar    1  LIG1       -0.0012
     17 C           6.2521    1.1619    0.3243 C.ar    1  LIG1        0.0168
     18 H           6.1180   -0.9799    0.3883 H       1  LIG1        0.0637
     19 C           4.0600    2.2670    0.2192 C.ar    1  LIG1       -0.0348
     20 C           5.4610    2.3435    0.2612 C.ar    1  LIG1        0.0615
     21 H           3.4943    3.1897    0.1488 H       1  LIG1        0.0637
     22 C           3.5636   -1.4334    0.4107 C.1     1  LIG1       -0.0690
     23 C           3.1141   -2.5536    0.4934 C.1     1  LIG1       -0.1139
     24 H           2.6974   -3.5321    0.5640 H       1  LIG1        0.1232
     25 N           6.5804    4.6858    0.2279 N.1     1  LIG1       -0.1908
     26 C           6.0593    3.6431    0.2502 C.1     1  LIG1        0.0998
     27 C           7.7070    1.1495    0.3809 C.ar    1  LIG1        0.0485
     28 C           8.5750    0.1722    0.8672 C.ar    1  LIG1       -0.0328
     29 C           9.9058    0.6352    0.7512 C.ar    1  LIG1       -0.0231
     30 C           9.8306    1.9076    0.1722 C.ar    1  LIG1        0.0676
     31 N           8.4984    2.1992   -0.0288 N.ar    1  LIG1       -0.3527
     32 H           8.1684    3.0018   -0.5421 H       1  LIG1        0.1660
     33 H           8.2772   -0.7617    1.3233 H       1  LIG1        0.0641
     34 C          11.1342   -0.0790    1.2321 C.3     1  LIG1       -0.0376
     35 H          11.8603    0.6182    1.6609 H       1  LIG1        0.0278
     36 H          11.6457   -0.6087    0.4221 H       1  LIG1        0.0278
     37 H          10.8725   -0.8102    2.0022 H       1  LIG1        0.0278
     38 C          10.8256    2.9162   -0.1216 C.ar    1  LIG1        0.0819
     39 C          12.1349    2.8442   -0.6041 C.ar    1  LIG1        0.0937
     40 C          12.6408    4.1930   -0.7155 C.ar    1  LIG1        0.0600
     41 C          11.6176    5.0297   -0.3102 C.ar    1  LIG1        0.0190
     42 N          10.5410    4.2568    0.0350 N.ar    1  LIG1       -0.3573
     43 H           9.6833    4.6097    0.4364 H       1  LIG1        0.1655
     44 H          11.5900    6.1059   -0.2438 H       1  LIG1        0.0820
     45 N          13.3732    0.7038   -1.3450 N.1     1  LIG1       -0.1908
     46 C          12.8169    1.6693   -1.0054 C.1     1  LIG1        0.1026
     47 C          13.9255    4.5822   -1.1690 C.1     1  LIG1       -0.0669
     48 C          15.0247    4.9056   -1.5566 C.1     1  LIG1       -0.1138
     49 H          15.9943    5.1822   -1.9004 H       1  LIG1        0.1232
@<TRIPOS>BOND
     1    12    11    1
     2    11    10    3
     3    49    48    1
     4    10     1    1
     5    48    47    3
     6     5     2    1
     7    45    46    3
     8    47    40    1
     9    46    39    1
    10     1     2   ar
    11     1     3   ar
    12    40    39   ar
    13    40    41   ar
    14     2     4   ar
    15    39    38   ar
    16    32    31    1
    17    41    44    1
    18    41    42   ar
    19    38    42   ar
    20    38    30    1
    21    31    30   ar
    22    31    27   ar
    23    42    43    1
    24     9     3    1
    25     3     6   ar
    26    21    19    1
    27    30    29   ar
    28     4    16    1
    29     4     7   ar
    30    19    16   ar
    31    19    20   ar
    32    25    26    3
    33    16    14   ar
    34    26    20    1
    35    20    17   ar
    36    17    15   ar
    37    17    27    1
    38    14    15   ar
    39    14    22    1
    40    15    18    1
    41    27    28   ar
    42    22    23    3
    43    36    34    1
    44    23    24    1
    45    29    28   ar
    46    29    34    1
    47    28    33    1
    48     6     7   ar
    49     6     8    1
    50     7    13    1
    51    34    35    1
    52    34    37    1
