@<TRIPOS>MOLECULE
mol_data/opt/b3lyp/geoms/mol2/4ea4ea-.out
 26 27 0 0 0
SMALL
GASTEIGER

@<TRIPOS>ATOM
      1 C          -0.0153    0.0935    0.1473 C.ar    1  LIG1        0.0253
      2 C           1.3873    0.1370    0.2290 C.ar    1  LIG1       -0.0386
      3 C          -0.7005    1.1680   -0.4476 C.ar    1  LIG1       -0.0463
      4 C           2.1102    1.2297   -0.2660 C.ar    1  LIG1       -0.0156
      5 H           1.9111   -0.6866    0.7027 H       1  LIG1        0.0636
      6 C           0.0135    2.2550   -0.9436 C.ar    1  LIG1       -0.0600
      7 C           1.4043    2.2914   -0.8549 C.ar    1  LIG1       -0.0539
      8 H          -0.5170    3.0803   -1.4091 H       1  LIG1        0.0618
      9 H          -1.7829    1.1383   -0.5138 H       1  LIG1        0.0630
     10 C          -0.7333   -1.0289    0.6667 C.1     1  LIG1       -0.0696
     11 C          -1.3423   -1.9784    1.1049 C.1     1  LIG1       -0.1139
     12 H          -1.8779   -2.8137    1.4925 H       1  LIG1        0.1232
     13 H           1.9486    3.1396   -1.2539 H       1  LIG1        0.0624
     14 C           4.3493    2.3263    0.2827 C.ar    1  LIG1        0.0324
     15 C           5.7553    2.2470    0.3116 C.ar    1  LIG1       -0.0457
     16 C           3.5973    1.2229   -0.1991 C.ar    1  LIG1       -0.0025
     17 C           6.4196    1.1045   -0.1196 C.ar    1  LIG1       -0.0606
     18 H           6.3133    3.0977    0.6885 H       1  LIG1        0.0630
     19 C           4.2932    0.0810   -0.6229 C.ar    1  LIG1       -0.0529
     20 C           5.6841    0.0145   -0.5871 C.ar    1  LIG1       -0.0611
     21 H           3.7248   -0.7601   -1.0077 H       1  LIG1        0.0624
     22 H           7.5042    1.0649   -0.0896 H       1  LIG1        0.0618
     23 C           3.7341    3.5176    0.7834 C.1     1  LIG1       -0.0691
     24 C           3.2729    4.5450    1.2268 C.1     1  LIG1       -0.1139
     25 H           2.8467    5.4393    1.6187 H       1  LIG1        0.1232
     26 H           6.1908   -0.8824   -0.9307 H       1  LIG1        0.0618
@<TRIPOS>BOND
     1     8     6    1
     2    13     7    1
     3    21    19    1
     4     6     7   ar
     5     6     3   ar
     6    26    20    1
     7     7     4   ar
     8    19    20   ar
     9    19    16   ar
    10    20    17   ar
    11     9     3    1
    12     3     1   ar
    13     4    16    1
    14     4     2   ar
    15    16    14   ar
    16    17    22    1
    17    17    15   ar
    18     1     2   ar
    19     1    10    1
    20     2     5    1
    21    14    15   ar
    22    14    23    1
    23    15    18    1
    24    10    11    3
    25    23    24    3
    26    11    12    1
    27    24    25    1
