@<TRIPOS>MOLECULE
mol_data/opt/b3lyp/geoms/mol2/4ea4ea-4ea-4ea.out
 50 53 0 0 0
SMALL
GASTEIGER

@<TRIPOS>ATOM
      1 C          -0.2735    0.0936   -0.2658 C.ar    1  LIG1        0.0253
      2 C           1.1303    0.1086   -0.1971 C.ar    1  LIG1       -0.0386
      3 C          -0.9701    1.3142   -0.3204 C.ar    1  LIG1       -0.0463
      4 C           1.8442    1.3138   -0.1785 C.ar    1  LIG1       -0.0156
      5 H           1.6628   -0.8347   -0.1384 H       1  LIG1        0.0636
      6 C          -0.2654    2.5146   -0.3044 C.ar    1  LIG1       -0.0600
      7 C           1.1267    2.5202   -0.2327 C.ar    1  LIG1       -0.0539
      8 H          -0.8046    3.4558   -0.3539 H       1  LIG1        0.0618
      9 H          -2.0535    1.3072   -0.3742 H       1  LIG1        0.0630
     10 C          -0.9816   -1.1489   -0.2759 C.1     1  LIG1       -0.0696
     11 C          -1.5818   -2.1997   -0.2859 C.1     1  LIG1       -0.1139
     12 H          -2.1099   -3.1249   -0.2929 H       1  LIG1        0.1232
     13 H           1.6634    3.4620   -0.2308 H       1  LIG1        0.0624
     14 C           4.0986    2.0957    0.7343 C.ar    1  LIG1        0.0329
     15 C           5.5024    2.0294    0.6986 C.ar    1  LIG1       -0.0380
     16 C           3.3309    1.2912   -0.1477 C.ar    1  LIG1       -0.0024
     17 C           6.1800    1.1818   -0.1837 C.ar    1  LIG1       -0.0155
     18 H           6.0616    2.6435    1.3938 H       1  LIG1        0.0636
     19 C           4.0224    0.4398   -1.0209 C.ar    1  LIG1       -0.0523
     20 C           5.4115    0.3793   -1.0422 C.ar    1  LIG1       -0.0533
     21 H           3.4527   -0.1667   -1.7182 H       1  LIG1        0.0624
     22 C           3.4985    2.9526    1.7117 C.1     1  LIG1       -0.0690
     23 C           3.0462    3.6857    2.5619 C.1     1  LIG1       -0.1139
     24 H           2.6310    4.3208    3.3096 H       1  LIG1        0.1232
     25 H           5.9079   -0.2741   -1.7532 H       1  LIG1        0.0624
     26 C           8.5124    2.2226   -0.2061 C.ar    1  LIG1        0.0329
     27 C           9.9076    2.0459   -0.2175 C.ar    1  LIG1       -0.0380
     28 C           7.6627    1.0865   -0.1951 C.ar    1  LIG1       -0.0024
     29 C          10.4966    0.7774   -0.2188 C.ar    1  LIG1       -0.0155
     30 H          10.5361    2.9300   -0.2153 H       1  LIG1        0.0636
     31 C           8.2670   -0.1796   -0.2054 C.ar    1  LIG1       -0.0523
     32 C           9.6477   -0.3403   -0.2152 C.ar    1  LIG1       -0.0533
     33 H           7.6314   -1.0595   -0.1869 H       1  LIG1        0.0624
     34 C           8.0100    3.5622   -0.2440 C.1     1  LIG1       -0.0690
     35 C           7.6436    4.7150   -0.2869 C.1     1  LIG1       -0.1139
     36 H           7.2985    5.7223   -0.3225 H       1  LIG1        0.1232
     37 H          10.0707   -1.3382   -0.2224 H       1  LIG1        0.0624
     38 C          12.6980   -0.2313    0.5856 C.ar    1  LIG1        0.0324
     39 C          14.0997   -0.3100    0.4735 C.ar    1  LIG1       -0.0457
     40 C          11.9768    0.6430   -0.2697 C.ar    1  LIG1       -0.0025
     41 C          14.7908    0.4578   -0.4568 C.ar    1  LIG1       -0.0606
     42 H          14.6344   -0.9793    1.1392 H       1  LIG1        0.0630
     43 C          12.7003    1.4102   -1.1953 C.ar    1  LIG1       -0.0529
     44 C          14.0871    1.3249   -1.2937 C.ar    1  LIG1       -0.0611
     45 H          12.1544    2.0686   -1.8640 H       1  LIG1        0.0624
     46 H          15.8714    0.3807   -0.5269 H       1  LIG1        0.0618
     47 C          12.0611   -1.0169    1.5982 C.1     1  LIG1       -0.0691
     48 C          11.5809   -1.6966    2.4771 C.1     1  LIG1       -0.1139
     49 H          11.1394   -2.2832    3.2492 H       1  LIG1        0.1232
     50 H          14.6140    1.9274   -2.0275 H       1  LIG1        0.0618
@<TRIPOS>BOND
     1    50    44    1
     2    45    43    1
     3    25    20    1
     4    21    19    1
     5    44    43   ar
     6    44    41   ar
     7    43    40   ar
     8    20    19   ar
     9    20    17   ar
    10    19    16   ar
    11    46    41    1
    12    41    39   ar
    13     9     3    1
    14     8     6    1
    15    36    35    1
    16     3     6   ar
    17     3     1   ar
    18     6     7   ar
    19    12    11    1
    20    35    34    3
    21    11    10    3
    22    10     1    1
    23    40    29    1
    24    40    38   ar
    25     1     2   ar
    26    34    26    1
    27     7    13    1
    28     7     4   ar
    29    37    32    1
    30    29    27   ar
    31    29    32   ar
    32    27    30    1
    33    27    26   ar
    34    32    31   ar
    35    26    28   ar
    36    31    28   ar
    37    31    33    1
    38     2     4   ar
    39     2     5    1
    40    28    17    1
    41    17    15   ar
    42     4    16    1
    43    16    14   ar
    44    39    38   ar
    45    39    42    1
    46    38    47    1
    47    15    14   ar
    48    15    18    1
    49    14    22    1
    50    47    48    3
    51    22    23    3
    52    48    49    1
    53    23    24    1
