@<TRIPOS>MOLECULE
mol_data/opt/b3lyp/geoms/mol2/4ea4ea4ea4ea-.out
 50 53 0 0 0
SMALL
GASTEIGER

@<TRIPOS>ATOM
      1 C          -0.3368    0.6745    0.5523 C.ar    1  LIG1        0.0253
      2 C           1.0654    0.6246    0.6289 C.ar    1  LIG1       -0.0386
      3 C          -0.9514    0.9620   -0.6805 C.ar    1  LIG1       -0.0463
      4 C           1.8588    0.8586   -0.5011 C.ar    1  LIG1       -0.0156
      5 H           1.5310    0.4110    1.5834 H       1  LIG1        0.0636
      6 C          -0.1680    1.1952   -1.8063 C.ar    1  LIG1       -0.0600
      7 C           1.2229    1.1471   -1.7205 C.ar    1  LIG1       -0.0539
      8 H          -0.6425    1.4105   -2.7591 H       1  LIG1        0.0618
      9 H          -2.0340    0.9980   -0.7400 H       1  LIG1        0.0630
     10 C          -1.1298    0.4425    1.7199 C.1     1  LIG1       -0.0696
     11 C          -1.8039    0.2467    2.7057 C.1     1  LIG1       -0.1139
     12 H          -2.3951    0.0751    3.5750 H       1  LIG1        0.1232
     13 H           1.8254    1.3131   -2.6084 H       1  LIG1        0.0624
     14 C           4.0830   -0.1907    0.1965 C.ar    1  LIG1        0.0329
     15 C           5.4874   -0.1304    0.2245 C.ar    1  LIG1       -0.0380
     16 C           3.3442    0.8505   -0.4234 C.ar    1  LIG1       -0.0024
     17 C           6.1927    0.9342   -0.3456 C.ar    1  LIG1       -0.0155
     18 H           6.0253   -0.9381    0.7056 H       1  LIG1        0.0636
     19 C           4.0640    1.9095   -0.9945 C.ar    1  LIG1       -0.0523
     20 C           5.4531    1.9590   -0.9572 C.ar    1  LIG1       -0.0533
     21 H           3.5147    2.7202   -1.4632 H       1  LIG1        0.0624
     22 C           3.4540   -1.3372    0.7788 C.1     1  LIG1       -0.0690
     23 C           2.9750   -2.3304    1.2775 C.1     1  LIG1       -0.1139
     24 H           2.5323   -3.1963    1.7126 H       1  LIG1        0.1232
     25 H           5.9725    2.7933   -1.4185 H       1  LIG1        0.0624
     26 C           8.5280   -0.0658   -0.6122 C.ar    1  LIG1        0.0329
     27 C           9.9223    0.0975   -0.5281 C.ar    1  LIG1       -0.0380
     28 C           7.6751    1.0180   -0.2796 C.ar    1  LIG1       -0.0024
     29 C          10.5070    1.3018   -0.1233 C.ar    1  LIG1       -0.0155
     30 H          10.5534   -0.7485   -0.7789 H       1  LIG1        0.0636
     31 C           8.2751    2.2223    0.1171 C.ar    1  LIG1       -0.0523
     32 C           9.6551    2.3696    0.1987 C.ar    1  LIG1       -0.0533
     33 H           7.6361    3.0583    0.3844 H       1  LIG1        0.0624
     34 C           8.0299   -1.3264   -1.0718 C.1     1  LIG1       -0.0690
     35 C           7.6651   -2.4079   -1.4744 C.1     1  LIG1       -0.1139
     36 H           7.3204   -3.3531   -1.8248 H       1  LIG1        0.1232
     37 H          10.0749    3.3189    0.5108 H       1  LIG1        0.0624
     38 C          12.6835    1.9968    1.0141 C.ar    1  LIG1        0.0324
     39 C          14.0880    2.0931    0.9711 C.ar    1  LIG1       -0.0457
     40 C          11.9879    1.4355   -0.0890 C.ar    1  LIG1       -0.0025
     41 C          14.8060    1.6442   -0.1314 C.ar    1  LIG1       -0.0606
     42 H          14.6030    2.5191    1.8257 H       1  LIG1        0.0630
     43 C          12.7381    0.9865   -1.1864 C.ar    1  LIG1       -0.0529
     44 C          14.1271    1.0856   -1.2152 C.ar    1  LIG1       -0.0611
     45 H          12.2118    0.5724   -2.0408 H       1  LIG1        0.0624
     46 H          15.8883    1.7291   -0.1439 H       1  LIG1        0.0618
     47 C          12.0169    2.4387    2.2009 C.1     1  LIG1       -0.0691
     48 C          11.5104    2.8205    3.2319 C.1     1  LIG1       -0.1139
     49 H          11.0461    3.1461    4.1338 H       1  LIG1        0.1232
     50 H          14.6753    0.7352   -2.0846 H       1  LIG1        0.0618
@<TRIPOS>BOND
     1     8     6    1
     2    13     7    1
     3    50    44    1
     4    45    43    1
     5    36    35    1
     6     6     7   ar
     7     6     3   ar
     8     7     4   ar
     9    35    34    3
    10    21    19    1
    11    25    20    1
    12    44    43   ar
    13    44    41   ar
    14    43    40   ar
    15    34    26    1
    16    19    20   ar
    17    19    16   ar
    18    20    17   ar
    19    30    27    1
    20     9     3    1
    21     3     1   ar
    22    26    27   ar
    23    26    28   ar
    24    27    29   ar
    25     4    16    1
    26     4     2   ar
    27    16    14   ar
    28    17    28    1
    29    17    15   ar
    30    28    31   ar
    31    46    41    1
    32    41    39   ar
    33    29    40    1
    34    29    32   ar
    35    40    38   ar
    36    31    32   ar
    37    31    33    1
    38    14    15   ar
    39    14    22    1
    40    32    37    1
    41    15    18    1
    42     1     2   ar
    43     1    10    1
    44     2     5    1
    45    22    23    3
    46    39    38   ar
    47    39    42    1
    48    38    47    1
    49    23    24    1
    50    10    11    3
    51    47    48    3
    52    11    12    1
    53    48    49    1
