@<TRIPOS>MOLECULE
mol_data/opt/b3lyp/geoms/mol2/4ea4ea-4ea.out
 38 40 0 0 0
SMALL
GASTEIGER

@<TRIPOS>ATOM
      1 C          -0.1710    0.1306   -0.0043 C.ar    1  LIG1        0.0253
      2 C           1.2324    0.1346    0.0704 C.ar    1  LIG1       -0.0386
      3 C          -0.8388    1.2986   -0.4142 C.ar    1  LIG1       -0.0463
      4 C           1.9742    1.2785   -0.2520 C.ar    1  LIG1       -0.0156
      5 H           1.7431   -0.7629    0.4027 H       1  LIG1        0.0636
      6 C          -0.1064    2.4373   -0.7375 C.ar    1  LIG1       -0.0600
      7 C           1.2853    2.4334   -0.6576 C.ar    1  LIG1       -0.0539
      8 H          -0.6235    3.3359   -1.0605 H       1  LIG1        0.0618
      9 H          -1.9219    1.2997   -0.4742 H       1  LIG1        0.0630
     10 C          -0.9079   -1.0471    0.3356 C.1     1  LIG1       -0.0696
     11 C          -1.5329   -2.0433    0.6209 C.1     1  LIG1       -0.1139
     12 H          -2.0827   -2.9200    0.8740 H       1  LIG1        0.1232
     13 H           1.8435    3.3242   -0.9219 H       1  LIG1        0.0624
     14 C           4.2456    2.2375    0.4170 C.ar    1  LIG1        0.0329
     15 C           5.6472    2.1228    0.4155 C.ar    1  LIG1       -0.0380
     16 C           3.4599    1.2318   -0.2026 C.ar    1  LIG1       -0.0024
     17 C           6.3039    1.0375   -0.1740 C.ar    1  LIG1       -0.0155
     18 H           6.2252    2.8928    0.9153 H       1  LIG1        0.0636
     19 C           4.1313    0.1476   -0.7869 C.ar    1  LIG1       -0.0523
     20 C           5.5176    0.0433   -0.7764 C.ar    1  LIG1       -0.0533
     21 H           3.5457   -0.6178   -1.2866 H       1  LIG1        0.0624
     22 C           3.6692    3.3595    1.0937 C.1     1  LIG1       -0.0690
     23 C           3.2390    4.3230    1.6866 C.1     1  LIG1       -0.1139
     24 H           2.8408    5.1609    2.2104 H       1  LIG1        0.1232
     25 H           5.9941   -0.8036   -1.2566 H       1  LIG1        0.0624
     26 C           8.5215   -0.1794    0.1661 C.ar    1  LIG1        0.0324
     27 C           9.9292   -0.1521    0.1259 C.ar    1  LIG1       -0.0457
     28 C           7.7901    0.9851   -0.1870 C.ar    1  LIG1       -0.0025
     29 C          10.6157    0.9970   -0.2494 C.ar    1  LIG1       -0.0606
     30 H          10.4713   -1.0495    0.4050 H       1  LIG1        0.0630
     31 C           8.5089    2.1318   -0.5575 C.ar    1  LIG1       -0.0529
     32 C           9.9012    2.1461   -0.5907 C.ar    1  LIG1       -0.0611
     33 H           7.9558    3.0204   -0.8457 H       1  LIG1        0.0624
     34 H          11.7011    0.9955   -0.2744 H       1  LIG1        0.0618
     35 C           7.8872   -1.3846    0.6059 C.1     1  LIG1       -0.0691
     36 C           7.4101   -2.4276    0.9929 C.1     1  LIG1       -0.1139
     37 H           6.9708   -3.3353    1.3365 H       1  LIG1        0.1232
     38 H          10.4247    3.0491   -0.8899 H       1  LIG1        0.0618
@<TRIPOS>BOND
     1    21    19    1
     2    25    20    1
     3     8     6    1
     4    13     7    1
     5    38    32    1
     6    33    31    1
     7    19    20   ar
     8    19    16   ar
     9    20    17   ar
    10     6     7   ar
    11     6     3   ar
    12     7     4   ar
    13    32    31   ar
    14    32    29   ar
    15    31    28   ar
    16     9     3    1
    17     3     1   ar
    18    34    29    1
    19     4    16    1
    20     4     2   ar
    21    29    27   ar
    22    16    14   ar
    23    28    17    1
    24    28    26   ar
    25    17    15   ar
    26     1     2   ar
    27     1    10    1
    28     2     5    1
    29    27    26   ar
    30    27    30    1
    31    26    35    1
    32    10    11    3
    33    15    14   ar
    34    15    18    1
    35    14    22    1
    36    35    36    3
    37    11    12    1
    38    36    37    1
    39    22    23    3
    40    23    24    1
