@<TRIPOS>MOLECULE
mol_data/opt/b3lyp/geoms/mol2/4ea6di-13he-6ef.out
 51 54 0 0 0
SMALL
GASTEIGER

@<TRIPOS>ATOM
      1 C          -0.1831    0.1467   -0.3001 C.ar    1  LIG1        0.0253
      2 C           1.2215    0.1358   -0.2980 C.ar    1  LIG1       -0.0385
      3 C          -0.8596    1.2868    0.1709 C.ar    1  LIG1       -0.0463
      4 C           1.9550    1.2377    0.1631 C.ar    1  LIG1       -0.0140
      5 H           1.7392   -0.7368   -0.6820 H       1  LIG1        0.0636
      6 C          -0.1358    2.3822    0.6318 C.ar    1  LIG1       -0.0600
      7 C           1.2582    2.3636    0.6330 C.ar    1  LIG1       -0.0539
      8 H          -0.6598    3.2584    1.0007 H       1  LIG1        0.0618
      9 H          -1.9442    1.3002    0.1694 H       1  LIG1        0.0630
     10 C          -0.9117   -0.9860   -0.7803 C.1     1  LIG1       -0.0696
     11 C          -1.5295   -1.9447   -1.1845 C.1     1  LIG1       -0.1139
     12 H          -2.0746   -2.7870   -1.5428 H       1  LIG1        0.1232
     13 H           1.8034    3.2198    1.0136 H       1  LIG1        0.0624
     14 C           4.2832    2.2197   -0.2451 C.ar    1  LIG1        0.1484
     15 C           3.4371    1.1720    0.1722 C.ar    1  LIG1        0.0183
     16 C           4.1006    0.0251    0.6360 C.ar    1  LIG1       -0.0463
     17 C           5.4890   -0.0889    0.6612 C.ar    1  LIG1       -0.0223
     18 C           6.2298    0.9951    0.1118 C.ar    1  LIG1        0.0933
     19 N           5.6162    2.1261   -0.2842 N.ar    1  LIG1       -0.2339
     20 H           3.5045   -0.7838    1.0489 H       1  LIG1        0.0628
     21 N           3.4371    4.5436   -1.0721 N.1     1  LIG1       -0.1893
     22 C           3.7820    3.4956   -0.7043 C.1     1  LIG1        0.1197
     23 C           6.1350   -1.2481    1.3710 C.3     1  LIG1       -0.0376
     24 H           6.7095   -0.8821    2.2305 H       1  LIG1        0.0278
     25 H           6.8513   -1.7930    0.7510 H       1  LIG1        0.0278
     26 H           5.3770   -1.9430    1.7409 H       1  LIG1        0.0278
     27 C           7.6854    1.0559   -0.0050 C.ar    1  LIG1        0.0878
     28 C           8.7089    0.1469   -0.2954 C.ar    1  LIG1        0.0679
     29 C           9.9345    0.8827   -0.3406 C.ar    1  LIG1        0.0713
     30 C           9.6213    2.2435   -0.1153 C.ar    1  LIG1        0.0672
     31 N           8.2775    2.3019    0.0637 N.ar    1  LIG1       -0.3504
     32 H           7.7355    3.1545    0.1344 H       1  LIG1        0.1660
     33 N           8.6098   -1.2253   -0.5502 N.pl3   1  LIG1       -0.3553
     34 H           7.8957   -1.4530   -1.2332 H       1  LIG1        0.1424
     35 H           9.5028   -1.6036   -0.8506 H       1  LIG1        0.1424
     36 C          11.1762    0.2785   -0.6492 C.1     1  LIG1       -0.0657
     37 C          12.1946   -0.3206   -0.9251 C.1     1  LIG1       -0.1138
     38 H          13.1068   -0.8141   -1.1688 H       1  LIG1        0.1232
     39 C          10.0256    4.7623   -0.2383 C.ar    1  LIG1        0.1225
     40 C          10.4884    3.4213   -0.0649 C.ar    1  LIG1        0.0368
     41 C          11.8598    3.2493    0.1720 C.ar    1  LIG1       -0.0069
     42 C          12.7033    4.3533    0.2175 C.ar    1  LIG1        0.1356
     43 C          12.1480    5.6270    0.0363 C.ar    1  LIG1        0.0704
     44 N          10.8538    5.8218   -0.1819 N.ar    1  LIG1       -0.2424
     45 H          12.2772    2.2622    0.3239 H       1  LIG1        0.0662
     46 H          12.7795    6.5162    0.0720 H       1  LIG1        0.0867
     47 C           8.6530    5.0889   -0.5032 C.1     1  LIG1       -0.0491
     48 C           7.4968    5.3761   -0.7228 C.1     1  LIG1       -0.1124
     49 H           6.4750    5.6043   -0.9321 H       1  LIG1        0.1232
     50 O          14.0281    4.1473    0.4492 O.3     1  LIG1       -0.5052
     51 H          14.4864    4.9987    0.4617 H       1  LIG1        0.2922
@<TRIPOS>BOND
     1    12    11    1
     2    34    33    1
     3    11    10    3
     4    38    37    1
     5    21    22    3
     6    49    48    1
     7    37    36    3
     8    35    33    1
     9    10     1    1
    10    48    47    3
    11    22    14    1
    12     5     2    1
    13    36    29    1
    14    33    28    1
    15    47    39    1
    16    29    28   ar
    17    29    30   ar
    18     1     2   ar
    19     1     3   ar
    20     2     4   ar
    21    28    27   ar
    22    19    14   ar
    23    19    18   ar
    24    14    15   ar
    25    39    44   ar
    26    39    40   ar
    27    44    43   ar
    28    30    40    1
    29    30    31   ar
    30    40    41   ar
    31    27    31   ar
    32    27    18    1
    33    43    46    1
    34    43    42   ar
    35    31    32    1
    36    18    17   ar
    37     4    15    1
    38     4     7   ar
    39     9     3    1
    40     3     6   ar
    41    41    42   ar
    42    41    45    1
    43    15    16   ar
    44    42    50    1
    45    50    51    1
    46     6     7   ar
    47     6     8    1
    48     7    13    1
    49    16    17   ar
    50    16    20    1
    51    17    23    1
    52    25    23    1
    53    23    26    1
    54    23    24    1
