@<TRIPOS>MOLECULE
mol_data/opt/b3lyp/geoms/mol2/4ed12ee-6ih-6il.out
 56 59 0 0 0
SMALL
GASTEIGER

@<TRIPOS>ATOM
      1 C          -0.0926   -0.2802    0.4625 C.ar    1  LIG1        0.0254
      2 C           1.2977   -0.1323    0.3635 C.ar    1  LIG1       -0.0344
      3 C          -0.9293    0.7863    0.0812 C.ar    1  LIG1       -0.0451
      4 C           1.8838    1.0484   -0.1177 C.ar    1  LIG1        0.0370
      5 H           1.9334   -0.9508    0.6747 H       1  LIG1        0.0637
      6 C          -0.3704    1.9609   -0.3954 C.ar    1  LIG1       -0.0425
      7 C           1.0235    2.1111   -0.5077 C.ar    1  LIG1        0.0625
      8 H          -1.0073    2.7844   -0.6988 H       1  LIG1        0.0631
      9 H          -2.0052    0.6818    0.1616 H       1  LIG1        0.0630
     10 C          -0.6511   -1.4969    0.9603 C.1     1  LIG1       -0.0696
     11 C          -1.1304   -2.5252    1.3803 C.1     1  LIG1       -0.1139
     12 H          -1.5509   -3.4312    1.7519 H       1  LIG1        0.1232
     13 N           1.7932    4.3705   -1.5246 N.1     1  LIG1       -0.1908
     14 C           1.4941    3.3462   -1.0596 C.1     1  LIG1        0.0999
     15 C           3.3363    1.1342   -0.1930 C.ar    1  LIG1        0.1535
     16 C           4.3352    0.1821   -0.2918 C.ar    1  LIG1        0.0864
     17 C           5.5862    0.9098   -0.3251 C.ar    1  LIG1        0.0864
     18 C           5.2615    2.2546   -0.2451 C.ar    1  LIG1        0.1540
     19 O           3.9049    2.3737   -0.1647 O.2     1  LIG1       -0.4522
     20 C           4.2120   -1.2254   -0.3742 C.1     1  LIG1       -0.0646
     21 C           4.1409   -2.4313   -0.4460 C.1     1  LIG1       -0.1138
     22 H           4.0764   -3.4925   -0.5176 H       1  LIG1        0.1232
     23 C           6.8684    0.3137   -0.3928 C.1     1  LIG1       -0.0646
     24 C           7.9483   -0.2296   -0.4511 C.1     1  LIG1       -0.1138
     25 H           8.8998   -0.7076   -0.4873 H       1  LIG1        0.1232
     26 C           5.6948    4.6712    0.4088 C.ar    1  LIG1        0.0497
     27 C           6.0733    3.4673   -0.2421 C.ar    1  LIG1        0.0413
     28 C           7.3039    3.4405   -0.9101 C.ar    1  LIG1       -0.0265
     29 C           8.1424    4.5560   -0.9237 C.ar    1  LIG1        0.0516
     30 C           7.6920    5.7074   -0.2334 C.ar    1  LIG1        0.0937
     31 N           6.5066    5.7324    0.3896 N.ar    1  LIG1       -0.2493
     32 H           7.6095    2.5413   -1.4344 H       1  LIG1        0.0644
     33 C           4.4008    4.8581    1.1611 C.3     1  LIG1       -0.0216
     34 H           4.1849    4.0171    1.8269 H       1  LIG1        0.0293
     35 H           3.5535    4.9549    0.4745 H       1  LIG1        0.0293
     36 H           4.4776    5.7721    1.7514 H       1  LIG1        0.0293
     37 N           9.3806    4.5062   -1.5679 N.pl3   1  LIG1       -0.3563
     38 H           9.4392    3.8135   -2.3029 H       1  LIG1        0.1424
     39 H           9.7345    5.4054   -1.8679 H       1  LIG1        0.1424
     40 C           8.0106    8.2164   -0.5032 C.ar    1  LIG1        0.0477
     41 C           8.5192    6.9473   -0.1514 C.ar    1  LIG1        0.0266
     42 C           9.8391    6.8585    0.3214 C.ar    1  LIG1       -0.0075
     43 C          10.6032    8.0179    0.4436 C.ar    1  LIG1        0.1387
     44 C          10.0094    9.2320    0.0741 C.ar    1  LIG1        0.0695
     45 N           8.7650    9.3244   -0.3859 N.ar    1  LIG1       -0.2559
     46 H          10.2378    5.8892    0.5962 H       1  LIG1        0.0662
     47 H          10.5860   10.1510    0.1605 H       1  LIG1        0.0867
     48 C           6.6150    8.4228   -1.0372 C.3     1  LIG1       -0.0217
     49 H           5.8695    8.2809   -0.2497 H       1  LIG1        0.0293
     50 H           6.3713    7.7083   -1.8301 H       1  LIG1        0.0293
     51 H           6.5350    9.4379   -1.4291 H       1  LIG1        0.0293
     52 O          11.8884    8.0792    0.8957 O.3     1  LIG1       -0.4936
     53 C          12.5087    6.8676    1.2998 C.3     1  LIG1        0.0789
     54 H          13.5128    7.1381    1.6287 H       1  LIG1        0.0660
     55 H          11.9707    6.3957    2.1319 H       1  LIG1        0.0660
     56 H          12.5809    6.1525    0.4701 H       1  LIG1        0.0660
@<TRIPOS>BOND
     1    38    37    1
     2    39    37    1
     3    50    48    1
     4    37    29    1
     5    13    14    3
     6    32    28    1
     7    51    48    1
     8    14     7    1
     9    48    40    1
    10    48    49    1
    11    29    28   ar
    12    29    30   ar
    13    28    27   ar
    14     8     6    1
    15    22    21    1
    16     7     6   ar
    17     7     4   ar
    18    40    45   ar
    19    40    41   ar
    20    25    24    1
    21    24    23    3
    22    21    20    3
    23     6     3   ar
    24    23    17    1
    25    45    44   ar
    26    20    16    1
    27    17    16   ar
    28    17    18   ar
    29    16    15   ar
    30    18    27    1
    31    18    19   ar
    32    27    26   ar
    33    30    41    1
    34    30    31   ar
    35    15    19   ar
    36    15     4    1
    37    41    42   ar
    38     4     2   ar
    39    44    47    1
    40    44    43   ar
    41     3     9    1
    42     3     1   ar
    43    42    43   ar
    44    42    46    1
    45     2     1   ar
    46     2     5    1
    47    31    26   ar
    48    26    33    1
    49    43    52    1
    50     1    10    1
    51    56    53    1
    52    35    33    1
    53    52    53    1
    54    10    11    3
    55    33    36    1
    56    33    34    1
    57    53    54    1
    58    53    55    1
    59    11    12    1
