@<TRIPOS>MOLECULE
mol_data/opt/b3lyp/geoms/mol2/4ed13dl-13li-4ll.out
 61 64 0 0 0
SMALL
GASTEIGER

@<TRIPOS>ATOM
      1 C          -0.5166    0.1146    0.4704 C.ar    1  LIG1        0.0254
      2 C           0.8751    0.0018    0.3571 C.ar    1  LIG1       -0.0359
      3 C          -1.1273    1.3808    0.3570 C.ar    1  LIG1       -0.0451
      4 C           1.6985    1.1161    0.1174 C.ar    1  LIG1        0.0182
      5 H           1.3205   -0.9787    0.4639 H       1  LIG1        0.0637
      6 C          -0.3420    2.4963    0.1289 C.ar    1  LIG1       -0.0426
      7 C           1.0549    2.3854    0.0026 C.ar    1  LIG1        0.0610
      8 H          -0.7973    3.4766    0.0372 H       1  LIG1        0.0631
      9 H          -2.2032    1.4711    0.4504 H       1  LIG1        0.0630
     10 C          -1.3095   -1.0475    0.7147 C.1     1  LIG1       -0.0696
     11 C          -1.9869   -2.0281    0.9212 C.1     1  LIG1       -0.1139
     12 H          -2.5744   -2.8992    1.0995 H       1  LIG1        0.1232
     13 N           2.4058    4.5576   -0.4367 N.1     1  LIG1       -0.1908
     14 C           1.7867    3.5866   -0.2533 C.1     1  LIG1        0.0998
     15 C           3.1401    0.9344   -0.0018 C.ar    1  LIG1        0.0695
     16 C           3.9063   -0.2031   -0.3251 C.ar    1  LIG1        0.1192
     17 C           5.2796    0.1790   -0.3359 C.ar    1  LIG1        0.1647
     18 C           5.3501    1.5374   -0.0131 C.ar    1  LIG1        0.1105
     19 N           4.0465    1.9506    0.1734 N.ar    1  LIG1       -0.3489
     20 H           3.8064    2.8729    0.5032 H       1  LIG1        0.1661
     21 N           3.0776   -2.5703   -0.9394 N.1     1  LIG1       -0.1907
     22 C           3.4451   -1.5001   -0.6627 C.1     1  LIG1        0.1050
     23 O           6.2913   -0.6887   -0.5905 O.3     1  LIG1       -0.4916
     24 C           7.0601   -0.4308   -1.7762 C.3     1  LIG1        0.0789
     25 H           7.7674   -1.2570   -1.8571 H       1  LIG1        0.0660
     26 H           6.4106   -0.4157   -2.6588 H       1  LIG1        0.0660
     27 H           7.6096    0.5100   -1.6955 H       1  LIG1        0.0660
     28 C           6.4373    2.4773    0.0960 C.ar    1  LIG1        0.1095
     29 C           7.7936    2.3349    0.3945 C.ar    1  LIG1        0.1503
     30 C           8.4167    3.6120    0.3563 C.ar    1  LIG1        0.0173
     31 C           7.4209    4.5305    0.0350 C.ar    1  LIG1        0.0571
     32 N           6.2288    3.8388   -0.0780 N.ar    1  LIG1       -0.3497
     33 H           5.4140    4.2361   -0.5254 H       1  LIG1        0.1661
     34 O           8.4713    1.1803    0.6772 O.3     1  LIG1       -0.4927
     35 C           8.0869    0.5117    1.8833 C.3     1  LIG1        0.0789
     36 H           8.7794   -0.3236    2.0020 H       1  LIG1        0.0660
     37 H           8.1724    1.1842    2.7456 H       1  LIG1        0.0660
     38 H           7.0671    0.1214    1.8206 H       1  LIG1        0.0660
     39 C           9.8558    3.8654    0.6849 C.3     1  LIG1       -0.0342
     40 H           9.9839    4.8131    1.2157 H       1  LIG1        0.0279
     41 H          10.4719    3.9153   -0.2186 H       1  LIG1        0.0279
     42 H          10.2448    3.0580    1.3110 H       1  LIG1        0.0279
     43 C           8.4089    6.6833   -0.8505 C.ar    1  LIG1        0.1294
     44 C           8.3559    8.0727   -0.9450 C.ar    1  LIG1       -0.0158
     45 C           7.4244    5.9934   -0.0966 C.ar    1  LIG1        0.0437
     46 C           7.3335    8.8027   -0.3261 C.ar    1  LIG1       -0.0165
     47 H           9.1018    8.6120   -1.5159 H       1  LIG1        0.0655
     48 C           6.4063    6.7388    0.5063 C.ar    1  LIG1       -0.0073
     49 C           6.3472    8.1334    0.3975 C.ar    1  LIG1        0.1209
     50 H           5.6465    6.2394    1.0978 H       1  LIG1        0.0662
     51 H           7.3268    9.8813   -0.4236 H       1  LIG1        0.0655
     52 O           9.3500    5.9106   -1.4754 O.3     1  LIG1       -0.4945
     53 C          10.3218    6.5556   -2.2805 C.3     1  LIG1        0.0788
     54 H          10.9461    5.7614   -2.6924 H       1  LIG1        0.0660
     55 H           9.8589    7.1143   -3.1044 H       1  LIG1        0.0660
     56 H          10.9496    7.2390   -1.6937 H       1  LIG1        0.0660
     57 O           5.3027    8.7346    1.0458 O.3     1  LIG1       -0.4951
     58 C           5.1945   10.1452    0.9632 C.3     1  LIG1        0.0788
     59 H           4.3033   10.4140    1.5322 H       1  LIG1        0.0660
     60 H           6.0667   10.6471    1.4029 H       1  LIG1        0.0660
     61 H           5.0743   10.4835   -0.0745 H       1  LIG1        0.0660
@<TRIPOS>BOND
     1    55    53    1
     2    54    53    1
     3    26    24    1
     4    53    56    1
     5    53    52    1
     6    25    24    1
     7    24    27    1
     8    24    23    1
     9    47    44    1
    10    52    43    1
    11    44    43   ar
    12    44    46   ar
    13    21    22    3
    14    43    45   ar
    15    22    16    1
    16    23    17    1
    17    33    32    1
    18    13    14    3
    19    51    46    1
    20    17    16   ar
    21    17    18   ar
    22    46    49   ar
    23    16    15   ar
    24    14     7    1
    25    41    39    1
    26    45    31    1
    27    45    48   ar
    28    32    31   ar
    29    32    28   ar
    30    61    58    1
    31    18    28    1
    32    18    19   ar
    33    15     4    1
    34    15    19   ar
    35     7     4   ar
    36     7     6   ar
    37    31    30   ar
    38     8     6    1
    39    28    29   ar
    40     4     2   ar
    41     6     3   ar
    42    19    20    1
    43    30    29   ar
    44    30    39    1
    45     3     9    1
    46     3     1   ar
    47     2     5    1
    48     2     1   ar
    49    29    34    1
    50    49    48   ar
    51    49    57    1
    52     1    10    1
    53    48    50    1
    54    34    35    1
    55    39    40    1
    56    39    42    1
    57    10    11    3
    58    11    12    1
    59    58    57    1
    60    58    60    1
    61    58    59    1
    62    38    35    1
    63    35    36    1
    64    35    37    1
