@<TRIPOS>MOLECULE
mol_data/opt/b3lyp/geoms/mol2/4ed13ie-13ai-13ai.out
 50 53 0 0 0
SMALL
GASTEIGER

@<TRIPOS>ATOM
      1 C          -0.1369    0.0717   -0.3780 C.ar    1  LIG1        0.0254
      2 C           1.2622    0.0280   -0.3543 C.ar    1  LIG1       -0.0360
      3 C          -0.8038    1.2893   -0.1256 C.ar    1  LIG1       -0.0451
      4 C           2.0492    1.1595   -0.0670 C.ar    1  LIG1        0.0171
      5 H           1.7502   -0.9067   -0.5935 H       1  LIG1        0.0637
      6 C          -0.0604    2.4245    0.1416 C.ar    1  LIG1       -0.0426
      7 C           1.3461    2.3813    0.1811 C.ar    1  LIG1        0.0609
      8 H          -0.5579    3.3694    0.3336 H       1  LIG1        0.0631
      9 H          -1.8864    1.3280   -0.1500 H       1  LIG1        0.0630
     10 C          -0.8827   -1.1096   -0.6770 C.1     1  LIG1       -0.0696
     11 C          -1.5189   -2.1076   -0.9281 C.1     1  LIG1       -0.1139
     12 H          -2.0772   -2.9878   -1.1502 H       1  LIG1        0.1232
     13 N           2.5998    4.5949    0.7030 N.1     1  LIG1       -0.1908
     14 C           2.0271    3.6019    0.4861 C.1     1  LIG1        0.0998
     15 C           3.4986    1.0494   -0.0351 C.ar    1  LIG1        0.0524
     16 C           4.3459   -0.0281    0.2464 C.ar    1  LIG1       -0.0091
     17 C           5.6865    0.4696    0.2270 C.ar    1  LIG1        0.0548
     18 C           5.6335    1.8459   -0.0653 C.ar    1  LIG1        0.0792
     19 N           4.3143    2.1575   -0.2209 N.ar    1  LIG1       -0.3518
     20 H           3.9876    3.0450   -0.5652 H       1  LIG1        0.1660
     21 C           3.9875   -1.4417    0.5950 C.3     1  LIG1       -0.0365
     22 H           4.8202   -1.9161    1.1202 H       1  LIG1        0.0279
     23 H           3.7841   -2.0486   -0.2965 H       1  LIG1        0.0279
     24 H           3.1032   -1.4932    1.2373 H       1  LIG1        0.0279
     25 C           6.8522   -0.2817    0.5143 C.1     1  LIG1       -0.0672
     26 C           7.8358   -0.9457    0.7604 C.1     1  LIG1       -0.1138
     27 H           8.7041   -1.5212    0.9823 H       1  LIG1        0.1232
     28 C           6.6462    2.8621   -0.1393 C.ar    1  LIG1        0.0648
     29 C           8.0206    2.7961   -0.3360 C.ar    1  LIG1       -0.0314
     30 C           8.5403    4.1122   -0.3324 C.ar    1  LIG1       -0.0231
     31 C           7.4619    4.9804   -0.1277 C.ar    1  LIG1        0.0663
     32 N           6.3243    4.2053   -0.0219 N.ar    1  LIG1       -0.3516
     33 H           5.4027    4.5667    0.1767 H       1  LIG1        0.1660
     34 H           8.5818    1.8827   -0.4695 H       1  LIG1        0.0642
     35 C           9.9803    4.4991   -0.4966 C.3     1  LIG1       -0.0376
     36 H          10.2299    5.3715    0.1158 H       1  LIG1        0.0278
     37 H          10.2254    4.7529   -1.5360 H       1  LIG1        0.0278
     38 H          10.6381    3.6764   -0.2010 H       1  LIG1        0.0278
     39 C           7.4161    6.4203    0.0049 C.ar    1  LIG1        0.0634
     40 C           8.2449    7.4114   -0.5042 C.ar    1  LIG1       -0.0321
     41 C           7.7440    8.6783   -0.0853 C.ar    1  LIG1       -0.0325
     42 C           6.6180    8.4259    0.6714 C.ar    1  LIG1        0.0051
     43 N           6.4145    7.0653    0.7117 N.ar    1  LIG1       -0.3593
     44 H           5.7417    6.6105    1.3085 H       1  LIG1        0.1654
     45 H           5.9475    9.1047    1.1778 H       1  LIG1        0.0809
     46 H           9.0943    7.2421   -1.1503 H       1  LIG1        0.0642
     47 C           8.3144   10.0266   -0.4160 C.3     1  LIG1       -0.0383
     48 H           7.7327   10.8277    0.0497 H       1  LIG1        0.0278
     49 H           8.3215   10.2105   -1.4969 H       1  LIG1        0.0278
     50 H           9.3493   10.1240   -0.0675 H       1  LIG1        0.0278
@<TRIPOS>BOND
     1    37    35    1
     2    49    47    1
     3    46    40    1
     4    12    11    1
     5    11    10    3
     6    10     1    1
     7     5     2    1
     8    20    19    1
     9    40    41   ar
    10    40    39   ar
    11    35    30    1
    12    35    38    1
    13    35    36    1
    14    34    29    1
    15    47    41    1
    16    47    50    1
    17    47    48    1
    18     1     2   ar
    19     1     3   ar
    20     2     4   ar
    21    29    30   ar
    22    29    28   ar
    23    30    31   ar
    24    23    21    1
    25    19    18   ar
    26    19    15   ar
    27     9     3    1
    28    28    18    1
    29    28    32   ar
    30    31    32   ar
    31    31    39    1
    32     3     6   ar
    33    41    42   ar
    34     4    15    1
    35     4     7   ar
    36    18    17   ar
    37    15    16   ar
    38    32    33    1
    39    39    43   ar
    40     6     7   ar
    41     6     8    1
    42     7    14    1
    43    17    16   ar
    44    17    25    1
    45    16    21    1
    46    14    13    3
    47    25    26    3
    48    21    22    1
    49    21    24    1
    50    42    43   ar
    51    42    45    1
    52    43    44    1
    53    26    27    1
