@<TRIPOS>MOLECULE
mol_data/opt/b3lyp/geoms/mol2/4ed6ld-13ff-13fe6ie6ee4fe6lf-.out
 104 111 0 0 0
SMALL
GASTEIGER

@<TRIPOS>ATOM
      1 C          -0.3214    0.0037   -0.0082 C.ar    1  LIG1        0.0253
      2 C           1.0395    0.1407   -0.3329 C.ar    1  LIG1       -0.0372
      3 C          -0.7114    0.0497    1.3427 C.ar    1  LIG1       -0.0451
      4 C           2.0188    0.3166    0.6488 C.ar    1  LIG1        0.0058
      5 H           1.3334    0.1272   -1.3767 H       1  LIG1        0.0636
      6 C           0.2451    0.2180    2.3330 C.ar    1  LIG1       -0.0426
      7 C           1.6045    0.3469    2.0041 C.ar    1  LIG1        0.0597
      8 H          -0.0479    0.2412    3.3771 H       1  LIG1        0.0631
      9 H          -1.7593   -0.0496    1.6023 H       1  LIG1        0.0630
     10 C          -1.2929   -0.1708   -1.0400 C.1     1  LIG1       -0.0696
     11 C          -2.1167   -0.3200   -1.9134 C.1     1  LIG1       -0.1139
     12 H          -2.8407   -0.4521   -2.6843 H       1  LIG1        0.1232
     13 N           3.2975    0.5392    3.9634 N.1     1  LIG1       -0.1909
     14 C           2.5526    0.4624    3.0727 C.1     1  LIG1        0.0998
     15 C           4.2829    1.5017    0.6360 C.ar    1  LIG1        0.2231
     16 C           3.4430    0.4216    0.2482 C.ar    1  LIG1        0.0462
     17 C           4.0295   -0.5142   -0.5913 C.ar    1  LIG1       -0.0294
     18 C           5.3826   -0.4293   -0.9682 C.ar    1  LIG1        0.0800
     19 C           6.1607    0.6229   -0.4197 C.ar    1  LIG1        0.1119
     20 N           5.5647    1.5834    0.3351 N.ar    1  LIG1       -0.2095
     21 H           3.4362   -1.3403   -0.9699 H       1  LIG1        0.0639
     22 O           3.7009    2.4910    1.3372 O.3     1  LIG1       -0.4792
     23 C           4.5373    3.5188    1.8764 C.3     1  LIG1        0.0804
     24 H           3.8682    4.1613    2.4483 H       1  LIG1        0.0660
     25 H           5.3015    3.0918    2.5307 H       1  LIG1        0.0660
     26 H           5.0181    4.0915    1.0781 H       1  LIG1        0.0660
     27 N           6.1216   -2.1014   -2.8022 N.1     1  LIG1       -0.1908
     28 C           5.8473   -1.3512   -1.9554 C.1     1  LIG1        0.1014
     29 C           7.5812    0.8067   -0.5955 C.ar    1  LIG1        0.1126
     30 C           8.6601   -0.0453   -0.8530 C.ar    1  LIG1        0.1864
     31 C           9.8520    0.7030   -0.7161 C.ar    1  LIG1        0.1864
     32 C           9.5041    2.0037   -0.3561 C.ar    1  LIG1        0.1128
     33 N           8.1258    2.0612   -0.3159 N.ar    1  LIG1       -0.3458
     34 H           7.5862    2.6913    0.2616 H       1  LIG1        0.1662
     35 O           8.6108   -1.3591   -1.1547 O.3     1  LIG1       -0.5019
     36 H           9.5227   -1.6620   -1.2826 H       1  LIG1        0.2924
     37 O          11.0657    0.1483   -0.9839 O.3     1  LIG1       -0.5019
     38 H          11.7594    0.6525   -0.5206 H       1  LIG1        0.2924
     39 C          10.3505    3.1417   -0.1304 C.ar    1  LIG1        0.1103
     40 C          11.6934    3.2113    0.1989 C.ar    1  LIG1        0.1596
     41 C          12.0787    4.5771    0.3015 C.ar    1  LIG1        0.0920
     42 C          10.9326    5.3481    0.0302 C.ar    1  LIG1        0.0679
     43 N           9.9115    4.4557   -0.2027 N.ar    1  LIG1       -0.3490
     44 H           9.0322    4.7125   -0.6226 H       1  LIG1        0.1661
     45 O          12.4870    2.1220    0.4326 O.3     1  LIG1       -0.5034
     46 H          13.3893    2.4319    0.6068 H       1  LIG1        0.2923
     47 C          13.3834    4.9739    0.6800 C.1     1  LIG1       -0.0638
     48 C          14.5297    5.2049    1.0020 C.1     1  LIG1       -0.1137
     49 H          15.5246    5.4498    1.2952 H       1  LIG1        0.1232
     50 C           9.5795    7.4966    0.2640 C.ar    1  LIG1        0.0481
     51 C          10.7782    6.7989   -0.0480 C.ar    1  LIG1        0.0218
     52 C          11.8754    7.5740   -0.4475 C.ar    1  LIG1       -0.0334
     53 C          11.7886    8.9678   -0.5329 C.ar    1  LIG1        0.0513
     54 C          10.5447    9.5642   -0.2099 C.ar    1  LIG1        0.0893
     55 N           9.4966    8.8269    0.1729 N.ar    1  LIG1       -0.2499
     56 H          12.8087    7.0922   -0.7119 H       1  LIG1        0.0637
     57 C           8.3156    6.8224    0.7445 C.3     1  LIG1       -0.0217
     58 H           8.5212    6.0050    1.4410 H       1  LIG1        0.0293
     59 H           7.7283    6.4183   -0.0923 H       1  LIG1        0.0293
     60 H           7.6914    7.5711    1.2333 H       1  LIG1        0.0293
     61 C          12.9195    9.7201   -0.9742 C.1     1  LIG1       -0.0675
     62 C          13.8957   10.3246   -1.3555 C.1     1  LIG1       -0.1138
     63 H          14.7431   10.8744   -1.6949 H       1  LIG1        0.1232
     64 C           9.2620   11.6294   -0.9568 C.ar    1  LIG1        0.1231
     65 C          10.3339   11.0360   -0.2479 C.ar    1  LIG1        0.0366
     66 C          11.1682   11.8912    0.4681 C.ar    1  LIG1       -0.0324
     67 C          10.9492   13.2756    0.4790 C.ar    1  LIG1        0.0514
     68 C           9.8678   13.7744   -0.2948 C.ar    1  LIG1        0.0913
     69 N           9.0538   12.9585   -0.9698 N.ar    1  LIG1       -0.2364
     70 H          11.9858   11.4855    1.0528 H       1  LIG1        0.0638
     71 C           8.3552   10.8562   -1.7546 C.1     1  LIG1       -0.0491
     72 C           7.5908   10.2450   -2.4645 C.1     1  LIG1       -0.1124
     73 H           6.9112    9.7092   -3.0858 H       1  LIG1        0.1232
     74 C          11.7591   14.1029    1.3115 C.1     1  LIG1       -0.0675
     75 C          12.4499   14.7559    2.0601 C.1     1  LIG1       -0.1138
     76 H          13.0498   15.3455    2.7139 H       1  LIG1        0.1232
     77 C          10.4510   16.2054   -0.7539 C.ar    1  LIG1        0.1267
     78 C          10.0682   17.5486   -0.8039 C.ar    1  LIG1       -0.0105
     79 C           9.5246   15.2219   -0.3621 C.ar    1  LIG1        0.0442
     80 C           8.7683   17.9543   -0.4961 C.ar    1  LIG1        0.0062
     81 H          10.7913   18.2960   -1.1227 H       1  LIG1        0.0661
     82 C           8.2194   15.6272   -0.0791 C.ar    1  LIG1       -0.0330
     83 C           7.8180   16.9715   -0.1239 C.ar    1  LIG1        0.0334
     84 H           7.4933   14.8715    0.1981 H       1  LIG1        0.0638
     85 O          11.6991   15.8031   -1.1214 O.3     1  LIG1       -0.5061
     86 H          12.2350   16.5792   -1.3311 H       1  LIG1        0.2922
     87 C           6.4825   17.3137    0.2506 C.1     1  LIG1       -0.0690
     88 C           5.3517   17.5728    0.5956 C.1     1  LIG1       -0.1139
     89 H           4.3560   17.8076    0.8916 H       1  LIG1        0.1232
     90 C           7.4680   19.9333   -1.4346 C.ar    1  LIG1        0.2226
     91 C           8.4349   19.4030   -0.5401 C.ar    1  LIG1        0.0484
     92 C           9.0933   20.3104    0.2810 C.ar    1  LIG1       -0.0058
     93 C           8.7701   21.6730    0.2235 C.ar    1  LIG1        0.1357
     94 C           7.7852   22.0726   -0.6712 C.ar    1  LIG1        0.0728
     95 N           7.1519   21.2172   -1.4893 N.ar    1  LIG1       -0.2172
     96 H           9.8430   19.9702    0.9879 H       1  LIG1        0.0662
     97 H           7.4910   23.1205   -0.7422 H       1  LIG1        0.0868
     98 O           6.8751   19.0618   -2.2819 O.3     1  LIG1       -0.4792
     99 C           5.8523   19.5767   -3.1340 C.3     1  LIG1        0.0804
    100 H           5.4996   18.7208   -3.7105 H       1  LIG1        0.0660
    101 H           5.0318   20.0048   -2.5504 H       1  LIG1        0.0660
    102 H           6.2440   20.3504   -3.8011 H       1  LIG1        0.0660
    103 O           9.4371   22.5305    1.0564 O.3     1  LIG1       -0.5052
    104 H           9.0993   23.4259    0.9213 H       1  LIG1        0.2922
@<TRIPOS>BOND
     1   102    99    1
     2   100    99    1
     3    99   101    1
     4    99    98    1
     5    73    72    1
     6    27    28    3
     7    12    11    1
     8    72    71    3
     9    98    90    1
    10    28    18    1
    11    11    10    3
    12    71    64    1
    13    63    62    1
    14    95    90   ar
    15    95    94   ar
    16    90    91   ar
    17     5     2    1
    18    62    61    3
    19    86    85    1
    20    36    35    1
    21    35    30    1
    22    81    78    1
    23    85    77    1
    24    10     1    1
    25    37    31    1
    26    37    38    1
    27    61    53    1
    28    21    17    1
    29    69    64   ar
    30    69    68   ar
    31    18    17   ar
    32    18    19   ar
    33    64    65   ar
    34    30    31   ar
    35    30    29   ar
    36    78    77   ar
    37    78    80   ar
    38    77    79   ar
    39    97    94    1
    40    31    32   ar
    41    56    52    1
    42    94    93   ar
    43    44    43    1
    44    29    19    1
    45    29    33   ar
    46    17    16   ar
    47    91    80    1
    48    91    92   ar
    49    53    52   ar
    50    53    54   ar
    51    80    83   ar
    52    52    51   ar
    53    19    20   ar
    54    79    68    1
    55    79    82   ar
    56    32    33   ar
    57    32    39    1
    58     2     1   ar
    59     2     4   ar
    60    33    34    1
    61    68    67   ar
    62    65    54    1
    63    65    66   ar
    64    54    55   ar
    65    43    39   ar
    66    43    42   ar
    67    39    40   ar
    68    83    82   ar
    69    83    87    1
    70    59    57    1
    71    82    84    1
    72    51    42    1
    73    51    50   ar
    74     1     3   ar
    75    42    41   ar
    76    55    50   ar
    77    40    41   ar
    78    40    45    1
    79    93    92   ar
    80    93   103    1
    81    16    15   ar
    82    16     4    1
    83    87    88    3
    84    50    57    1
    85    92    96    1
    86    41    47    1
    87    20    15   ar
    88    45    46    1
    89    66    67   ar
    90    66    70    1
    91    67    74    1
    92    88    89    1
    93    15    22    1
    94     4     7   ar
    95    47    48    3
    96    57    60    1
    97    57    58    1
    98   104   103    1
    99    48    49    1
   100    26    23    1
   101    74    75    3
   102    22    23    1
   103     3     9    1
   104     3     6   ar
   105    23    24    1
   106    23    25    1
   107     7     6   ar
   108     7    14    1
   109    75    76    1
   110     6     8    1
   111    14    13    3
