@<TRIPOS>MOLECULE
mol_data/opt/b3lyp/geoms/mol2/4ee.out
 16 16 0 0 0
SMALL
GASTEIGER

@<TRIPOS>ATOM
      1 C           0.0865    0.0197    0.0004 C.ar    1  LIG1        0.0248
      2 C           1.4948    0.0199    0.0000 C.ar    1  LIG1       -0.0452
      3 C          -0.5919    1.2538    0.0003 C.ar    1  LIG1       -0.0452
      4 C           2.2013    1.2147   -0.0005 C.ar    1  LIG1       -0.0452
      5 H           2.0245   -0.9267    0.0002 H       1  LIG1        0.0630
      6 C           0.1145    2.4486   -0.0003 C.ar    1  LIG1       -0.0452
      7 C           1.5228    2.4488   -0.0007 C.ar    1  LIG1        0.0248
      8 H          -0.4152    3.3953   -0.0004 H       1  LIG1        0.0630
      9 H           3.2860    1.2067   -0.0009 H       1  LIG1        0.0630
     10 H          -1.6767    1.2618    0.0006 H       1  LIG1        0.0630
     11 C          -0.6404   -1.2095    0.0011 C.1     1  LIG1       -0.0697
     12 C          -1.2568   -2.2511    0.0015 C.1     1  LIG1       -0.1139
     13 H          -1.7993   -3.1680    0.0009 H       1  LIG1        0.1232
     14 C           2.2497    3.6780   -0.0013 C.1     1  LIG1       -0.0697
     15 C           2.8659    4.7198   -0.0017 C.1     1  LIG1       -0.1139
     16 H           3.4082    5.6369   -0.0013 H       1  LIG1        0.1232
@<TRIPOS>BOND
     1    15    14    3
     2    15    16    1
     3    14     7    1
     4     9     4    1
     5     7     4   ar
     6     7     6   ar
     7     4     2   ar
     8     8     6    1
     9     6     3   ar
    10     2     5    1
    11     2     1   ar
    12     3     1   ar
    13     3    10    1
    14     1    11    1
    15    13    12    1
    16    11    12    3
