@<TRIPOS>MOLECULE
mol_data/opt/b3lyp/geoms/mol2/4ee13ih13ad12fh-.out
 48 51 0 0 0
SMALL
GASTEIGER

@<TRIPOS>ATOM
      1 C          -0.1159    0.1742   -0.4642 C.ar    1  LIG1        0.0254
      2 C           1.2850    0.2286   -0.4666 C.ar    1  LIG1       -0.0360
      3 C          -0.8386    1.1246    0.2817 C.ar    1  LIG1       -0.0451
      4 C           2.0052    1.1864    0.2673 C.ar    1  LIG1        0.0151
      5 H           1.8246   -0.4782   -1.0832 H       1  LIG1        0.0637
      6 C          -0.1538    2.0929    0.9967 C.ar    1  LIG1       -0.0445
      7 C           1.2539    2.1446    1.0123 C.ar    1  LIG1        0.0339
      8 H          -0.7017    2.8314    1.5725 H       1  LIG1        0.0630
      9 H          -1.9224    1.0968    0.2863 H       1  LIG1        0.0630
     10 C          -0.7979   -0.8219   -1.2286 C.1     1  LIG1       -0.0696
     11 C          -1.3787   -1.6653   -1.8736 C.1     1  LIG1       -0.1139
     12 H          -1.8892   -2.4082   -2.4416 H       1  LIG1        0.1232
     13 C           1.8596    3.1627    1.8127 C.1     1  LIG1       -0.0690
     14 C           2.3194    4.0505    2.4988 C.1     1  LIG1       -0.1139
     15 H           2.7268    4.8055    3.1313 H       1  LIG1        0.1232
     16 C           3.4680    1.1632    0.2181 C.ar    1  LIG1        0.0529
     17 C           4.3520    0.0861    0.0749 C.ar    1  LIG1       -0.0039
     18 C           5.6694    0.6230    0.0876 C.ar    1  LIG1        0.0552
     19 C           5.5725    2.0049    0.2445 C.ar    1  LIG1        0.0845
     20 N           4.2245    2.3150    0.2966 N.ar    1  LIG1       -0.3513
     21 H           3.8585    3.1760    0.6767 H       1  LIG1        0.1660
     22 C           4.0533   -1.3819   -0.0173 C.3     1  LIG1       -0.0359
     23 H           4.8460   -1.9547    0.4763 H       1  LIG1        0.0279
     24 H           3.9891   -1.7444   -1.0530 H       1  LIG1        0.0279
     25 H           3.1107   -1.6370    0.4737 H       1  LIG1        0.0279
     26 N           6.8523   -0.1238   -0.0036 N.pl3   1  LIG1       -0.3561
     27 H           6.7755   -0.9062   -0.6433 H       1  LIG1        0.1424
     28 H           7.6513    0.4471   -0.2587 H       1  LIG1        0.1424
     29 C           6.6094    3.0055    0.2845 C.ar    1  LIG1        0.0665
     30 C           7.9139    2.9470    0.7437 C.ar    1  LIG1       -0.0168
     31 C           8.5191    4.2237    0.5196 C.ar    1  LIG1        0.0807
     32 C           7.5515    5.0513   -0.0693 C.ar    1  LIG1        0.1039
     33 N           6.4117    4.2920   -0.1928 N.ar    1  LIG1       -0.3494
     34 H           5.5960    4.6063   -0.6956 H       1  LIG1        0.1661
     35 H           8.3771    2.1110    1.2459 H       1  LIG1        0.0652
     36 N          10.9831    4.7210    1.1104 N.1     1  LIG1       -0.1908
     37 C           9.8656    4.5365    0.8379 C.1     1  LIG1        0.1014
     38 C           7.5542    6.4112   -0.5285 C.ar    1  LIG1        0.1952
     39 C           8.3923    7.4964   -0.4302 C.ar    1  LIG1        0.1853
     40 C           7.7686    8.5858   -1.1252 C.ar    1  LIG1        0.1057
     41 C           6.5805    8.1077   -1.5963 C.ar    1  LIG1        0.1170
     42 O           6.4292    6.8016   -1.2468 O.2     1  LIG1       -0.4557
     43 H           5.7723    8.5477   -2.1601 H       1  LIG1        0.1050
     44 O           9.5732    7.5905    0.2062 O.3     1  LIG1       -0.5020
     45 H           9.8373    8.5252    0.1317 H       1  LIG1        0.2924
     46 N           8.4014    9.8587   -1.1749 N.pl3   1  LIG1       -0.3527
     47 H           8.8081   10.0508   -2.0863 H       1  LIG1        0.1425
     48 H           7.7667   10.6167   -0.9459 H       1  LIG1        0.1425
@<TRIPOS>BOND
     1    12    11    1
     2    43    41    1
     3    47    46    1
     4    11    10    3
     5    41    42   ar
     6    41    40   ar
     7    42    38   ar
     8    10     1    1
     9    46    40    1
    10    46    48    1
    11    40    39   ar
    12     5     2    1
    13    24    22    1
    14    34    33    1
    15    27    26    1
    16    38    39   ar
    17    38    32    1
    18     2     1   ar
    19     2     4   ar
    20     1     3   ar
    21    39    44    1
    22    28    26    1
    23    33    32   ar
    24    33    29   ar
    25    32    31   ar
    26    22    17    1
    27    22    25    1
    28    22    23    1
    29    26    18    1
    30    17    18   ar
    31    17    16   ar
    32    18    19   ar
    33    45    44    1
    34    16     4    1
    35    16    20   ar
    36    19    29    1
    37    19    20   ar
    38     4     7   ar
    39     3     9    1
    40     3     6   ar
    41    29    30   ar
    42    20    21    1
    43    31    30   ar
    44    31    37    1
    45    30    35    1
    46    37    36    3
    47     6     7   ar
    48     6     8    1
    49     7    13    1
    50    13    14    3
    51    14    15    1
