@<TRIPOS>MOLECULE
mol_data/opt/b3lyp/geoms/mol2/4ee4ee4ee4ee.out
 58 61 0 0 0
SMALL
GASTEIGER

@<TRIPOS>ATOM
      1 C          -0.1762    1.0313    1.3695 C.ar    1  LIG1        0.0253
      2 C           1.2232    0.9928    1.2547 C.ar    1  LIG1       -0.0374
      3 C          -0.9518    1.1301    0.1993 C.ar    1  LIG1       -0.0451
      4 C           1.8618    1.0532    0.0137 C.ar    1  LIG1       -0.0001
      5 H           1.8209    0.9218    2.1560 H       1  LIG1        0.0636
      6 C          -0.3340    1.1851   -1.0399 C.ar    1  LIG1       -0.0446
      7 C           1.0695    1.1483   -1.1593 C.ar    1  LIG1        0.0325
      8 H          -0.9303    1.2530   -1.9434 H       1  LIG1        0.0630
      9 H          -2.0333    1.1611    0.2754 H       1  LIG1        0.0630
     10 C          -0.7984    0.9770    2.6540 C.1     1  LIG1       -0.0696
     11 C          -1.3289    0.9311    3.7408 C.1     1  LIG1       -0.1139
     12 H          -1.7936    0.8918    4.6987 H       1  LIG1        0.1232
     13 C           1.6461    1.1820   -2.4664 C.1     1  LIG1       -0.0691
     14 C           2.0882    1.2079   -3.5928 C.1     1  LIG1       -0.1139
     15 H           2.4979    1.2280   -4.5761 H       1  LIG1        0.1232
     16 C           4.1213   -0.0046    0.5099 C.ar    1  LIG1        0.0331
     17 C           5.5236    0.0639    0.4490 C.ar    1  LIG1       -0.0368
     18 C           3.3509    1.0474   -0.0463 C.ar    1  LIG1       -0.0001
     19 C           6.1960    1.1358   -0.1376 C.ar    1  LIG1       -0.0001
     20 H           6.0966   -0.7498    0.8778 H       1  LIG1        0.0636
     21 C           4.0229    2.1149   -0.6408 C.ar    1  LIG1       -0.0368
     22 C           5.4252    2.1855   -0.6986 C.ar    1  LIG1        0.0331
     23 H           3.4494    2.9251   -1.0756 H       1  LIG1        0.0636
     24 C           3.5209   -1.1511    1.1165 C.1     1  LIG1       -0.0690
     25 C           3.0544   -2.1407    1.6340 C.1     1  LIG1       -0.1139
     26 H           2.6278   -3.0055    2.0871 H       1  LIG1        0.1232
     27 C           6.0237    3.3107   -1.3456 C.1     1  LIG1       -0.0690
     28 C           6.4879    4.2774   -1.9064 C.1     1  LIG1       -0.1139
     29 H           6.9148    5.1219   -2.3961 H       1  LIG1        0.1232
     30 C           8.4572    0.1141   -0.6945 C.ar    1  LIG1        0.0331
     31 C           9.8594    0.1848   -0.6337 C.ar    1  LIG1       -0.0368
     32 C           7.6851    1.1642   -0.1360 C.ar    1  LIG1       -0.0001
     33 C          10.5301    1.2528   -0.0386 C.ar    1  LIG1       -0.0001
     34 H          10.4339   -0.6258   -1.0666 H       1  LIG1        0.0636
     35 C           8.3563    2.2366    0.4512 C.ar    1  LIG1       -0.0368
     36 C           9.7585    2.3052    0.5151 C.ar    1  LIG1        0.0331
     37 H           7.7823    3.0506    0.8781 H       1  LIG1        0.0636
     38 C           7.8601   -1.0116   -1.3418 C.1     1  LIG1       -0.0690
     39 C           7.3972   -1.9788   -1.9030 C.1     1  LIG1       -0.1139
     40 H           6.9713   -2.8237   -2.3928 H       1  LIG1        0.1232
     41 C          10.3575    3.4522    1.1221 C.1     1  LIG1       -0.0690
     42 C          10.8226    4.4422    1.6399 C.1     1  LIG1       -0.1139
     43 H          11.2486    5.3075    2.0927 H       1  LIG1        0.1232
     44 C          12.8138    1.1512   -1.1468 C.ar    1  LIG1        0.0325
     45 C          14.2170    1.1147   -1.0245 C.ar    1  LIG1       -0.0446
     46 C          12.0190    1.2472    0.0245 C.ar    1  LIG1       -0.0001
     47 C          14.8322    1.1706    0.2160 C.ar    1  LIG1       -0.0451
     48 H          14.8152    1.0461   -1.9267 H       1  LIG1        0.0630
     49 C          12.6551    1.3085    1.2668 C.ar    1  LIG1       -0.0374
     50 C          14.0543    1.2702    1.3845 C.ar    1  LIG1        0.0253
     51 H          12.0555    1.3801    2.1668 H       1  LIG1        0.0636
     52 H          15.9136    1.1398    0.2943 H       1  LIG1        0.0630
     53 C          12.2399    1.1166   -2.4551 C.1     1  LIG1       -0.0691
     54 C          11.8003    1.0898   -3.5824 C.1     1  LIG1       -0.1139
     55 H          11.3926    1.0679   -4.5665 H       1  LIG1        0.1232
     56 C          14.6738    1.3255    2.6702 C.1     1  LIG1       -0.0696
     57 C          15.2021    1.3722    3.7581 C.1     1  LIG1       -0.1139
     58 H          15.6648    1.4121    4.7169 H       1  LIG1        0.1232
@<TRIPOS>BOND
     1    15    14    1
     2    55    54    1
     3    14    13    3
     4    54    53    3
     5    13     7    1
     6    53    44    1
     7    29    28    1
     8    40    39    1
     9     8     6    1
    10    48    45    1
    11    28    27    3
    12    39    38    3
    13    27    22    1
    14    38    30    1
    15     7     6   ar
    16     7     4   ar
    17    44    45   ar
    18    44    46   ar
    19    23    21    1
    20    34    31    1
    21     6     3   ar
    22    45    47   ar
    23    22    21   ar
    24    22    19   ar
    25    30    31   ar
    26    30    32   ar
    27    21    18   ar
    28    31    33   ar
    29    19    32    1
    30    19    17   ar
    31    32    35   ar
    32    18     4    1
    33    18    16   ar
    34    33    46    1
    35    33    36   ar
    36     4     2   ar
    37    46    49   ar
    38     3     9    1
    39     3     1   ar
    40    47    52    1
    41    47    50   ar
    42    17    16   ar
    43    17    20    1
    44    35    36   ar
    45    35    37    1
    46    16    24    1
    47    36    41    1
    48    24    25    3
    49    41    42    3
    50     2     1   ar
    51     2     5    1
    52    49    50   ar
    53    49    51    1
    54     1    10    1
    55    50    56    1
    56    25    26    1
    57    42    43    1
    58    10    11    3
    59    56    57    3
    60    11    12    1
    61    57    58    1
