@<TRIPOS>MOLECULE
mol_data/opt/b3lyp/geoms/mol2/4ee4af6li-12le-.out
 56 59 0 0 0
SMALL
GASTEIGER

@<TRIPOS>ATOM
      1 C          -0.3760    0.1807   -0.2002 C.ar    1  LIG1        0.0253
      2 C           1.0267    0.2198   -0.2564 C.ar    1  LIG1       -0.0374
      3 C          -1.0772    1.3677    0.0809 C.ar    1  LIG1       -0.0451
      4 C           1.7493    1.3991   -0.0439 C.ar    1  LIG1       -0.0012
      5 H           1.5676   -0.6997   -0.4504 H       1  LIG1        0.0636
      6 C          -0.3806    2.5472    0.2900 C.ar    1  LIG1       -0.0446
      7 C           1.0269    2.5914    0.2305 C.ar    1  LIG1        0.0324
      8 H          -0.9186    3.4667    0.4946 H       1  LIG1        0.0630
      9 H          -2.1605    1.3524    0.1307 H       1  LIG1        0.0630
     10 C          -1.0750   -1.0461   -0.4160 C.1     1  LIG1       -0.0696
     11 C          -1.6697   -2.0841   -0.5994 C.1     1  LIG1       -0.1139
     12 H          -2.1918   -2.9987   -0.7606 H       1  LIG1        0.1232
     13 C           1.6629    3.8590    0.4101 C.1     1  LIG1       -0.0691
     14 C           2.1360    4.9631    0.5619 C.1     1  LIG1       -0.1139
     15 H           2.5725    5.9278    0.6796 H       1  LIG1        0.1232
     16 C           3.8652    0.6779   -1.1776 C.ar    1  LIG1       -0.0532
     17 C           5.2551    0.6102   -1.2338 C.ar    1  LIG1       -0.0498
     18 C           3.2339    1.3505   -0.1212 C.ar    1  LIG1       -0.0132
     19 C           6.0674    1.1962   -0.2553 C.ar    1  LIG1        0.0287
     20 H           5.7343    0.1123   -2.0716 H       1  LIG1        0.0625
     21 C           4.0340    1.9285    0.8735 C.ar    1  LIG1       -0.0118
     22 C           5.4258    1.8508    0.8159 C.ar    1  LIG1        0.1253
     23 H           3.5666    2.4288    1.7169 H       1  LIG1        0.0660
     24 H           3.2696    0.2391   -1.9713 H       1  LIG1        0.0624
     25 O           6.2111    2.3622    1.8076 O.3     1  LIG1       -0.5061
     26 H           5.6496    2.8200    2.4468 H       1  LIG1        0.2922
     27 C           8.3974    2.2218   -0.3875 C.ar    1  LIG1        0.2232
     28 C           7.5448    1.0897   -0.3348 C.ar    1  LIG1        0.0474
     29 C           8.1805   -0.1432   -0.4236 C.ar    1  LIG1       -0.0438
     30 C           9.5763   -0.2704   -0.5169 C.ar    1  LIG1       -0.0205
     31 C          10.3066    0.9286   -0.4868 C.ar    1  LIG1        0.1164
     32 N           9.7134    2.1432   -0.4435 N.ar    1  LIG1       -0.2089
     33 H           7.5697   -1.0425   -0.4198 H       1  LIG1        0.0629
     34 O           7.8090    3.4387   -0.4033 O.3     1  LIG1       -0.4792
     35 C           8.6732    4.5751   -0.4463 C.3     1  LIG1        0.0804
     36 H           8.0097    5.4410   -0.4633 H       1  LIG1        0.0660
     37 H           9.3231    4.6105    0.4329 H       1  LIG1        0.0660
     38 H           9.3037    4.5606   -1.3399 H       1  LIG1        0.0660
     39 C          10.2040   -1.6332   -0.6744 C.3     1  LIG1       -0.0376
     40 H          10.6377   -1.9968    0.2613 H       1  LIG1        0.0278
     41 H          11.0173   -1.6132   -1.4063 H       1  LIG1        0.0278
     42 H           9.4585   -2.3582   -1.0133 H       1  LIG1        0.0278
     43 C          11.7737    0.9715   -0.5249 C.ar    1  LIG1        0.1959
     44 C          12.7748    0.2818    0.1131 C.ar    1  LIG1        0.1826
     45 C          14.0353    0.8557   -0.3142 C.ar    1  LIG1        0.1047
     46 C          13.6864    1.8613   -1.1783 C.ar    1  LIG1        0.1117
     47 O          12.3476    1.9447   -1.3140 O.2     1  LIG1       -0.4563
     48 H          14.2759    2.5594   -1.7520 H       1  LIG1        0.1043
     49 O          12.6025   -0.7537    0.9778 O.3     1  LIG1       -0.4901
     50 C          13.0542   -0.5067    2.3166 C.3     1  LIG1        0.0790
     51 H          12.5058    0.3321    2.7613 H       1  LIG1        0.0660
     52 H          12.8467   -1.4189    2.8784 H       1  LIG1        0.0660
     53 H          14.1280   -0.2980    2.3416 H       1  LIG1        0.0660
     54 C          15.3450    0.4572    0.0536 C.1     1  LIG1       -0.0628
     55 C          16.4616    0.1153    0.3722 C.1     1  LIG1       -0.1137
     56 H          17.4461   -0.1921    0.6387 H       1  LIG1        0.1232
@<TRIPOS>BOND
     1    20    17    1
     2    24    16    1
     3    48    46    1
     4    41    39    1
     5    38    35    1
     6    47    46   ar
     7    47    43   ar
     8    17    16   ar
     9    17    19   ar
    10    46    45   ar
    11    16    18   ar
    12    42    39    1
    13    12    11    1
    14    39    30    1
    15    39    40    1
    16    11    10    3
    17    43    31    1
    18    43    44   ar
    19    30    31   ar
    20    30    29   ar
    21    31    32   ar
    22    36    35    1
    23     5     2    1
    24    35    34    1
    25    35    37    1
    26    32    27   ar
    27    29    33    1
    28    29    28   ar
    29    10     1    1
    30    34    27    1
    31    27    28   ar
    32    28    19    1
    33    45    54    1
    34    45    44   ar
    35     2     1   ar
    36     2     4   ar
    37    19    22   ar
    38     1     3   ar
    39    18     4    1
    40    18    21   ar
    41     4     7   ar
    42    54    55    3
    43     3     9    1
    44     3     6   ar
    45    44    49    1
    46     7     6   ar
    47     7    13    1
    48     6     8    1
    49    55    56    1
    50    13    14    3
    51    14    15    1
    52    22    21   ar
    53    22    25    1
    54    21    23    1
    55    49    50    1
    56    25    26    1
    57    50    53    1
    58    50    51    1
    59    50    52    1
