@<TRIPOS>MOLECULE
mol_data/opt/b3lyp/geoms/mol2/4ee4ee4ee.out
 44 46 0 0 0
SMALL
GASTEIGER

@<TRIPOS>ATOM
      1 C          -0.0954    0.5581    1.0990 C.ar    1  LIG1        0.0253
      2 C           1.3062    0.5410    1.0068 C.ar    1  LIG1       -0.0374
      3 C          -0.8344    1.2150    0.0975 C.ar    1  LIG1       -0.0451
      4 C           1.9821    1.1596   -0.0476 C.ar    1  LIG1       -0.0001
      5 H           1.8762    0.0397    1.7803 H       1  LIG1        0.0636
      6 C          -0.1794    1.8289   -0.9582 C.ar    1  LIG1       -0.0446
      7 C           1.2263    1.8155   -1.0535 C.ar    1  LIG1        0.0325
      8 H          -0.7478    2.3288   -1.7351 H       1  LIG1        0.0630
      9 H          -1.9171    1.2353    0.1581 H       1  LIG1        0.0630
     10 C          -0.7560   -0.0758    2.1952 C.1     1  LIG1       -0.0696
     11 C          -1.3190   -0.6120    3.1227 C.1     1  LIG1       -0.1139
     12 H          -1.8124   -1.0836    3.9407 H       1  LIG1        0.1232
     13 C           1.8420    2.4441   -2.1795 C.1     1  LIG1       -0.0691
     14 C           2.3178    2.9846   -3.1524 C.1     1  LIG1       -0.1139
     15 H           2.7571    3.4543   -4.0018 H       1  LIG1        0.1232
     16 C           4.2096   -0.0683   -0.0643 C.ar    1  LIG1        0.0331
     17 C           5.6141   -0.0174   -0.0591 C.ar    1  LIG1       -0.0368
     18 C           3.4721    1.1424   -0.0746 C.ar    1  LIG1       -0.0001
     19 C           6.3194    1.1856   -0.0591 C.ar    1  LIG1       -0.0001
     20 H           6.1621   -0.9523   -0.0527 H       1  LIG1        0.0636
     21 C           4.1775    2.3453   -0.0831 C.ar    1  LIG1       -0.0368
     22 C           5.5819    2.3962   -0.0734 C.ar    1  LIG1        0.0331
     23 H           3.6294    3.2801   -0.0957 H       1  LIG1        0.0636
     24 C           3.5744   -1.3485   -0.0798 C.1     1  LIG1       -0.0690
     25 C           3.0787   -2.4525   -0.0974 C.1     1  LIG1       -0.1139
     26 H           2.6257   -3.4167   -0.1130 H       1  LIG1        0.1232
     27 C           6.2170    3.6764   -0.0994 C.1     1  LIG1       -0.0690
     28 C           6.7122    4.7803   -0.1268 C.1     1  LIG1       -0.1139
     29 H           7.1648    5.7445   -0.1509 H       1  LIG1        0.1232
     30 C           8.5763    0.4982   -1.0019 C.ar    1  LIG1        0.0325
     31 C           9.9809    0.4865   -0.8903 C.ar    1  LIG1       -0.0446
     32 C           7.8090    1.1688   -0.0148 C.ar    1  LIG1       -0.0001
     33 C          10.6237    1.1162    0.1635 C.ar    1  LIG1       -0.0451
     34 H          10.5581   -0.0248   -1.6531 H       1  LIG1        0.0630
     35 C           8.4729    1.8032    1.0380 C.ar    1  LIG1       -0.0374
     36 C           9.8732    1.7878    1.1465 C.ar    1  LIG1        0.0253
     37 H           7.8941    2.3158    1.7974 H       1  LIG1        0.0636
     38 H          11.7057    1.0970    0.2369 H       1  LIG1        0.0630
     39 C           7.9739   -0.1469   -2.1258 C.1     1  LIG1       -0.0691
     40 C           7.5099   -0.7017   -3.0963 C.1     1  LIG1       -0.1139
     41 H           7.0808   -1.1838   -3.9440 H       1  LIG1        0.1232
     42 C          10.5211    2.4382    2.2406 C.1     1  LIG1       -0.0696
     43 C          11.0734    2.9883    3.1665 C.1     1  LIG1       -0.1139
     44 H          11.5573    3.4723    3.9830 H       1  LIG1        0.1232
@<TRIPOS>BOND
     1    15    14    1
     2    41    40    1
     3    14    13    3
     4    40    39    3
     5    13     7    1
     6    39    30    1
     7     8     6    1
     8    34    31    1
     9     7     6   ar
    10     7     4   ar
    11    30    31   ar
    12    30    32   ar
    13     6     3   ar
    14    31    33   ar
    15    29    28    1
    16    28    27    3
    17    26    25    1
    18    27    22    1
    19    25    24    3
    20    23    21    1
    21    21    18   ar
    22    21    22   ar
    23    24    16    1
    24    18    16   ar
    25    18     4    1
    26    22    19   ar
    27    16    17   ar
    28    19    17   ar
    29    19    32    1
    30    17    20    1
    31     4     2   ar
    32    32    35   ar
    33     3     9    1
    34     3     1   ar
    35    33    38    1
    36    33    36   ar
    37     2     1   ar
    38     2     5    1
    39    35    36   ar
    40    35    37    1
    41     1    10    1
    42    36    42    1
    43    10    11    3
    44    42    43    3
    45    11    12    1
    46    43    44    1
