@<TRIPOS>MOLECULE
mol_data/opt/b3lyp/geoms/mol2/4ee4ee.out
 30 31 0 0 0
SMALL
GASTEIGER

@<TRIPOS>ATOM
      1 C          -0.0030    0.1526    0.6282 C.ar    1  LIG1        0.0253
      2 C           1.4005    0.1631    0.5719 C.ar    1  LIG1       -0.0374
      3 C          -0.7141    1.2210    0.0508 C.ar    1  LIG1       -0.0451
      4 C           2.1048    1.2040   -0.0376 C.ar    1  LIG1       -0.0001
      5 H           1.9493   -0.6568    1.0207 H       1  LIG1        0.0636
      6 C          -0.0305    2.2588   -0.5623 C.ar    1  LIG1       -0.0446
      7 C           1.3773    2.2736   -0.6195 C.ar    1  LIG1        0.0325
      8 H          -0.5773    3.0793   -1.0145 H       1  LIG1        0.0630
      9 H          -1.7981    1.2244    0.0884 H       1  LIG1        0.0630
     10 C          -0.6936   -0.9224    1.2665 C.1     1  LIG1       -0.0696
     11 C          -1.2820   -1.8317    1.8064 C.1     1  LIG1       -0.1139
     12 H          -1.7980   -2.6326    2.2833 H       1  LIG1        0.1232
     13 C           2.0245    3.3586   -1.2875 C.1     1  LIG1       -0.0691
     14 C           2.5281    4.2944   -1.8668 C.1     1  LIG1       -0.1139
     15 H           2.9899    5.1096   -2.3741 H       1  LIG1        0.1232
     16 C           4.3248    0.1105   -0.6136 C.ar    1  LIG1        0.0325
     17 C           5.7324    0.1253   -0.5526 C.ar    1  LIG1       -0.0446
     18 C           3.5958    1.1812   -0.0354 C.ar    1  LIG1       -0.0001
     19 C           6.4144    1.1640    0.0607 C.ar    1  LIG1       -0.0451
     20 H           6.2804   -0.6959   -1.0020 H       1  LIG1        0.0630
     21 C           4.2985    2.2229    0.5743 C.ar    1  LIG1       -0.0374
     22 C           5.7018    2.2333    0.6345 C.ar    1  LIG1        0.0253
     23 H           3.7486    3.0436    1.0203 H       1  LIG1        0.0636
     24 H           7.4983    1.1606    0.1011 H       1  LIG1        0.0630
     25 C           3.6792   -0.9755   -1.2815 C.1     1  LIG1       -0.0691
     26 C           3.1771   -1.9122   -1.8607 C.1     1  LIG1       -0.1139
     27 H           2.7165   -2.7282   -2.3678 H       1  LIG1        0.1232
     28 C           6.3906    3.3093    1.2730 C.1     1  LIG1       -0.0696
     29 C           6.9775    4.2196    1.8132 C.1     1  LIG1       -0.1139
     30 H           7.4922    5.0210    2.2904 H       1  LIG1        0.1232
@<TRIPOS>BOND
     1    15    14    1
     2    27    26    1
     3    14    13    3
     4    26    25    3
     5    13     7    1
     6    25    16    1
     7     8     6    1
     8    20    17    1
     9     7     6   ar
    10     7     4   ar
    11    16    17   ar
    12    16    18   ar
    13     6     3   ar
    14    17    19   ar
    15     4    18    1
    16     4     2   ar
    17    18    21   ar
    18     3     9    1
    19     3     1   ar
    20    19    24    1
    21    19    22   ar
    22     2     1   ar
    23     2     5    1
    24    21    22   ar
    25    21    23    1
    26     1    10    1
    27    22    28    1
    28    10    11    3
    29    28    29    3
    30    11    12    1
    31    29    30    1
