@<TRIPOS>MOLECULE
mol_data/opt/b3lyp/geoms/mol2/4ef.out
 15 15 0 0 0
SMALL
GASTEIGER

@<TRIPOS>ATOM
      1 C           0.0896    0.0352    0.0004 C.ar    1  LIG1        0.0249
      2 C           1.4989    0.0513   -0.0000 C.ar    1  LIG1       -0.0429
      3 C          -0.5923    1.2651    0.0002 C.ar    1  LIG1       -0.0429
      4 C           2.2009    1.2485   -0.0005 C.ar    1  LIG1       -0.0190
      5 H           2.0376   -0.8905    0.0000 H       1  LIG1        0.0631
      6 C           0.1066    2.4677   -0.0002 C.ar    1  LIG1       -0.0190
      7 C           1.5060    2.4643   -0.0005 C.ar    1  LIG1        0.1169
      8 H          -0.4352    3.4111   -0.0003 H       1  LIG1        0.0654
      9 H           3.2858    1.2650   -0.0008 H       1  LIG1        0.0654
     10 H          -1.6769    1.2704    0.0005 H       1  LIG1        0.0631
     11 C          -0.6297   -1.1992    0.0008 C.1     1  LIG1       -0.0697
     12 C          -1.2371   -2.2465    0.0011 C.1     1  LIG1       -0.1139
     13 H          -1.7733   -3.1668    0.0012 H       1  LIG1        0.1232
     14 O           2.2470    3.6100   -0.0010 O.3     1  LIG1       -0.5068
     15 H           1.6536    4.3727   -0.0011 H       1  LIG1        0.2921
@<TRIPOS>BOND
     1    15    14    1
     2    14     7    1
     3     9     4    1
     4     7     4   ar
     5     7     6   ar
     6     4     2   ar
     7     8     6    1
     8     6     3   ar
     9     2     5    1
    10     2     1   ar
    11     3     1   ar
    12     3    10    1
    13     1    11    1
    14    11    12    3
    15    12    13    1
