@<TRIPOS>MOLECULE
mol_data/opt/b3lyp/geoms/mol2/4ef13li4la-12ih.out
 56 59 0 0 0
SMALL
GASTEIGER

@<TRIPOS>ATOM
      1 C           0.0882   -0.2974   -1.3816 C.ar    1  LIG1        0.0255
      2 C           1.3122   -0.2029   -0.7024 C.ar    1  LIG1       -0.0336
      3 C          -0.3583    0.7979   -2.1411 C.ar    1  LIG1       -0.0429
      4 C           2.1127    0.9532   -0.7425 C.ar    1  LIG1        0.0444
      5 H           1.6665   -1.0518   -0.1326 H       1  LIG1        0.0637
      6 C           0.4203    1.9462   -2.2095 C.ar    1  LIG1       -0.0184
      7 C           1.6357    2.0309   -1.5290 C.ar    1  LIG1        0.1261
      8 H           0.0840    2.7963   -2.8000 H       1  LIG1        0.0655
      9 H          -1.3021    0.7417   -2.6718 H       1  LIG1        0.0631
     10 C          -0.6899   -1.4947   -1.3059 C.1     1  LIG1       -0.0696
     11 C          -1.3541   -2.5047   -1.2444 C.1     1  LIG1       -0.1139
     12 H          -1.9341   -3.3964   -1.1900 H       1  LIG1        0.1232
     13 O           2.4023    3.1684   -1.6071 O.3     1  LIG1       -0.5061
     14 H           1.9557    3.8183   -2.1644 H       1  LIG1        0.2922
     15 C           3.3694    1.0009    0.0019 C.ar    1  LIG1        0.0930
     16 C           3.9019    0.1228    0.9574 C.ar    1  LIG1        0.1488
     17 C           5.1737    0.5841    1.3687 C.ar    1  LIG1        0.0172
     18 C           5.4131    1.7659    0.6500 C.ar    1  LIG1        0.0570
     19 N           4.3204    1.9811   -0.1566 N.ar    1  LIG1       -0.3508
     20 H           4.2328    2.7682   -0.7825 H       1  LIG1        0.1660
     21 O           3.3197   -1.0425    1.4050 O.3     1  LIG1       -0.4927
     22 C           2.5834   -0.8933    2.6221 C.3     1  LIG1        0.0789
     23 H           2.2084   -1.8853    2.8840 H       1  LIG1        0.0660
     24 H           3.2234   -0.5211    3.4311 H       1  LIG1        0.0660
     25 H           1.7380   -0.2064    2.4927 H       1  LIG1        0.0660
     26 C           6.0616   -0.1541    2.3265 C.3     1  LIG1       -0.0342
     27 H           7.1100   -0.1261    2.0139 H       1  LIG1        0.0279
     28 H           5.7501   -1.2015    2.3752 H       1  LIG1        0.0279
     29 H           6.0162    0.2461    3.3482 H       1  LIG1        0.0279
     30 C           6.8654    3.5511   -0.4032 C.ar    1  LIG1        0.1298
     31 C           7.9491    4.4204   -0.3544 C.ar    1  LIG1       -0.0086
     32 C           6.5512    2.6836    0.6691 C.ar    1  LIG1        0.0403
     33 C           8.7983    4.4655    0.7645 C.ar    1  LIG1        0.0211
     34 H           8.0934    5.0863   -1.1966 H       1  LIG1        0.0661
     35 C           7.3958    2.7680    1.7972 C.ar    1  LIG1       -0.0484
     36 C           8.4893    3.6191    1.8461 C.ar    1  LIG1       -0.0502
     37 H           7.1718    2.1602    2.6649 H       1  LIG1        0.0625
     38 O           6.0585    3.5957   -1.5355 O.3     1  LIG1       -0.4944
     39 C           6.4745    2.7098   -2.5800 C.3     1  LIG1        0.0788
     40 H           5.7733    2.8501   -3.4052 H       1  LIG1        0.0660
     41 H           7.4893    2.9532   -2.9176 H       1  LIG1        0.0660
     42 H           6.4452    1.6645   -2.2513 H       1  LIG1        0.0660
     43 H           9.1100    3.6471    2.7343 H       1  LIG1        0.0625
     44 C           9.9434    5.3637    0.8267 C.ar    1  LIG1        0.1396
     45 C          10.7012    6.0207   -0.1188 C.ar    1  LIG1        0.0159
     46 C          11.7085    6.7433    0.6137 C.ar    1  LIG1        0.0664
     47 C          11.5014    6.4696    1.9354 C.ar    1  LIG1        0.1134
     48 O          10.4377    5.6217    2.0785 O.2     1  LIG1       -0.4608
     49 H          11.9997    6.7704    2.8434 H       1  LIG1        0.1049
     50 C          10.6086    5.9798   -1.6146 C.3     1  LIG1       -0.0344
     51 H          11.5996    6.1376   -2.0526 H       1  LIG1        0.0279
     52 H           9.9433    6.7538   -2.0207 H       1  LIG1        0.0279
     53 H          10.2388    5.0136   -1.9683 H       1  LIG1        0.0279
     54 N          12.7408    7.4875    0.0176 N.pl3   1  LIG1       -0.3553
     55 H          12.3989    8.1407   -0.6789 H       1  LIG1        0.1424
     56 H          13.3027    7.9899    0.6948 H       1  LIG1        0.1424
@<TRIPOS>BOND
     1    40    39    1
     2    41    39    1
     3     8     6    1
     4     9     3    1
     5    39    42    1
     6    39    38    1
     7     6     3   ar
     8     6     7   ar
     9    14    13    1
    10     3     1   ar
    11    51    50    1
    12    52    50    1
    13    53    50    1
    14    50    45    1
    15    13     7    1
    16    38    30    1
    17     7     4   ar
    18     1    10    1
    19     1     2   ar
    20    10    11    3
    21    11    12    1
    22    34    31    1
    23    20    19    1
    24     4     2   ar
    25     4    15    1
    26     2     5    1
    27    55    54    1
    28    30    31   ar
    29    30    32   ar
    30    31    33   ar
    31    19    15   ar
    32    19    18   ar
    33    45    46   ar
    34    45    44   ar
    35    15    16   ar
    36    54    46    1
    37    54    56    1
    38    46    47   ar
    39    18    32    1
    40    18    17   ar
    41    32    35   ar
    42    33    44    1
    43    33    36   ar
    44    44    48   ar
    45    16    17   ar
    46    16    21    1
    47    17    26    1
    48    21    22    1
    49    35    36   ar
    50    35    37    1
    51    36    43    1
    52    47    48   ar
    53    47    49    1
    54    27    26    1
    55    26    28    1
    56    26    29    1
    57    25    22    1
    58    22    23    1
    59    22    24    1
