@<TRIPOS>MOLECULE
mol_data/opt/b3lyp/geoms/mol2/4ef4ef-4ef4ef-.out
 54 57 0 0 0
SMALL
GASTEIGER

@<TRIPOS>ATOM
      1 C          -0.2112    1.1080   -1.1877 C.ar    1  LIG1        0.0255
      2 C           1.1924    1.0988   -1.0885 C.ar    1  LIG1       -0.0351
      3 C          -0.9646    1.0625   -0.0025 C.ar    1  LIG1       -0.0429
      4 C           1.8494    1.0523    0.1420 C.ar    1  LIG1        0.0260
      5 H           1.7851    1.1452   -1.9960 H       1  LIG1        0.0637
      6 C          -0.3290    0.9997    1.2314 C.ar    1  LIG1       -0.0184
      7 C           1.0676    0.9878    1.3138 C.ar    1  LIG1        0.1246
      8 H          -0.9192    0.9474    2.1438 H       1  LIG1        0.0654
      9 H          -2.0480    1.0711   -0.0564 H       1  LIG1        0.0631
     10 C          -0.8521    1.1659   -2.4631 C.1     1  LIG1       -0.0696
     11 C          -1.3966    1.2137   -3.5433 C.1     1  LIG1       -0.1139
     12 H          -1.8736    1.2560   -4.4946 H       1  LIG1        0.1232
     13 O           1.7196    0.8828    2.5040 O.3     1  LIG1       -0.5062
     14 H           1.0766    0.9163    3.2242 H       1  LIG1        0.2922
     15 C           4.0844    2.0731    0.8084 C.ar    1  LIG1        0.0333
     16 C           5.4850    1.9949    0.7937 C.ar    1  LIG1       -0.0345
     17 C           3.3387    1.0346    0.1940 C.ar    1  LIG1        0.0045
     18 C           6.1794    0.9351    0.2013 C.ar    1  LIG1        0.0260
     19 H           6.0522    2.7893    1.2675 H       1  LIG1        0.0637
     20 C           4.0246   -0.0152   -0.4133 C.ar    1  LIG1       -0.0106
     21 C           5.4219   -0.0814   -0.4184 C.ar    1  LIG1        0.1252
     22 H           3.4767   -0.8195   -0.8921 H       1  LIG1        0.0661
     23 C           3.4601    3.2138    1.4000 C.1     1  LIG1       -0.0690
     24 C           2.9678    4.2055    1.8897 C.1     1  LIG1       -0.1139
     25 H           2.5233    5.0722    2.3202 H       1  LIG1        0.1232
     26 O           5.9703   -1.1382   -1.0722 O.3     1  LIG1       -0.5061
     27 H           6.9222   -1.1710   -0.9017 H       1  LIG1        0.2922
     28 C           8.4677   -0.0793    0.7255 C.ar    1  LIG1        0.0333
     29 C           9.8709    0.0318    0.6574 C.ar    1  LIG1       -0.0345
     30 C           7.6692    0.9550    0.1742 C.ar    1  LIG1        0.0045
     31 C          10.5135    1.1207    0.0747 C.ar    1  LIG1        0.0260
     32 H          10.4733   -0.7686    1.0740 H       1  LIG1        0.0637
     33 C           8.3164    2.0573   -0.3956 C.ar    1  LIG1       -0.0106
     34 C           9.7080    2.1567   -0.4422 C.ar    1  LIG1        0.1252
     35 H           7.7113    2.8567   -0.8168 H       1  LIG1        0.0661
     36 C           7.8945   -1.2170    1.3745 C.1     1  LIG1       -0.0690
     37 C           7.4325   -2.1965    1.9155 C.1     1  LIG1       -0.1139
     38 H           7.0086   -3.0492    2.3932 H       1  LIG1        0.1232
     39 O          10.3343    3.2451   -0.9615 O.3     1  LIG1       -0.5061
     40 H           9.6758    3.8491   -1.3296 H       1  LIG1        0.2922
     41 C          12.7228    1.1953   -1.1805 C.ar    1  LIG1        0.0327
     42 C          14.1268    1.2387   -1.1356 C.ar    1  LIG1       -0.0423
     43 C          12.0019    1.1886    0.0422 C.ar    1  LIG1        0.0045
     44 C          14.8144    1.2676    0.0720 C.ar    1  LIG1       -0.0190
     45 H          14.6785    1.2404   -2.0697 H       1  LIG1        0.0631
     46 C          12.7009    1.2075    1.2494 C.ar    1  LIG1       -0.0112
     47 C          14.0987    1.2474    1.2727 C.ar    1  LIG1        0.1175
     48 H          12.1644    1.2079    2.1920 H       1  LIG1        0.0660
     49 H          15.9014    1.3014    0.0809 H       1  LIG1        0.0654
     50 C          12.0674    1.1149   -2.4473 C.1     1  LIG1       -0.0690
     51 C          11.5468    1.0263   -3.5366 C.1     1  LIG1       -0.1139
     52 H          11.0800    0.9503   -4.4909 H       1  LIG1        0.1232
     53 O          14.7017    1.2692    2.4959 O.3     1  LIG1       -0.5067
     54 H          15.6603    1.3016    2.3780 H       1  LIG1        0.2921
@<TRIPOS>BOND
     1    12    11    1
     2    52    51    1
     3    11    10    3
     4    51    50    3
     5    10     1    1
     6    50    41    1
     7    45    42    1
     8     5     2    1
     9    40    39    1
    10     1     2   ar
    11     1     3   ar
    12    41    42   ar
    13    41    43   ar
    14    42    44   ar
    15     2     4   ar
    16    26    27    1
    17    26    21    1
    18    39    34    1
    19    22    20    1
    20    35    33    1
    21    34    33   ar
    22    34    31   ar
    23    21    20   ar
    24    21    18   ar
    25    20    17   ar
    26    33    30   ar
    27     9     3    1
    28     3     6   ar
    29    43    31    1
    30    43    46   ar
    31    44    49    1
    32    44    47   ar
    33    31    29   ar
    34     4    17    1
    35     4     7   ar
    36    30    18    1
    37    30    28   ar
    38    17    15   ar
    39    18    16   ar
    40    29    28   ar
    41    29    32    1
    42    28    36    1
    43    16    15   ar
    44    16    19    1
    45    15    23    1
    46     6     7   ar
    47     6     8    1
    48    46    47   ar
    49    46    48    1
    50    47    53    1
    51     7    13    1
    52    36    37    3
    53    23    24    3
    54    24    25    1
    55    37    38    1
    56    54    53    1
    57    13    14    1
