@<TRIPOS>MOLECULE
mol_data/opt/b3lyp/geoms/mol2/4ef4ef4ef.out
 41 43 0 0 0
SMALL
GASTEIGER

@<TRIPOS>ATOM
      1 C          -0.2039    0.4294    0.7561 C.ar    1  LIG1        0.0255
      2 C           1.2014    0.4137    0.7611 C.ar    1  LIG1       -0.0351
      3 C          -0.8629    1.1508   -0.2540 C.ar    1  LIG1       -0.0429
      4 C           1.9598    1.0926   -0.1970 C.ar    1  LIG1        0.0260
      5 H           1.7148   -0.1421    1.5365 H       1  LIG1        0.0637
      6 C          -0.1300    1.8327   -1.2162 C.ar    1  LIG1       -0.0184
      7 C           1.2689    1.8134   -1.1949 C.ar    1  LIG1        0.1246
      8 H          -0.6446    2.3882   -1.9975 H       1  LIG1        0.0654
      9 H          -1.9471    1.1735   -0.2772 H       1  LIG1        0.0631
     10 C          -0.9441   -0.2694    1.7587 C.1     1  LIG1       -0.0696
     11 C          -1.5746   -0.8592    2.6071 C.1     1  LIG1       -0.1139
     12 H          -2.1259   -1.3801    3.3549 H       1  LIG1        0.1232
     13 O           2.0025    2.4799   -2.1357 O.3     1  LIG1       -0.5062
     14 H           1.4000    2.8669   -2.7847 H       1  LIG1        0.2922
     15 C           4.1751   -0.1499   -0.0514 C.ar    1  LIG1        0.0333
     16 C           5.5777   -0.0990    0.0367 C.ar    1  LIG1       -0.0345
     17 C           3.4477    1.0633   -0.1419 C.ar    1  LIG1        0.0045
     18 C           6.2972    1.0967    0.0400 C.ar    1  LIG1        0.0260
     19 H           6.1200   -1.0345    0.1019 H       1  LIG1        0.0637
     20 C           4.1653    2.2622   -0.1446 C.ar    1  LIG1       -0.0106
     21 C           5.5570    2.2933   -0.0544 C.ar    1  LIG1        0.1252
     22 H           3.6214    3.1992   -0.2251 H       1  LIG1        0.0661
     23 C           3.5440   -1.4328   -0.0729 C.1     1  LIG1       -0.0690
     24 C           3.0568   -2.5409   -0.0929 C.1     1  LIG1       -0.1139
     25 H           2.6112   -3.5081   -0.1105 H       1  LIG1        0.1232
     26 O           6.2373    3.4792   -0.0556 O.3     1  LIG1       -0.5061
     27 H           5.6061    4.1972   -0.1972 H       1  LIG1        0.2922
     28 C           8.5985    0.3057   -0.6938 C.ar    1  LIG1        0.0327
     29 C           9.9952    0.3194   -0.5000 C.ar    1  LIG1       -0.0423
     30 C           7.7815    1.0937    0.1570 C.ar    1  LIG1        0.0045
     31 C          10.5871    1.0837    0.4928 C.ar    1  LIG1       -0.0190
     32 H          10.6134   -0.2838   -1.1564 H       1  LIG1        0.0631
     33 C           8.3935    1.8655    1.1519 C.ar    1  LIG1       -0.0112
     34 C           9.7783    1.8673    1.3230 C.ar    1  LIG1        0.1175
     35 H           7.7721    2.4779    1.7989 H       1  LIG1        0.0660
     36 H          11.6620    1.0914    0.6367 H       1  LIG1        0.0654
     37 C           8.0683   -0.4800   -1.7639 C.1     1  LIG1       -0.0690
     38 C           7.6733   -1.1567   -2.6869 C.1     1  LIG1       -0.1139
     39 H           7.3028   -1.7464   -3.4928 H       1  LIG1        0.1232
     40 O          10.3964    2.6081    2.2882 O.3     1  LIG1       -0.5067
     41 H           9.7299    3.1088    2.7772 H       1  LIG1        0.2921
@<TRIPOS>BOND
     1    39    38    1
     2    14    13    1
     3    38    37    3
     4    13     7    1
     5     8     6    1
     6    37    28    1
     7     6     7   ar
     8     6     3   ar
     9     7     4   ar
    10    32    29    1
    11    28    29   ar
    12    28    30   ar
    13    29    31   ar
    14     9     3    1
    15     3     1   ar
    16    22    20    1
    17    27    26    1
    18     4    17    1
    19     4     2   ar
    20    20    17   ar
    21    20    21   ar
    22    17    15   ar
    23    25    24    1
    24    24    23    3
    25    23    15    1
    26    26    21    1
    27    21    18   ar
    28    15    16   ar
    29    16    18   ar
    30    16    19    1
    31    18    30    1
    32    30    33   ar
    33    31    36    1
    34    31    34   ar
    35     1     2   ar
    36     1    10    1
    37     2     5    1
    38    33    34   ar
    39    33    35    1
    40    34    40    1
    41    10    11    3
    42    40    41    1
    43    11    12    1
