@<TRIPOS>MOLECULE
mol_data/opt/b3lyp/geoms/mol2/4ef4ef4ef-4ef-.out
 54 57 0 0 0
SMALL
GASTEIGER

@<TRIPOS>ATOM
      1 C          -0.2495    0.0017   -0.4829 C.ar    1  LIG1        0.0255
      2 C           1.1540    0.0524   -0.4277 C.ar    1  LIG1       -0.0351
      3 C          -0.9787    1.1215   -0.0479 C.ar    1  LIG1       -0.0429
      4 C           1.8437    1.1751    0.0392 C.ar    1  LIG1        0.0260
      5 H           1.7213   -0.8082   -0.7613 H       1  LIG1        0.0637
      6 C          -0.3147    2.2479    0.4193 C.ar    1  LIG1       -0.0184
      7 C           1.0833    2.2860    0.4635 C.ar    1  LIG1        0.1246
      8 H          -0.8835    3.1119    0.7570 H       1  LIG1        0.0654
      9 H          -2.0627    1.1020   -0.0805 H       1  LIG1        0.0631
     10 C          -0.9182   -1.1616   -0.9738 C.1     1  LIG1       -0.0696
     11 C          -1.4885   -2.1450   -1.3896 C.1     1  LIG1       -0.1139
     12 H          -1.9864   -3.0125   -1.7559 H       1  LIG1        0.1232
     13 O           1.7488    3.3878    0.9226 O.3     1  LIG1       -0.5062
     14 H           1.1020    4.0353    1.2327 H       1  LIG1        0.2922
     15 C           4.0848    0.1534    0.6699 C.ar    1  LIG1        0.0333
     16 C           5.4902    0.2142    0.6187 C.ar    1  LIG1       -0.0345
     17 C           3.3328    1.1906    0.0639 C.ar    1  LIG1        0.0045
     18 C           6.1807    1.2585    0.0066 C.ar    1  LIG1        0.0260
     19 H           6.0584   -0.5762    1.0974 H       1  LIG1        0.0637
     20 C           4.0248    2.2335   -0.5592 C.ar    1  LIG1       -0.0106
     21 C           5.4185    2.2777   -0.5980 C.ar    1  LIG1        0.1252
     22 H           3.4584    3.0291   -1.0350 H       1  LIG1        0.0661
     23 C           3.4779   -0.9382    1.3654 C.1     1  LIG1       -0.0690
     24 C           3.0130   -1.8786    1.9699 C.1     1  LIG1       -0.1139
     25 H           2.5857   -2.6990    2.4979 H       1  LIG1        0.1232
     26 O           6.0866    3.2701   -1.2479 O.3     1  LIG1       -0.5061
     27 H           5.4525    3.9346   -1.5476 H       1  LIG1        0.2922
     28 C           8.4405    2.2738    0.5970 C.ar    1  LIG1        0.0333
     29 C           9.8397    2.1886    0.5467 C.ar    1  LIG1       -0.0345
     30 C           7.6697    1.2572   -0.0248 C.ar    1  LIG1        0.0045
     31 C          10.5060    1.1320   -0.0798 C.ar    1  LIG1        0.0260
     32 H          10.4227    2.9642    1.0298 H       1  LIG1        0.0637
     33 C           8.3295    0.2014   -0.6516 C.ar    1  LIG1       -0.0106
     34 C           9.7248    0.1263   -0.6860 C.ar    1  LIG1        0.1252
     35 H           7.7629   -0.5797   -1.1466 H       1  LIG1        0.0661
     36 C           7.8385    3.3513    1.3166 C.1     1  LIG1       -0.0690
     37 C           7.3633    4.2652    1.9524 C.1     1  LIG1       -0.1139
     38 H           6.9334    5.0638    2.5102 H       1  LIG1        0.1232
     39 O          10.2630   -0.9400   -1.3406 O.3     1  LIG1       -0.5061
     40 H          11.2281   -0.8516   -1.3460 H       1  LIG1        0.2922
     41 C          12.8016    2.1032   -0.6040 C.ar    1  LIG1        0.0327
     42 C          14.2008    1.9634   -0.5657 C.ar    1  LIG1       -0.0423
     43 C          11.9935    1.0535   -0.0881 C.ar    1  LIG1        0.0045
     44 C          14.8075    0.8244   -0.0510 C.ar    1  LIG1       -0.0190
     45 H          14.8134    2.7673   -0.9596 H       1  LIG1        0.0631
     46 C          12.6182   -0.0900    0.4271 C.ar    1  LIG1       -0.0112
     47 C          14.0120   -0.2109    0.4489 C.ar    1  LIG1        0.1175
     48 H          12.0259   -0.8899    0.8600 H       1  LIG1        0.0660
     49 H          15.8917    0.7416   -0.0364 H       1  LIG1        0.0654
     50 C          12.2428    3.2854   -1.1801 C.1     1  LIG1       -0.0690
     51 C          11.8169    4.3003   -1.6836 C.1     1  LIG1       -0.1139
     52 H          11.4159    5.1852   -2.1205 H       1  LIG1        0.1232
     53 O          14.5287   -1.3554    0.9769 O.3     1  LIG1       -0.5067
     54 H          15.4940   -1.3131    0.9525 H       1  LIG1        0.2921
@<TRIPOS>BOND
     1    52    51    1
     2    12    11    1
     3    51    50    3
     4    27    26    1
     5    11    10    3
     6    40    39    1
     7    39    34    1
     8    26    21    1
     9    50    41    1
    10    35    33    1
    11    22    20    1
    12    10     1    1
    13    45    42    1
    14     5     2    1
    15    34    33   ar
    16    34    31   ar
    17    33    30   ar
    18    41    42   ar
    19    41    43   ar
    20    21    20   ar
    21    21    18   ar
    22    42    44   ar
    23    20    17   ar
    24     1     2   ar
    25     1     3   ar
    26     2     4   ar
    27    43    31    1
    28    43    46   ar
    29     9     3    1
    30    31    29   ar
    31    44    49    1
    32    44    47   ar
    33     3     6   ar
    34    30    18    1
    35    30    28   ar
    36    18    16   ar
    37     4    17    1
    38     4     7   ar
    39    17    15   ar
    40     6     7   ar
    41     6     8    1
    42    46    47   ar
    43    46    48    1
    44    47    53    1
    45     7    13    1
    46    29    28   ar
    47    29    32    1
    48    28    36    1
    49    16    15   ar
    50    16    19    1
    51    15    23    1
    52    13    14    1
    53    54    53    1
    54    36    37    3
    55    23    24    3
    56    37    38    1
    57    24    25    1
