@<TRIPOS>MOLECULE
mol_data/opt/b3lyp/geoms/mol2/4ef4ef-.out
 28 29 0 0 0
SMALL
GASTEIGER

@<TRIPOS>ATOM
      1 C          -0.0126    0.1798   -0.4063 C.ar    1  LIG1        0.0255
      2 C           1.3939    0.2220   -0.4077 C.ar    1  LIG1       -0.0351
      3 C          -0.7104    1.2040    0.2559 C.ar    1  LIG1       -0.0429
      4 C           2.1063    1.2453    0.2191 C.ar    1  LIG1        0.0260
      5 H           1.9442   -0.5567   -0.9252 H       1  LIG1        0.0637
      6 C          -0.0185    2.2230    0.8989 C.ar    1  LIG1       -0.0184
      7 C           1.3802    2.2497    0.8912 C.ar    1  LIG1        0.1246
      8 H          -0.5657    3.0036    1.4232 H       1  LIG1        0.0654
      9 H          -1.7950    1.1919    0.2671 H       1  LIG1        0.0631
     10 C          -0.7117   -0.8771   -1.0655 C.1     1  LIG1       -0.0696
     11 C          -1.3061   -1.7727   -1.6225 C.1     1  LIG1       -0.1139
     12 H          -1.8270   -2.5611   -2.1139 H       1  LIG1        0.1232
     13 O           2.0879    3.2110    1.5458 O.3     1  LIG1       -0.5062
     14 H           1.4768    3.8681    1.9038 H       1  LIG1        0.2922
     15 C           4.3409    2.2638   -0.4447 C.ar    1  LIG1        0.0327
     16 C           5.7439    2.1811   -0.4451 C.ar    1  LIG1       -0.0423
     17 C           3.5972    1.2398    0.1982 C.ar    1  LIG1        0.0045
     18 C           6.4094    1.1220    0.1611 C.ar    1  LIG1       -0.0190
     19 H           6.3119    2.9618   -0.9398 H       1  LIG1        0.0631
     20 C           4.2741    0.1757    0.7950 C.ar    1  LIG1       -0.0112
     21 C           5.6709    0.1102    0.7815 C.ar    1  LIG1        0.1175
     22 H           3.7207   -0.6124    1.2940 H       1  LIG1        0.0660
     23 H           7.4961    1.0801    0.1482 H       1  LIG1        0.0654
     24 C           3.7075    3.3480   -1.1261 C.1     1  LIG1       -0.0690
     25 C           3.2079    4.2700   -1.7308 C.1     1  LIG1       -0.1139
     26 H           2.7566    5.0762   -2.2605 H       1  LIG1        0.1232
     27 O           6.2518   -0.9620    1.3938 O.3     1  LIG1       -0.5067
     28 H           7.2124   -0.8876    1.3202 H       1  LIG1        0.2921
@<TRIPOS>BOND
     1    26    25    1
     2    12    11    1
     3    25    24    3
     4    11    10    3
     5    24    15    1
     6    10     1    1
     7    19    16    1
     8     5     2    1
     9    16    15   ar
    10    16    18   ar
    11    15    17   ar
    12     2     1   ar
    13     2     4   ar
    14     1     3   ar
    15    23    18    1
    16    18    21   ar
    17    17     4    1
    18    17    20   ar
    19     4     7   ar
    20     3     9    1
    21     3     6   ar
    22    21    20   ar
    23    21    27    1
    24    20    22    1
    25     7     6   ar
    26     7    13    1
    27     6     8    1
    28    28    27    1
    29    13    14    1
