@<TRIPOS>MOLECULE
mol_data/opt/b3lyp/geoms/mol2/4ef4ef-4ef-4ef-.out
 54 57 0 0 0
SMALL
GASTEIGER

@<TRIPOS>ATOM
      1 C          -0.2376    0.0511   -0.0774 C.ar    1  LIG1        0.0255
      2 C           1.1673    0.1150   -0.0293 C.ar    1  LIG1       -0.0351
      3 C          -0.9562    1.2508   -0.2139 C.ar    1  LIG1       -0.0429
      4 C           1.8589    1.3248   -0.1070 C.ar    1  LIG1        0.0260
      5 H           1.7328   -0.8034    0.0881 H       1  LIG1        0.0637
      6 C          -0.2853    2.4637   -0.3090 C.ar    1  LIG1       -0.0184
      7 C           1.1123    2.5108   -0.2630 C.ar    1  LIG1        0.1246
      8 H          -0.8477    3.3868   -0.4320 H       1  LIG1        0.0654
      9 H          -2.0400    1.2243   -0.2505 H       1  LIG1        0.0631
     10 C          -0.9146   -1.2034    0.0146 C.1     1  LIG1       -0.0696
     11 C          -1.4899   -2.2659    0.0912 C.1     1  LIG1       -0.1139
     12 H          -1.9934   -3.2019    0.1597 H       1  LIG1        0.1232
     13 O           1.7991    3.6783   -0.3978 O.3     1  LIG1       -0.5062
     14 H           1.1735    4.4139   -0.4267 H       1  LIG1        0.2922
     15 C           4.0672    1.9869    0.9742 C.ar    1  LIG1        0.0333
     16 C           5.4690    1.9368    0.9604 C.ar    1  LIG1       -0.0345
     17 C           3.3486    1.3375   -0.0629 C.ar    1  LIG1        0.0045
     18 C           6.1862    1.2579   -0.0281 C.ar    1  LIG1        0.0260
     19 H           6.0124    2.4301    1.7581 H       1  LIG1        0.0637
     20 C           4.0590    0.6587   -1.0512 C.ar    1  LIG1       -0.0106
     21 C           5.4561    0.6104   -1.0465 C.ar    1  LIG1        0.1252
     22 H           3.5327    0.1671   -1.8621 H       1  LIG1        0.0661
     23 C           3.4084    2.6466    2.0570 C.1     1  LIG1       -0.0690
     24 C           2.8834    3.1957    2.9995 C.1     1  LIG1       -0.1139
     25 H           2.4127    3.6746    3.8259 H       1  LIG1        0.1232
     26 O           6.0475   -0.0647   -2.0705 O.3     1  LIG1       -0.5061
     27 H           7.0098    0.0183   -1.9882 H       1  LIG1        0.2922
     28 C           8.4774    2.3714    0.0169 C.ar    1  LIG1        0.0333
     29 C           9.8747    2.2367    0.0474 C.ar    1  LIG1       -0.0345
     30 C           7.6740    1.1997   -0.0009 C.ar    1  LIG1        0.0045
     31 C          10.5124    0.9945    0.0587 C.ar    1  LIG1        0.0260
     32 H          10.4791    3.1365    0.0604 H       1  LIG1        0.0637
     33 C           8.3112   -0.0463    0.0001 C.ar    1  LIG1       -0.0106
     34 C           9.7048   -0.1614    0.0315 C.ar    1  LIG1        0.1252
     35 H           7.7276   -0.9614    0.0150 H       1  LIG1        0.0661
     36 C           7.9143    3.6846   -0.0141 C.1     1  LIG1       -0.0690
     37 C           7.4801    4.8138   -0.0453 C.1     1  LIG1       -0.1139
     38 H           7.0752    5.7987   -0.0705 H       1  LIG1        0.1232
     39 O          10.2130   -1.4224    0.0281 O.3     1  LIG1       -0.5061
     40 H          11.1813   -1.3728    0.0210 H       1  LIG1        0.2922
     41 C          12.8292    1.4811   -0.8755 C.ar    1  LIG1        0.0327
     42 C          14.2241    1.3432   -0.7574 C.ar    1  LIG1       -0.0423
     43 C          11.9976    0.8855    0.1111 C.ar    1  LIG1        0.0045
     44 C          14.8019    0.6329    0.2876 C.ar    1  LIG1       -0.0190
     45 H          14.8566    1.7991   -1.5116 H       1  LIG1        0.0631
     46 C          12.5916    0.1706    1.1590 C.ar    1  LIG1       -0.0112
     47 C          13.9820    0.0414    1.2536 C.ar    1  LIG1        0.1175
     48 H          11.9804   -0.2620    1.9448 H       1  LIG1        0.0660
     49 H          15.8833    0.5406    0.3531 H       1  LIG1        0.0654
     50 C          12.2960    2.1954   -1.9922 C.1     1  LIG1       -0.0690
     51 C          11.8873    2.8028   -2.9559 C.1     1  LIG1       -0.1139
     52 H          11.5081    3.3368   -3.7963 H       1  LIG1        0.1232
     53 O          14.4694   -0.6638    2.3110 O.3     1  LIG1       -0.5067
     54 H          15.4354   -0.6684    2.2782 H       1  LIG1        0.2921
@<TRIPOS>BOND
     1    52    51    1
     2    51    50    3
     3    26    27    1
     4    26    21    1
     5    50    41    1
     6    22    20    1
     7    45    42    1
     8    20    21   ar
     9    20    17   ar
    10    21    18   ar
    11    41    42   ar
    12    41    43   ar
    13    42    44   ar
    14     8     6    1
    15    14    13    1
    16    13     7    1
    17     6     7   ar
    18     6     3   ar
    19     7     4   ar
    20     9     3    1
    21     3     1   ar
    22     4    17    1
    23     4     2   ar
    24     1     2   ar
    25     1    10    1
    26    38    37    1
    27    17    15   ar
    28    37    36    3
    29     2     5    1
    30    18    30    1
    31    18    16   ar
    32    36    28    1
    33    30    33   ar
    34    30    28   ar
    35    33    35    1
    36    33    34   ar
    37    10    11    3
    38    28    29   ar
    39    40    39    1
    40    39    34    1
    41    34    31   ar
    42    29    31   ar
    43    29    32    1
    44    31    43    1
    45    11    12    1
    46    43    46   ar
    47    44    49    1
    48    44    47   ar
    49    16    15   ar
    50    16    19    1
    51    15    23    1
    52    46    47   ar
    53    46    48    1
    54    47    53    1
    55    23    24    3
    56    54    53    1
    57    24    25    1
