@<TRIPOS>MOLECULE
mol_data/opt/b3lyp/geoms/mol2/4ef4ef-4ef.out
 41 43 0 0 0
SMALL
GASTEIGER

@<TRIPOS>ATOM
      1 C          -0.1801    0.5708   -0.8340 C.ar    1  LIG1        0.0255
      2 C           1.2267    0.5533   -0.8179 C.ar    1  LIG1       -0.0351
      3 C          -0.8522    1.1941    0.2311 C.ar    1  LIG1       -0.0429
      4 C           1.9648    1.1372    0.2128 C.ar    1  LIG1        0.0260
      5 H           1.7575    0.0851   -1.6402 H       1  LIG1        0.0637
      6 C          -0.1354    1.7663    1.2747 C.ar    1  LIG1       -0.0184
      7 C           1.2634    1.7380    1.2784 C.ar    1  LIG1        0.1246
      8 H          -0.6633    2.2316    2.1045 H       1  LIG1        0.0654
      9 H          -1.9366    1.2210    0.2370 H       1  LIG1        0.0631
     10 C          -0.9048   -0.0276   -1.9098 C.1     1  LIG1       -0.0696
     11 C          -1.5199   -0.5355   -2.8204 C.1     1  LIG1       -0.1139
     12 H          -2.0590   -0.9827   -3.6227 H       1  LIG1        0.1232
     13 O           1.9934    2.2502    2.3068 O.3     1  LIG1       -0.5062
     14 H           1.4010    2.6888    2.9313 H       1  LIG1        0.2922
     15 C           4.2515    2.2547    0.1182 C.ar    1  LIG1        0.0333
     16 C           5.6452    2.1151    0.0605 C.ar    1  LIG1       -0.0345
     17 C           3.4537    1.0843    0.1864 C.ar    1  LIG1        0.0045
     18 C           6.2931    0.8728    0.0712 C.ar    1  LIG1        0.0260
     19 H           6.2488    3.0148    0.0032 H       1  LIG1        0.0637
     20 C           4.0895   -0.1548    0.1968 C.ar    1  LIG1       -0.0106
     21 C           5.4828   -0.2822    0.1513 C.ar    1  LIG1        0.1252
     22 H           3.5048   -1.0662    0.2580 H       1  LIG1        0.0661
     23 C           3.6835    3.5643    0.0551 C.1     1  LIG1       -0.0690
     24 C           3.2388    4.6874   -0.0243 C.1     1  LIG1       -0.1139
     25 H           2.8354    5.6708   -0.0903 H       1  LIG1        0.1232
     26 O           5.9610   -1.5554    0.1296 O.3     1  LIG1       -0.5061
     27 H           6.8473   -1.5846    0.5205 H       1  LIG1        0.2922
     28 C           8.6658    0.1676    0.7603 C.ar    1  LIG1        0.0327
     29 C          10.0529    0.2265    0.5101 C.ar    1  LIG1       -0.0423
     30 C           7.7731    0.8433   -0.1110 C.ar    1  LIG1        0.0045
     31 C          10.5686    0.9345   -0.5621 C.ar    1  LIG1       -0.0190
     32 H          10.7233   -0.2934    1.1862 H       1  LIG1        0.0631
     33 C           8.3132    1.5531   -1.1925 C.ar    1  LIG1       -0.0112
     34 C           9.6897    1.6056   -1.4211 C.ar    1  LIG1        0.1175
     35 H           7.6353    2.0573   -1.8766 H       1  LIG1        0.0660
     36 H          11.6351    0.9792   -0.7520 H       1  LIG1        0.0654
     37 C           8.2030   -0.5632    1.8973 C.1     1  LIG1       -0.0690
     38 C           7.8215   -1.2193    2.8423 C.1     1  LIG1       -0.1139
     39 H           7.4743   -1.7710    3.6853 H       1  LIG1        0.1232
     40 O          10.2335    2.2844   -2.4684 O.3     1  LIG1       -0.5067
     41 H           9.5281    2.6978   -2.9843 H       1  LIG1        0.2921
@<TRIPOS>BOND
     1    12    11    1
     2    41    40    1
     3    11    10    3
     4    40    34    1
     5    10     1    1
     6    35    33    1
     7     5     2    1
     8    34    33   ar
     9    34    31   ar
    10    33    30   ar
    11     1     2   ar
    12     1     3   ar
    13     2     4   ar
    14    36    31    1
    15    31    29   ar
    16    30    18    1
    17    30    28   ar
    18    25    24    1
    19    24    23    3
    20    19    16    1
    21    23    15    1
    22    16    18   ar
    23    16    15   ar
    24    18    21   ar
    25    15    17   ar
    26    26    21    1
    27    26    27    1
    28    21    20   ar
    29    17    20   ar
    30    17     4    1
    31    20    22    1
    32     4     7   ar
    33     3     9    1
    34     3     6   ar
    35    29    28   ar
    36    29    32    1
    37    28    37    1
    38     6     7   ar
    39     6     8    1
    40     7    13    1
    41    37    38    3
    42    13    14    1
    43    38    39    1
