@<TRIPOS>MOLECULE
mol_data/opt/b3lyp/geoms/mol2/4ef4ef-4ef-4ef.out
 54 57 0 0 0
SMALL
GASTEIGER

@<TRIPOS>ATOM
      1 C          -0.2869    0.1432   -0.0814 C.ar    1  LIG1        0.0255
      2 C           1.1197    0.1615   -0.0473 C.ar    1  LIG1       -0.0351
      3 C          -0.9671    1.3641   -0.2264 C.ar    1  LIG1       -0.0429
      4 C           1.8497    1.3469   -0.1465 C.ar    1  LIG1        0.0260
      5 H           1.6559   -0.7735    0.0763 H       1  LIG1        0.0637
      6 C          -0.2578    2.5531   -0.3429 C.ar    1  LIG1       -0.0184
      7 C           1.1409    2.5549   -0.3104 C.ar    1  LIG1        0.1246
      8 H          -0.7910    3.4926   -0.4723 H       1  LIG1        0.0654
      9 H          -2.0516    1.3728   -0.2525 H       1  LIG1        0.0631
     10 C          -1.0036   -1.0872    0.0329 C.1     1  LIG1       -0.0696
     11 C          -1.6123   -2.1292    0.1285 C.1     1  LIG1       -0.1139
     12 H          -2.1456   -3.0473    0.2136 H       1  LIG1        0.1232
     13 O           1.8643    3.6975   -0.4657 O.3     1  LIG1       -0.5062
     14 H           1.2629    4.4528   -0.4988 H       1  LIG1        0.2922
     15 C           4.0883    1.9485    0.9071 C.ar    1  LIG1        0.0333
     16 C           5.4874    1.8523    0.8814 C.ar    1  LIG1       -0.0345
     17 C           3.3393    1.3114   -0.1160 C.ar    1  LIG1        0.0045
     18 C           6.1735    1.1396   -0.1058 C.ar    1  LIG1        0.0260
     19 H           6.0536    2.3357    1.6692 H       1  LIG1        0.0637
     20 C           4.0181    0.5981   -1.1023 C.ar    1  LIG1       -0.0106
     21 C           5.4128    0.5039   -1.1094 C.ar    1  LIG1        0.1252
     22 H           3.4686    0.1142   -1.9024 H       1  LIG1        0.0661
     23 C           3.4615    2.6415    1.9881 C.1     1  LIG1       -0.0690
     24 C           2.9635    3.2182    2.9286 C.1     1  LIG1       -0.1139
     25 H           2.5162    3.7215    3.7537 H       1  LIG1        0.1232
     26 O           5.9711   -0.2024   -2.1310 O.3     1  LIG1       -0.5061
     27 H           6.9363   -0.1572   -2.0548 H       1  LIG1        0.2922
     28 C           8.5011    2.1775   -0.0653 C.ar    1  LIG1        0.0333
     29 C           9.8916    1.9900   -0.0518 C.ar    1  LIG1       -0.0345
     30 C           7.6583    1.0348   -0.0913 C.ar    1  LIG1        0.0045
     31 C          10.5007    0.7290   -0.0639 C.ar    1  LIG1        0.0260
     32 H          10.5248    2.8708   -0.0339 H       1  LIG1        0.0637
     33 C           8.2610   -0.2273   -0.0931 C.ar    1  LIG1       -0.0106
     34 C           9.6507   -0.4005   -0.0709 C.ar    1  LIG1        0.1252
     35 H           7.6512   -1.1250   -0.0683 H       1  LIG1        0.0661
     36 C           7.9887    3.5116   -0.0801 C.1     1  LIG1       -0.0690
     37 C           7.6007    4.6578   -0.1002 C.1     1  LIG1       -0.1139
     38 H           7.2333    5.6576   -0.1135 H       1  LIG1        0.1232
     39 O          10.0861   -1.6863   -0.1124 O.3     1  LIG1       -0.5061
     40 H          10.9423   -1.7646    0.3363 H       1  LIG1        0.2922
     41 C          12.8077   -0.0805    0.7215 C.ar    1  LIG1        0.0327
     42 C          14.2077   -0.0563    0.5502 C.ar    1  LIG1       -0.0423
     43 C          11.9869    0.6585   -0.1682 C.ar    1  LIG1        0.0045
     44 C          14.8029    0.6765   -0.4622 C.ar    1  LIG1       -0.0190
     45 H          14.8237   -0.6238    1.2396 H       1  LIG1        0.0631
     46 C          12.6063    1.3935   -1.1885 C.ar    1  LIG1       -0.0112
     47 C          13.9946    1.4096   -1.3399 C.ar    1  LIG1        0.1175
     48 H          11.9832    1.9471   -1.8862 H       1  LIG1        0.0660
     49 H          15.8793    0.6941   -0.5918 H       1  LIG1        0.0654
     50 C          12.2592   -0.8417    1.7987 C.1     1  LIG1       -0.0690
     51 C          11.8032   -1.5232    2.6913 C.1     1  LIG1       -0.1139
     52 H          11.3932   -2.0972    3.4904 H       1  LIG1        0.1232
     53 O          14.6169    2.1103   -2.3263 O.3     1  LIG1       -0.5067
     54 H          13.9566    2.5686   -2.8634 H       1  LIG1        0.2921
@<TRIPOS>BOND
     1    54    53    1
     2    53    47    1
     3    26    27    1
     4    26    21    1
     5    22    20    1
     6    48    46    1
     7    47    46   ar
     8    47    44   ar
     9    46    43   ar
    10    21    20   ar
    11    21    18   ar
    12    20    17   ar
    13    49    44    1
    14    14    13    1
    15     8     6    1
    16    13     7    1
    17    44    42   ar
    18     6     7   ar
    19     6     3   ar
    20     7     4   ar
    21     9     3    1
    22     3     1   ar
    23    43    31    1
    24    43    41   ar
    25     4    17    1
    26     4     2   ar
    27    17    15   ar
    28    38    37    1
    29    39    34    1
    30    39    40    1
    31    18    30    1
    32    18    16   ar
    33    37    36    3
    34    33    30   ar
    35    33    34   ar
    36    33    35    1
    37    30    28   ar
    38     1     2   ar
    39     1    10    1
    40    36    28    1
    41    34    31   ar
    42    28    29   ar
    43    31    29   ar
    44    29    32    1
    45     2     5    1
    46    10    11    3
    47    11    12    1
    48    42    41   ar
    49    42    45    1
    50    41    50    1
    51    16    15   ar
    52    16    19    1
    53    15    23    1
    54    50    51    3
    55    23    24    3
    56    51    52    1
    57    24    25    1
