@<TRIPOS>MOLECULE
mol_data/opt/b3lyp/geoms/mol2/4ef4ef4ef-4ef.out
 54 57 0 0 0
SMALL
GASTEIGER

@<TRIPOS>ATOM
      1 C          -0.2828    0.1005   -0.5145 C.ar    1  LIG1        0.0255
      2 C           1.1217    0.1163   -0.4640 C.ar    1  LIG1       -0.0351
      3 C          -0.9830    1.2292   -0.0554 C.ar    1  LIG1       -0.0429
      4 C           1.8398    1.2132    0.0209 C.ar    1  LIG1        0.0260
      5 H           1.6669   -0.7513   -0.8160 H       1  LIG1        0.0637
      6 C          -0.2904    2.3303    0.4300 C.ar    1  LIG1       -0.0184
      7 C           1.1082    2.3340    0.4691 C.ar    1  LIG1        0.1246
      8 H          -0.8370    3.2011    0.7864 H       1  LIG1        0.0654
      9 H          -2.0674    1.2364   -0.0839 H       1  LIG1        0.0631
     10 C          -0.9812   -1.0366   -1.0249 C.1     1  LIG1       -0.0696
     11 C          -1.5766   -1.9977   -1.4573 C.1     1  LIG1       -0.1139
     12 H          -2.0966   -2.8456   -1.8384 H       1  LIG1        0.1232
     13 O           1.8022    3.4105    0.9456 O.3     1  LIG1       -0.5062
     14 H           1.1726    4.0673    1.2714 H       1  LIG1        0.2922
     15 C           4.0580    0.1281    0.6259 C.ar    1  LIG1        0.0333
     16 C           5.4642    0.1554    0.5696 C.ar    1  LIG1       -0.0345
     17 C           3.3289    1.1925    0.0394 C.ar    1  LIG1        0.0045
     18 C           6.1772    1.1920   -0.0298 C.ar    1  LIG1        0.0260
     19 H           6.0151   -0.6557    1.0335 H       1  LIG1        0.0637
     20 C           4.0435    2.2280   -0.5704 C.ar    1  LIG1       -0.0106
     21 C           5.4376    2.2386   -0.6150 C.ar    1  LIG1        0.1252
     22 H           3.4946    3.0444   -1.0312 H       1  LIG1        0.0661
     23 C           3.4271   -0.9594    1.3065 C.1     1  LIG1       -0.0690
     24 C           2.9413   -1.8976    1.8977 C.1     1  LIG1       -0.1139
     25 H           2.4954   -2.7154    2.4142 H       1  LIG1        0.1232
     26 O           6.1269    3.2247   -1.2534 O.3     1  LIG1       -0.5061
     27 H           5.5073    3.9093   -1.5382 H       1  LIG1        0.2922
     28 C           8.4652    2.1439    0.5581 C.ar    1  LIG1        0.0333
     29 C           9.8611    2.0234    0.4895 C.ar    1  LIG1       -0.0345
     30 C           7.6654    1.1547   -0.0701 C.ar    1  LIG1        0.0045
     31 C          10.5004    0.9603   -0.1567 C.ar    1  LIG1        0.0260
     32 H          10.4695    2.7770    0.9788 H       1  LIG1        0.0637
     33 C           8.2964    0.0897   -0.7101 C.ar    1  LIG1       -0.0106
     34 C           9.6896   -0.0232   -0.7617 C.ar    1  LIG1        0.1252
     35 H           7.7072   -0.6738   -1.2065 H       1  LIG1        0.0661
     36 C           7.8989    3.2284    1.2955 C.1     1  LIG1       -0.0690
     37 C           7.4561    4.1489    1.9450 C.1     1  LIG1       -0.1139
     38 H           7.0525    4.9516    2.5166 H       1  LIG1        0.1232
     39 O          10.1801   -1.0838   -1.4550 O.3     1  LIG1       -0.5061
     40 H          11.1342   -1.1552   -1.3118 H       1  LIG1        0.2922
     41 C          12.7823   -0.1221    0.2490 C.ar    1  LIG1        0.0327
     42 C          14.1864   -0.0431    0.1282 C.ar    1  LIG1       -0.0423
     43 C          11.9883    0.9447   -0.2475 C.ar    1  LIG1        0.0045
     44 C          14.8062    1.0513   -0.4513 C.ar    1  LIG1       -0.0190
     45 H          14.7857   -0.8614    0.5133 H       1  LIG1        0.0631
     46 C          12.6307    2.0455   -0.8293 C.ar    1  LIG1       -0.0112
     47 C          14.0221    2.1083   -0.9303 C.ar    1  LIG1        0.1175
     48 H          12.0225    2.8573   -1.2209 H       1  LIG1        0.0660
     49 H          15.8854    1.1093   -0.5402 H       1  LIG1        0.0654
     50 C          12.2050   -1.2577    0.8978 C.1     1  LIG1       -0.0690
     51 C          11.7405   -2.2380    1.4356 C.1     1  LIG1       -0.1139
     52 H          11.3145   -3.0899    1.9130 H       1  LIG1        0.1232
     53 O          14.6705    3.1648   -1.4939 O.3     1  LIG1       -0.5067
     54 H          14.0227    3.8217   -1.7824 H       1  LIG1        0.2921
@<TRIPOS>BOND
     1    12    11    1
     2    54    53    1
     3    27    26    1
     4    53    47    1
     5    11    10    3
     6    39    40    1
     7    39    34    1
     8    26    21    1
     9    48    46    1
    10    35    33    1
    11    22    20    1
    12    10     1    1
    13    47    46   ar
    14    47    44   ar
    15    46    43   ar
    16     5     2    1
    17    34    33   ar
    18    34    31   ar
    19    33    30   ar
    20    21    20   ar
    21    21    18   ar
    22    20    17   ar
    23    49    44    1
    24     1     2   ar
    25     1     3   ar
    26     2     4   ar
    27    44    42   ar
    28    43    31    1
    29    43    41   ar
    30    31    29   ar
    31     9     3    1
    32    30    18    1
    33    30    28   ar
    34     3     6   ar
    35    18    16   ar
    36     4    17    1
    37     4     7   ar
    38    17    15   ar
    39    42    41   ar
    40    42    45    1
    41    41    50    1
    42     6     7   ar
    43     6     8    1
    44     7    13    1
    45    29    28   ar
    46    29    32    1
    47    28    36    1
    48    16    15   ar
    49    16    19    1
    50    15    23    1
    51    50    51    3
    52    13    14    1
    53    36    37    3
    54    23    24    3
    55    51    52    1
    56    24    25    1
    57    37    38    1
