@<TRIPOS>MOLECULE
mol_data/opt/b3lyp/geoms/mol2/4ef4ef4ef4ef-.out
 54 57 0 0 0
SMALL
GASTEIGER

@<TRIPOS>ATOM
      1 C          -0.2764    0.2943    0.8330 C.ar    1  LIG1        0.0255
      2 C           1.1278    0.3008    0.7741 C.ar    1  LIG1       -0.0351
      3 C          -0.9897    1.0957   -0.0748 C.ar    1  LIG1       -0.0429
      4 C           1.8336    1.0778   -0.1491 C.ar    1  LIG1        0.0260
      5 H           1.6823   -0.3163    1.4709 H       1  LIG1        0.0637
      6 C          -0.3095    1.8753   -1.0008 C.ar    1  LIG1       -0.0184
      7 C           1.0890    1.8764   -1.0437 C.ar    1  LIG1        0.1246
      8 H          -0.8656    2.4927   -1.7033 H       1  LIG1        0.0654
      9 H          -2.0740    1.1032   -0.0473 H       1  LIG1        0.0631
     10 C          -0.9617   -0.5065    1.7977 C.1     1  LIG1       -0.0696
     11 C          -1.5459   -1.1828    2.6141 C.1     1  LIG1       -0.1139
     12 H          -2.0563   -1.7798    3.3335 H       1  LIG1        0.1232
     13 O           1.7704    2.6387   -1.9505 O.3     1  LIG1       -0.5062
     14 H           1.1337    3.0738   -2.5329 H       1  LIG1        0.2922
     15 C           4.0685   -0.1359   -0.2190 C.ar    1  LIG1        0.0333
     16 C           5.4727   -0.0703   -0.1865 C.ar    1  LIG1       -0.0345
     17 C           3.3225    1.0679   -0.1628 C.ar    1  LIG1        0.0045
     18 C           6.1772    1.1315   -0.1004 C.ar    1  LIG1        0.0260
     19 H           6.0286   -0.9988   -0.2331 H       1  LIG1        0.0637
     20 C           4.0244    2.2736   -0.0831 C.ar    1  LIG1       -0.0106
     21 C           5.4181    2.3193   -0.0496 C.ar    1  LIG1        0.1252
     22 H           3.4657    3.2048   -0.0507 H       1  LIG1        0.0661
     23 C           3.4530   -1.4214   -0.3349 C.1     1  LIG1       -0.0690
     24 C           2.9793   -2.5306   -0.4389 C.1     1  LIG1       -0.1139
     25 H           2.5457   -3.4993   -0.5291 H       1  LIG1        0.1232
     26 O           6.0820    3.5114    0.0330 O.3     1  LIG1       -0.5061
     27 H           5.4359    4.2286   -0.0139 H       1  LIG1        0.2922
     28 C           8.4591    0.4334   -0.9809 C.ar    1  LIG1        0.0333
     29 C           9.8594    0.4556   -0.8380 C.ar    1  LIG1       -0.0345
     30 C           7.6643    1.1419   -0.0449 C.ar    1  LIG1        0.0045
     31 C          10.5049    1.1554    0.1794 C.ar    1  LIG1        0.0260
     32 H          10.4606   -0.0778   -1.5666 H       1  LIG1        0.0637
     33 C           8.3119    1.8374    0.9812 C.ar    1  LIG1       -0.0106
     34 C           9.7010    1.8495    1.1050 C.ar    1  LIG1        0.1252
     35 H           7.7127    2.3775    1.7085 H       1  LIG1        0.0661
     36 C           7.9032   -0.2762   -2.0904 C.1     1  LIG1       -0.0690
     37 C           7.4836   -0.8863   -3.0483 C.1     1  LIG1       -0.1139
     38 H           7.0935   -1.4174   -3.8850 H       1  LIG1        0.1232
     39 O          10.3243    2.4893    2.1330 O.3     1  LIG1       -0.5061
     40 H           9.6683    2.9834    2.6420 H       1  LIG1        0.2922
     41 C          12.7746    2.3048    0.1537 C.ar    1  LIG1        0.0327
     42 C          14.1729    2.1993    0.2475 C.ar    1  LIG1       -0.0423
     43 C          11.9907    1.1287    0.2875 C.ar    1  LIG1        0.0045
     44 C          14.7967    0.9753    0.4597 C.ar    1  LIG1       -0.0190
     45 H          14.7716    3.0978    0.1417 H       1  LIG1        0.0631
     46 C          12.6273   -0.0966    0.4896 C.ar    1  LIG1       -0.0112
     47 C          14.0203   -0.1811    0.5770 C.ar    1  LIG1        0.1175
     48 H          12.0426   -1.0035    0.5987 H       1  LIG1        0.0660
     49 H          15.8806    0.9190    0.5292 H       1  LIG1        0.0654
     50 C          12.1900    3.5799   -0.1169 C.1     1  LIG1       -0.0690
     51 C          11.7345    4.6730   -0.3677 C.1     1  LIG1       -0.1139
     52 H          11.3185    5.6281   -0.5882 H       1  LIG1        0.1232
     53 O          14.5598   -1.4178    0.7821 O.3     1  LIG1       -0.5067
     54 H          15.5218   -1.3401    0.8292 H       1  LIG1        0.2921
@<TRIPOS>BOND
     1    38    37    1
     2    37    36    3
     3    14    13    1
     4    36    28    1
     5    13     7    1
     6     8     6    1
     7    32    29    1
     8     7     6   ar
     9     7     4   ar
    10     6     3   ar
    11    28    29   ar
    12    28    30   ar
    13    29    31   ar
    14    52    51    1
    15    25    24    1
    16    24    23    3
    17    51    50    3
    18    23    15    1
    19    19    16    1
    20    15    16   ar
    21    15    17   ar
    22    16    18   ar
    23    17     4    1
    24    17    20   ar
    25     4     2   ar
    26    50    41    1
    27    18    21   ar
    28    18    30    1
    29    20    22    1
    30    20    21   ar
    31     3     9    1
    32     3     1   ar
    33    21    26    1
    34    30    33   ar
    35    27    26    1
    36    45    42    1
    37    41    42   ar
    38    41    43   ar
    39    31    43    1
    40    31    34   ar
    41    42    44   ar
    42    43    46   ar
    43    44    49    1
    44    44    47   ar
    45    46    47   ar
    46    46    48    1
    47    47    53    1
    48     2     1   ar
    49     2     5    1
    50    53    54    1
    51     1    10    1
    52    33    34   ar
    53    33    35    1
    54    34    39    1
    55    10    11    3
    56    39    40    1
    57    11    12    1
