@<TRIPOS>MOLECULE
mol_data/opt/b3lyp/geoms/mol2/4ef4ef.out
 28 29 0 0 0
SMALL
GASTEIGER

@<TRIPOS>ATOM
      1 C          -0.0694    0.1352    0.4389 C.ar    1  LIG1        0.0255
      2 C           1.3356    0.1435    0.4778 C.ar    1  LIG1       -0.0351
      3 C          -0.7297    1.2152   -0.1716 C.ar    1  LIG1       -0.0429
      4 C           2.0917    1.1868   -0.0635 C.ar    1  LIG1        0.0260
      5 H           1.8502   -0.6868    0.9466 H       1  LIG1        0.0637
      6 C           0.0013    2.2625   -0.7161 C.ar    1  LIG1       -0.0184
      7 C           1.3996    2.2596   -0.6651 C.ar    1  LIG1        0.1246
      8 H          -0.5143    3.0954   -1.1898 H       1  LIG1        0.0654
      9 H          -1.8136    1.2271   -0.2137 H       1  LIG1        0.0631
     10 C          -0.8080   -0.9456    1.0113 C.1     1  LIG1       -0.0696
     11 C          -1.4372   -1.8591    1.4960 C.1     1  LIG1       -0.1139
     12 H          -1.9874   -2.6646    1.9238 H       1  LIG1        0.1232
     13 O           2.1318    3.2831   -1.1983 O.3     1  LIG1       -0.5062
     14 H           1.5301    3.9075   -1.6248 H       1  LIG1        0.2922
     15 C           4.3343    0.0494   -0.4320 C.ar    1  LIG1        0.0327
     16 C           5.7369    0.0753   -0.2878 C.ar    1  LIG1       -0.0423
     17 C           3.5796    1.1630    0.0169 C.ar    1  LIG1        0.0045
     18 C           6.3929    1.1587    0.2742 C.ar    1  LIG1       -0.0190
     19 H           6.3077   -0.7790   -0.6361 H       1  LIG1        0.0631
     20 C           4.2554    2.2528    0.5776 C.ar    1  LIG1       -0.0112
     21 C           5.6450    2.2593    0.7067 C.ar    1  LIG1        0.1175
     22 H           3.6815    3.1114    0.9147 H       1  LIG1        0.0660
     23 H           7.4718    1.1741    0.3817 H       1  LIG1        0.0654
     24 C           3.7344   -1.0889   -1.0547 C.1     1  LIG1       -0.0690
     25 C           3.2782   -2.0727   -1.5933 C.1     1  LIG1       -0.1139
     26 H           2.8562   -2.9300   -2.0638 H       1  LIG1        0.1232
     27 O           6.3252    3.3080    1.2539 O.3     1  LIG1       -0.5067
     28 H           5.6961    3.9994    1.4991 H       1  LIG1        0.2921
@<TRIPOS>BOND
     1    26    25    1
     2    14    13    1
     3    25    24    3
     4    13     7    1
     5     8     6    1
     6    24    15    1
     7     6     7   ar
     8     6     3   ar
     9     7     4   ar
    10    19    16    1
    11    15    16   ar
    12    15    17   ar
    13    16    18   ar
    14     9     3    1
    15     3     1   ar
    16     4    17    1
    17     4     2   ar
    18    17    20   ar
    19    18    23    1
    20    18    21   ar
    21     1     2   ar
    22     1    10    1
    23     2     5    1
    24    20    21   ar
    25    20    22    1
    26    21    27    1
    27    10    11    3
    28    27    28    1
    29    11    12    1
