@<TRIPOS>MOLECULE
mol_data/opt/b3lyp/geoms/mol2/4ef4ef4ef4ef.out
 54 57 0 0 0
SMALL
GASTEIGER

@<TRIPOS>ATOM
      1 C          -0.3133    0.8746    0.9232 C.ar    1  LIG1        0.0255
      2 C           1.0908    0.8202    0.9023 C.ar    1  LIG1       -0.0351
      3 C          -0.9932    1.1152   -0.2830 C.ar    1  LIG1       -0.0429
      4 C           1.8285    1.0017   -0.2713 C.ar    1  LIG1        0.0260
      5 H           1.6200    0.6334    1.8290 H       1  LIG1        0.0637
      6 C          -0.2811    1.2987   -1.4608 C.ar    1  LIG1       -0.0184
      7 C           1.1171    1.2480   -1.4654 C.ar    1  LIG1        0.1246
      8 H          -0.8119    1.4827   -2.3926 H       1  LIG1        0.0654
      9 H          -2.0770    1.1585   -0.2889 H       1  LIG1        0.0631
     10 C          -1.0317    0.6927    2.1448 C.1     1  LIG1       -0.0696
     11 C          -1.6438    0.5402    3.1779 C.1     1  LIG1       -0.1139
     12 H          -2.1792    0.4048    4.0887 H       1  LIG1        0.1232
     13 O           1.8301    1.4264   -2.6175 O.3     1  LIG1       -0.5062
     14 H           1.2129    1.5152   -3.3559 H       1  LIG1        0.2922
     15 C           4.0252   -0.1241    0.3453 C.ar    1  LIG1        0.0333
     16 C           5.4304   -0.0828    0.3719 C.ar    1  LIG1       -0.0345
     17 C           3.3164    0.9535   -0.2428 C.ar    1  LIG1        0.0045
     18 C           6.1715    0.9757   -0.1562 C.ar    1  LIG1        0.0260
     19 H           5.9572   -0.9155    0.8217 H       1  LIG1        0.0637
     20 C           4.0550    2.0122   -0.7777 C.ar    1  LIG1       -0.0106
     21 C           5.4491    2.0372   -0.7406 C.ar    1  LIG1        0.1252
     22 H           3.5258    2.8395   -1.2421 H       1  LIG1        0.0661
     23 C           3.3714   -1.2722    0.8924 C.1     1  LIG1       -0.0690
     24 C           2.8649   -2.2662    1.3624 C.1     1  LIG1       -0.1139
     25 H           2.4025   -3.1338    1.7723 H       1  LIG1        0.1232
     26 O           6.1492    3.0868   -1.2670 O.3     1  LIG1       -0.5061
     27 H           5.5271    3.6897   -1.6956 H       1  LIG1        0.2922
     28 C           8.4390   -0.1293   -0.4959 C.ar    1  LIG1        0.0333
     29 C           9.8370   -0.0676   -0.3575 C.ar    1  LIG1       -0.0345
     30 C           7.6574    0.9786   -0.0814 C.ar    1  LIG1        0.0045
     31 C          10.5019    1.0393    0.1720 C.ar    1  LIG1        0.0260
     32 H          10.4207   -0.9205   -0.6819 H       1  LIG1        0.0637
     33 C           8.3210    2.0912    0.4435 C.ar    1  LIG1       -0.0106
     34 C           9.7088    2.1336    0.5747 C.ar    1  LIG1        0.1252
     35 H           7.7360    2.9526    0.7530 H       1  LIG1        0.0661
     36 C           7.8691   -1.3038   -1.0795 C.1     1  LIG1       -0.0690
     37 C           7.4361   -2.3156   -1.5837 C.1     1  LIG1       -0.1139
     38 H           7.0357   -3.1987   -2.0245 H       1  LIG1        0.1232
     39 O          10.3346    3.2325    1.0947 O.3     1  LIG1       -0.5061
     40 H           9.6723    3.9183    1.2537 H       1  LIG1        0.2922
     41 C          12.8425    0.7185   -0.7662 C.ar    1  LIG1        0.0327
     42 C          14.2354    0.7004   -0.5476 C.ar    1  LIG1       -0.0423
     43 C          11.9838    1.0423    0.3156 C.ar    1  LIG1        0.0045
     44 C          14.7844    0.9948    0.6901 C.ar    1  LIG1       -0.0190
     45 H          14.8854    0.4547   -1.3807 H       1  LIG1        0.0631
     46 C          12.5526    1.3435    1.5589 C.ar    1  LIG1       -0.0112
     47 C          13.9344    1.3239    1.7516 C.ar    1  LIG1        0.1175
     48 H          11.8989    1.6014    2.3871 H       1  LIG1        0.0660
     49 H          15.8566    0.9808    0.8522 H       1  LIG1        0.0654
     50 C          12.3572    0.4401   -2.0817 C.1     1  LIG1       -0.0690
     51 C          12.0005    0.2038   -3.2144 C.1     1  LIG1       -0.1139
     52 H          11.6627   -0.0025   -4.2032 H       1  LIG1        0.1232
     53 O          14.5104    1.6096    2.9554 O.3     1  LIG1       -0.5067
     54 H          13.8175    1.8310    3.5918 H       1  LIG1        0.2921
@<TRIPOS>BOND
     1    52    51    1
     2    14    13    1
     3    51    50    3
     4    13     7    1
     5     8     6    1
     6    50    41    1
     7    38    37    1
     8    27    26    1
     9    37    36    3
    10     7     6   ar
    11     7     4   ar
    12     6     3   ar
    13    45    42    1
    14    26    21    1
    15    22    20    1
    16    36    28    1
    17    20    21   ar
    18    20    17   ar
    19    41    42   ar
    20    41    43   ar
    21    21    18   ar
    22    32    29    1
    23    42    44   ar
    24    28    29   ar
    25    28    30   ar
    26    29    31   ar
    27     9     3    1
    28     3     1   ar
    29     4    17    1
    30     4     2   ar
    31    17    15   ar
    32    18    30    1
    33    18    16   ar
    34    30    33   ar
    35    31    43    1
    36    31    34   ar
    37    43    46   ar
    38    15    16   ar
    39    15    23    1
    40    16    19    1
    41    33    34   ar
    42    33    35    1
    43    34    39    1
    44    44    49    1
    45    44    47   ar
    46    23    24    3
    47     2     1   ar
    48     2     5    1
    49     1    10    1
    50    39    40    1
    51    24    25    1
    52    46    47   ar
    53    46    48    1
    54    47    53    1
    55    10    11    3
    56    53    54    1
    57    11    12    1
