@<TRIPOS>MOLECULE
mol_data/opt/b3lyp/geoms/mol2/4eg.out
 15 15 0 0 0
SMALL
GASTEIGER

@<TRIPOS>ATOM
      1 C           0.0746   -0.0000    0.0004 C.ar    1  LIG1        0.0247
      2 C           1.4820    0.0138    0.0000 C.ar    1  LIG1       -0.0453
      3 C          -0.6057    1.2312    0.0003 C.ar    1  LIG1       -0.0453
      4 C           2.1822    1.2135   -0.0005 C.ar    1  LIG1       -0.0474
      5 H           2.0218   -0.9274    0.0001 H       1  LIG1        0.0630
      6 C           0.0935    2.4329   -0.0002 C.ar    1  LIG1       -0.0474
      7 C           1.4946    2.4356   -0.0006 C.ar    1  LIG1        0.0048
      8 H          -0.4565    3.3692   -0.0003 H       1  LIG1        0.0629
      9 H           3.2673    1.2011   -0.0007 H       1  LIG1        0.0629
     10 H          -1.6911    1.2382    0.0005 H       1  LIG1        0.0630
     11 C          -0.6451   -1.2335    0.0009 C.1     1  LIG1       -0.0697
     12 C          -1.2549   -2.2790    0.0012 C.1     1  LIG1       -0.1139
     13 H          -1.7910   -3.1996    0.0011 H       1  LIG1        0.1232
     14 S           2.4617    3.9359   -0.0012 S.3     1  LIG1       -0.1426
     15 H           1.4258    4.7967   -0.0011 H       1  LIG1        0.1071
@<TRIPOS>BOND
     1    14    15    1
     2    14     7    1
     3     9     4    1
     4     7     4   ar
     5     7     6   ar
     6     4     2   ar
     7     8     6    1
     8     6     3   ar
     9     2     5    1
    10     2     1   ar
    11     3     1   ar
    12     3    10    1
    13     1    11    1
    14    11    12    3
    15    13    12    1
