@<TRIPOS>MOLECULE
mol_data/opt/b3lyp/geoms/mol2/4eg4eg-4eg-4eg.out
 54 57 0 0 0
SMALL
GASTEIGER

@<TRIPOS>ATOM
      1 C          -0.2705   -0.1114   -0.0661 C.ar    1  LIG1        0.0253
      2 C           1.1322   -0.0698   -0.0319 C.ar    1  LIG1       -0.0375
      3 C          -0.9748    1.1054   -0.0926 C.ar    1  LIG1       -0.0453
      4 C           1.8356    1.1382   -0.0257 C.ar    1  LIG1       -0.0024
      5 H           1.6880   -1.0005   -0.0117 H       1  LIG1        0.0636
      6 C          -0.2916    2.3134   -0.0826 C.ar    1  LIG1       -0.0468
      7 C           1.1101    2.3484   -0.0466 C.ar    1  LIG1        0.0126
      8 H          -0.8557    3.2409   -0.0995 H       1  LIG1        0.0629
      9 H          -2.0592    1.0954   -0.1199 H       1  LIG1        0.0630
     10 C          -0.9634   -1.3603   -0.0768 C.1     1  LIG1       -0.0696
     11 C          -1.5532   -2.4171   -0.0867 C.1     1  LIG1       -0.1139
     12 H          -2.0701   -3.3486   -0.0953 H       1  LIG1        0.1232
     13 S           1.9982    3.9015   -0.0016 S.3     1  LIG1       -0.1420
     14 H           0.9024    4.6780    0.1069 H       1  LIG1        0.1071
     15 C           4.0568    0.5801    1.0752 C.ar    1  LIG1        0.0330
     16 C           5.4588    0.5590    1.0054 C.ar    1  LIG1       -0.0369
     17 C           3.3285    1.1109   -0.0169 C.ar    1  LIG1       -0.0004
     18 C           6.1630    1.0444   -0.0981 C.ar    1  LIG1       -0.0023
     19 H           6.0139    0.1559    1.8450 H       1  LIG1        0.0636
     20 C           4.0313    1.5876   -1.1255 C.ar    1  LIG1       -0.0390
     21 C           5.4300    1.5641   -1.1853 C.ar    1  LIG1        0.0131
     22 H           3.4645    1.9736   -1.9667 H       1  LIG1        0.0635
     23 C           3.4106    0.0835    2.2489 C.1     1  LIG1       -0.0690
     24 C           2.8971   -0.3437    3.2580 C.1     1  LIG1       -0.1139
     25 H           2.4318   -0.7155    4.1412 H       1  LIG1        0.1232
     26 S           6.3028    2.1444   -2.6345 S.3     1  LIG1       -0.1420
     27 H           5.1971    2.4192   -3.3537 H       1  LIG1        0.1071
     28 C           8.3767   -0.2018   -0.0439 C.ar    1  LIG1        0.0330
     29 C           9.7791   -0.1543    0.0006 C.ar    1  LIG1       -0.0369
     30 C           7.6552    1.0160   -0.0849 C.ar    1  LIG1       -0.0004
     31 C          10.4898    1.0473    0.0058 C.ar    1  LIG1       -0.0023
     32 H          10.3292   -1.0882    0.0289 H       1  LIG1        0.0636
     33 C           8.3648    2.2187   -0.0804 C.ar    1  LIG1       -0.0390
     34 C           9.7640    2.2555   -0.0418 C.ar    1  LIG1        0.0131
     35 H           7.8036    3.1472   -0.1020 H       1  LIG1        0.0635
     36 C           7.7233   -1.4725   -0.0567 C.1     1  LIG1       -0.0690
     37 C           7.2040   -2.5655   -0.0671 C.1     1  LIG1       -0.1139
     38 H           6.7350   -3.5220   -0.0777 H       1  LIG1        0.1232
     39 S          10.6472    3.8107   -0.0667 S.3     1  LIG1       -0.1420
     40 H           9.5604    4.5771   -0.2826 H       1  LIG1        0.1071
     41 C          12.7625    0.4534   -0.9570 C.ar    1  LIG1        0.0325
     42 C          14.1625    0.4288   -0.8122 C.ar    1  LIG1       -0.0447
     43 C          11.9806    1.0168    0.0811 C.ar    1  LIG1       -0.0004
     44 C          14.7828    0.9455    0.3162 C.ar    1  LIG1       -0.0474
     45 H          14.7612    0.0017   -1.6097 H       1  LIG1        0.0630
     46 C          12.6183    1.5270    1.2172 C.ar    1  LIG1       -0.0396
     47 C          14.0110    1.5021    1.3449 C.ar    1  LIG1        0.0054
     48 H          12.0070    1.9390    2.0139 H       1  LIG1        0.0635
     49 H          15.8652    0.9194    0.3967 H       1  LIG1        0.0629
     50 C          12.1736   -0.0741   -2.1469 C.1     1  LIG1       -0.0691
     51 C          11.7105   -0.5286   -3.1684 C.1     1  LIG1       -0.1139
     52 H          11.2848   -0.9222   -4.0622 H       1  LIG1        0.1232
     53 S          14.8592    2.1343    2.7813 S.3     1  LIG1       -0.1426
     54 H          13.7764    2.6513    3.3928 H       1  LIG1        0.1071
@<TRIPOS>BOND
     1    52    51    1
     2    27    26    1
     3    51    50    3
     4    26    21    1
     5    50    41    1
     6    22    20    1
     7    45    42    1
     8    21    20   ar
     9    21    18   ar
    10    20    17   ar
    11    41    42   ar
    12    41    43   ar
    13    42    44   ar
    14    40    39    1
    15     9     3    1
    16    35    33    1
    17     8     6    1
    18    18    30    1
    19    18    16   ar
    20    12    11    1
    21     3     6   ar
    22     3     1   ar
    23    11    10    3
    24    30    33   ar
    25    30    28   ar
    26     6     7   ar
    27    33    34   ar
    28    38    37    1
    29    10     1    1
    30    37    36    3
    31    39    34    1
    32     1     2   ar
    33    36    28    1
    34     7     4   ar
    35     7    13    1
    36    28    29   ar
    37    34    31   ar
    38     2     4   ar
    39     2     5    1
    40     4    17    1
    41    17    15   ar
    42    13    14    1
    43    29    31   ar
    44    29    32    1
    45    31    43    1
    46    43    46   ar
    47    44    49    1
    48    44    47   ar
    49    16    15   ar
    50    16    19    1
    51    15    23    1
    52    46    47   ar
    53    46    48    1
    54    47    53    1
    55    23    24    3
    56    53    54    1
    57    24    25    1
