@<TRIPOS>MOLECULE
mol_data/opt/b3lyp/geoms/mol2/4eg4eg-4eg4eg-.out
 54 57 0 0 0
SMALL
GASTEIGER

@<TRIPOS>ATOM
      1 C          -0.2713    0.1105   -0.5896 C.ar    1  LIG1        0.0253
      2 C           1.1317    0.1314   -0.5519 C.ar    1  LIG1       -0.0375
      3 C          -0.9728    1.1408    0.0613 C.ar    1  LIG1       -0.0453
      4 C           1.8381    1.1413    0.1078 C.ar    1  LIG1       -0.0024
      5 H           1.6855   -0.6567   -1.0497 H       1  LIG1        0.0636
      6 C          -0.2868    2.1484    0.7247 C.ar    1  LIG1       -0.0468
      7 C           1.1153    2.1625    0.7606 C.ar    1  LIG1        0.0126
      8 H          -0.8489    2.9316    1.2241 H       1  LIG1        0.0629
      9 H          -2.0575    1.1437    0.0433 H       1  LIG1        0.0630
     10 C          -0.9675   -0.9311   -1.2755 C.1     1  LIG1       -0.0696
     11 C          -1.5605   -1.8119   -1.8563 C.1     1  LIG1       -0.1139
     12 H          -2.0800   -2.5883   -2.3682 H       1  LIG1        0.1232
     13 S           2.0075    3.4393    1.6420 S.3     1  LIG1       -0.1420
     14 H           0.9145    4.0254    2.1685 H       1  LIG1        0.1071
     15 C           4.0685    0.0803    0.7049 C.ar    1  LIG1        0.0330
     16 C           5.4697    0.1060    0.6230 C.ar    1  LIG1       -0.0369
     17 C           3.3309    1.1189    0.0866 C.ar    1  LIG1       -0.0004
     18 C           6.1645    1.1183   -0.0416 C.ar    1  LIG1       -0.0023
     19 H           6.0322   -0.6881    1.1011 H       1  LIG1        0.0636
     20 C           4.0242    2.1270   -0.5866 C.ar    1  LIG1       -0.0390
     21 C           5.4222    2.1450   -0.6614 C.ar    1  LIG1        0.0131
     22 H           3.4502    2.9084   -1.0741 H       1  LIG1        0.0635
     23 C           3.4323   -0.9796    1.4216 C.1     1  LIG1       -0.0690
     24 C           2.9269   -1.8906    2.0373 C.1     1  LIG1       -0.1139
     25 H           2.4687   -2.6862    2.5776 H       1  LIG1        0.1232
     26 S           6.2824    3.4275   -1.5641 S.3     1  LIG1       -0.1420
     27 H           5.1712    4.0411   -2.0155 H       1  LIG1        0.1071
     28 C           8.3756    0.0486   -0.6906 C.ar    1  LIG1        0.0330
     29 C           9.7785    0.0709   -0.6437 C.ar    1  LIG1       -0.0369
     30 C           7.6565    1.0924   -0.0593 C.ar    1  LIG1       -0.0004
     31 C          10.4919    1.0845   -0.0015 C.ar    1  LIG1       -0.0023
     32 H          10.3268   -0.7272   -1.1314 H       1  LIG1        0.0636
     33 C           8.3688    2.1025    0.5910 C.ar    1  LIG1       -0.0390
     34 C           9.7682    2.1169    0.6307 C.ar    1  LIG1        0.0131
     35 H           7.8092    2.8878    1.0887 H       1  LIG1        0.0635
     36 C           7.7197   -1.0132   -1.3866 C.1     1  LIG1       -0.0690
     37 C           7.1985   -1.9261   -1.9861 C.1     1  LIG1       -0.1139
     38 H           6.7279   -2.7240   -2.5122 H       1  LIG1        0.1232
     39 S          10.6553    3.4013    1.5033 S.3     1  LIG1       -0.1420
     40 H           9.5579    4.0259    1.9729 H       1  LIG1        0.1071
     41 C          12.7117    0.0204    0.6192 C.ar    1  LIG1        0.0325
     42 C          14.1172    0.0328    0.5397 C.ar    1  LIG1       -0.0447
     43 C          11.9846    1.0547   -0.0193 C.ar    1  LIG1       -0.0004
     44 C          14.7944    1.0325   -0.1434 C.ar    1  LIG1       -0.0474
     45 H          14.6740   -0.7569    1.0328 H       1  LIG1        0.0630
     46 C          12.6796    2.0532   -0.7104 C.ar    1  LIG1       -0.0396
     47 C          14.0767    2.0560   -0.7770 C.ar    1  LIG1        0.0054
     48 H          12.1094    2.8306   -1.2089 H       1  LIG1        0.0635
     49 H          15.8793    1.0195   -0.1826 H       1  LIG1        0.0629
     50 C          12.0633   -1.0220    1.3502 C.1     1  LIG1       -0.0691
     51 C          11.5516   -1.9202    1.9795 C.1     1  LIG1       -0.1139
     52 H          11.0868   -2.7040    2.5313 H       1  LIG1        0.1232
     53 S          14.9984    3.3037   -1.6574 S.3     1  LIG1       -0.1426
     54 H          13.9485    4.0831   -1.9797 H       1  LIG1        0.1071
@<TRIPOS>BOND
     1    38    37    1
     2    12    11    1
     3    27    26    1
     4    37    36    3
     5    54    53    1
     6    11    10    3
     7    53    47    1
     8    26    21    1
     9    36    28    1
    10    10     1    1
    11    48    46    1
    12    32    29    1
    13    22    20    1
    14     5     2    1
    15    47    46   ar
    16    47    44   ar
    17    46    43   ar
    18    28    29   ar
    19    28    30   ar
    20    21    20   ar
    21    21    18   ar
    22    29    31   ar
    23     1     2   ar
    24     1     3   ar
    25    20    17   ar
    26     2     4   ar
    27    49    44    1
    28    44    42   ar
    29    30    18    1
    30    30    33   ar
    31    18    16   ar
    32    43    31    1
    33    43    41   ar
    34    31    34   ar
    35     9     3    1
    36     3     6   ar
    37    17     4    1
    38    17    15   ar
    39     4     7   ar
    40    42    41   ar
    41    42    45    1
    42    33    34   ar
    43    33    35    1
    44    41    50    1
    45    16    15   ar
    46    16    19    1
    47    34    39    1
    48    15    23    1
    49     6     7   ar
    50     6     8    1
    51     7    13    1
    52    50    51    3
    53    23    24    3
    54    39    40    1
    55    13    14    1
    56    51    52    1
    57    24    25    1
