@<TRIPOS>MOLECULE
mol_data/opt/b3lyp/geoms/mol2/4eg4eg4eg4eg-.out
 54 57 0 0 0
SMALL
GASTEIGER

@<TRIPOS>ATOM
      1 C          -0.2416    0.5294    1.0688 C.ar    1  LIG1        0.0253
      2 C           1.1593    0.5220    0.9804 C.ar    1  LIG1       -0.0375
      3 C          -0.9759    1.0717   -0.0007 C.ar    1  LIG1       -0.0453
      4 C           1.8325    1.0368   -0.1314 C.ar    1  LIG1       -0.0024
      5 H           1.7376    0.1075    1.7985 H       1  LIG1        0.0636
      6 C          -0.3232    1.5823   -1.1139 C.ar    1  LIG1       -0.0468
      7 C           1.0770    1.5704   -1.1974 C.ar    1  LIG1        0.0126
      8 H          -0.9103    1.9920   -1.9302 H       1  LIG1        0.0629
      9 H          -2.0595    1.0880    0.0481 H       1  LIG1        0.0630
     10 C          -0.9030    0.0015    2.2194 C.1     1  LIG1       -0.0696
     11 C          -1.4666   -0.4443    3.1933 C.1     1  LIG1       -0.1139
     12 H          -1.9603   -0.8376    4.0515 H       1  LIG1        0.1232
     13 S           1.9245    2.1967   -2.6439 S.3     1  LIG1       -0.1420
     14 H           0.8070    2.4362   -3.3577 H       1  LIG1        0.1071
     15 C           4.0622   -0.1839   -0.1458 C.ar    1  LIG1        0.0330
     16 C           5.4645   -0.1207   -0.1241 C.ar    1  LIG1       -0.0369
     17 C           3.3256    1.0256   -0.1469 C.ar    1  LIG1       -0.0004
     18 C           6.1614    1.0890   -0.1044 C.ar    1  LIG1       -0.0023
     19 H           6.0259   -1.0482   -0.1257 H       1  LIG1        0.0636
     20 C           4.0216    2.2361   -0.1281 C.ar    1  LIG1       -0.0390
     21 C           5.4207    2.2890   -0.1143 C.ar    1  LIG1        0.0131
     22 H           3.4497    3.1582   -0.1181 H       1  LIG1        0.0635
     23 C           3.4236   -1.4618   -0.1759 C.1     1  LIG1       -0.0690
     24 C           2.9169   -2.5604   -0.2017 C.1     1  LIG1       -0.1139
     25 H           2.4572   -3.5212   -0.2258 H       1  LIG1        0.1232
     26 S           6.2843    3.8558   -0.1240 S.3     1  LIG1       -0.1420
     27 H           5.1865    4.6110   -0.3227 H       1  LIG1        0.1071
     28 C           8.4291    0.5358   -1.1077 C.ar    1  LIG1        0.0330
     29 C           9.8274    0.5335   -0.9832 C.ar    1  LIG1       -0.0369
     30 C           7.6529    1.0755   -0.0535 C.ar    1  LIG1       -0.0004
     31 C          10.4821    1.0451    0.1387 C.ar    1  LIG1       -0.0023
     32 H          10.4198    0.1249   -1.7942 H       1  LIG1        0.0636
     33 C           8.3060    1.5781    1.0739 C.ar    1  LIG1       -0.0390
     34 C           9.7015    1.5725    1.1881 C.ar    1  LIG1        0.0131
     35 H           7.7028    1.9705    1.8863 H       1  LIG1        0.0635
     36 C           7.8341    0.0139   -2.2972 C.1     1  LIG1       -0.0690
     37 C           7.3621   -0.4341   -3.3175 C.1     1  LIG1       -0.1139
     38 H           6.9312   -0.8225   -4.2110 H       1  LIG1        0.1232
     39 S          10.5112    2.1875    2.6594 S.3     1  LIG1       -0.1420
     40 H           9.3762    2.4553    3.3342 H       1  LIG1        0.1071
     41 C          12.7101   -0.1721    0.1968 C.ar    1  LIG1        0.0325
     42 C          14.1165   -0.1089    0.2075 C.ar    1  LIG1       -0.0447
     43 C          11.9745    1.0382    0.1836 C.ar    1  LIG1       -0.0004
     44 C          14.7864    1.1060    0.2090 C.ar    1  LIG1       -0.0474
     45 H          14.6797   -1.0360    0.2222 H       1  LIG1        0.0630
     46 C          12.6626    2.2565    0.1785 C.ar    1  LIG1       -0.0396
     47 C          14.0603    2.3046    0.1946 C.ar    1  LIG1        0.0054
     48 H          12.0868    3.1760    0.1513 H       1  LIG1        0.0635
     49 H          15.8719    1.1237    0.2237 H       1  LIG1        0.0629
     50 C          12.0687   -1.4487    0.2137 C.1     1  LIG1       -0.0691
     51 C          11.5630   -2.5481    0.2298 C.1     1  LIG1       -0.1139
     52 H          11.1033   -3.5090    0.2448 H       1  LIG1        0.1232
     53 S          14.9729    3.8370    0.1776 S.3     1  LIG1       -0.1426
     54 H          13.9105    4.6584    0.2797 H       1  LIG1        0.1071
@<TRIPOS>BOND
     1    38    37    1
     2    14    13    1
     3    37    36    3
     4    13     7    1
     5    36    28    1
     6     8     6    1
     7    32    29    1
     8     7     6   ar
     9     7     4   ar
    10     6     3   ar
    11    28    29   ar
    12    28    30   ar
    13    29    31   ar
    14    27    26    1
    15    25    24    1
    16    24    23    3
    17    23    15    1
    18    17    15   ar
    19    17     4    1
    20    17    20   ar
    21    15    16   ar
    22     4     2   ar
    23    20    22    1
    24    20    21   ar
    25    19    16    1
    26    16    18   ar
    27    26    21    1
    28    21    18   ar
    29    18    30    1
    30    30    33   ar
    31     3     9    1
    32     3     1   ar
    33    31    43    1
    34    31    34   ar
    35    48    46    1
    36    53    47    1
    37    53    54    1
    38    46    43   ar
    39    46    47   ar
    40    43    41   ar
    41    47    44   ar
    42    41    42   ar
    43    41    50    1
    44    42    44   ar
    45    42    45    1
    46    44    49    1
    47    50    51    3
    48    51    52    1
    49     2     1   ar
    50     2     5    1
    51     1    10    1
    52    33    34   ar
    53    33    35    1
    54    34    39    1
    55    10    11    3
    56    39    40    1
    57    11    12    1
