@<TRIPOS>MOLECULE
mol_data/opt/b3lyp/geoms/mol2/4eg4eg-4eg-.out
 41 43 0 0 0
SMALL
GASTEIGER

@<TRIPOS>ATOM
      1 C          -0.1513    0.0193   -0.4290 C.ar    1  LIG1        0.0253
      2 C           1.2516    0.0451   -0.3886 C.ar    1  LIG1       -0.0375
      3 C          -0.8536    1.1585    0.0026 C.ar    1  LIG1       -0.0453
      4 C           1.9568    1.1641    0.0635 C.ar    1  LIG1       -0.0024
      5 H           1.8059   -0.8266   -0.7182 H       1  LIG1        0.0636
      6 C          -0.1685    2.2763    0.4576 C.ar    1  LIG1       -0.0468
      7 C           1.2334    2.2952    0.4975 C.ar    1  LIG1        0.0126
      8 H          -0.7312    3.1437    0.7892 H       1  LIG1        0.0629
      9 H          -1.9382    1.1591   -0.0213 H       1  LIG1        0.0630
     10 C          -0.8466   -1.1360   -0.9001 C.1     1  LIG1       -0.0696
     11 C          -1.4390   -2.1131   -1.2994 C.1     1  LIG1       -0.1139
     12 H          -1.9579   -2.9743   -1.6511 H       1  LIG1        0.1232
     13 S           2.1253    3.7198    1.1122 S.3     1  LIG1       -0.1420
     14 H           1.0322    4.3980    1.5129 H       1  LIG1        0.1071
     15 C           4.1794    0.2449    0.8821 C.ar    1  LIG1        0.0330
     16 C           5.5813    0.2509    0.8076 C.ar    1  LIG1       -0.0369
     17 C           3.4497    1.1355    0.0578 C.ar    1  LIG1       -0.0004
     18 C           6.2836    1.1036   -0.0460 C.ar    1  LIG1       -0.0023
     19 H           6.1379   -0.4290    1.4429 H       1  LIG1        0.0636
     20 C           4.1508    1.9827   -0.8030 C.ar    1  LIG1       -0.0390
     21 C           5.5494    1.9828   -0.8687 C.ar    1  LIG1        0.0131
     22 H           3.5829    2.6484   -1.4449 H       1  LIG1        0.0635
     23 C           3.5337   -0.6438    1.7958 C.1     1  LIG1       -0.0690
     24 C           3.0198   -1.4079    2.5810 C.1     1  LIG1       -0.1139
     25 H           2.5546   -2.0748    3.2693 H       1  LIG1        0.1232
     26 S           6.4219    3.0527   -2.0059 S.3     1  LIG1       -0.1420
     27 H           5.3167    3.5674   -2.5793 H       1  LIG1        0.1071
     28 C           8.4927   -0.0734   -0.4706 C.ar    1  LIG1        0.0325
     29 C           9.8994   -0.0483   -0.4222 C.ar    1  LIG1       -0.0447
     30 C           7.7763    1.0731   -0.0483 C.ar    1  LIG1       -0.0004
     31 C          10.5880    1.0704    0.0240 C.ar    1  LIG1       -0.0474
     32 H          10.4479   -0.9248   -0.7504 H       1  LIG1        0.0630
     33 C           8.4829    2.1918    0.4067 C.ar    1  LIG1       -0.0396
     34 C           9.8810    2.2050    0.4443 C.ar    1  LIG1        0.0054
     35 H           7.9212    3.0572    0.7436 H       1  LIG1        0.0635
     36 H          11.6735    1.0636    0.0435 H       1  LIG1        0.0629
     37 C           7.8315   -1.2436   -0.9551 C.1     1  LIG1       -0.0691
     38 C           7.3083   -2.2520   -1.3724 C.1     1  LIG1       -0.1139
     39 H           6.8336   -3.1326   -1.7386 H       1  LIG1        0.1232
     40 S          10.8176    3.6065    1.0278 S.3     1  LIG1       -0.1426
     41 H           9.7744    4.4432    1.1866 H       1  LIG1        0.1071
@<TRIPOS>BOND
     1    27    26    1
     2    26    21    1
     3    39    38    1
     4    12    11    1
     5    22    20    1
     6    38    37    3
     7    11    10    3
     8    37    28    1
     9    10     1    1
    10    21    20   ar
    11    21    18   ar
    12    20    17   ar
    13    32    29    1
    14     5     2    1
    15    28    29   ar
    16    28    30   ar
    17     1     2   ar
    18     1     3   ar
    19    29    31   ar
    20     2     4   ar
    21    30    18    1
    22    30    33   ar
    23    18    16   ar
    24     9     3    1
    25     3     6   ar
    26    31    36    1
    27    31    34   ar
    28    17     4    1
    29    17    15   ar
    30     4     7   ar
    31    33    34   ar
    32    33    35    1
    33    34    40    1
    34     6     7   ar
    35     6     8    1
    36     7    13    1
    37    16    15   ar
    38    16    19    1
    39    15    23    1
    40    40    41    1
    41    13    14    1
    42    23    24    3
    43    24    25    1
