@<TRIPOS>MOLECULE
mol_data/opt/b3lyp/geoms/mol2/4eg4eg-4eg.out
 41 43 0 0 0
SMALL
GASTEIGER

@<TRIPOS>ATOM
      1 C          -0.1521    0.0235   -0.4303 C.ar    1  LIG1        0.0253
      2 C           1.2509    0.0491   -0.3922 C.ar    1  LIG1       -0.0375
      3 C          -0.8537    1.1582    0.0142 C.ar    1  LIG1       -0.0453
      4 C           1.9569    1.1636    0.0698 C.ar    1  LIG1       -0.0024
      5 H           1.8047   -0.8191   -0.7317 H       1  LIG1        0.0636
      6 C          -0.1678    2.2715    0.4792 C.ar    1  LIG1       -0.0468
      7 C           1.2342    2.2901    0.5166 C.ar    1  LIG1        0.0126
      8 H          -0.7299    3.1354    0.8207 H       1  LIG1        0.0629
      9 H          -1.9383    1.1589   -0.0075 H       1  LIG1        0.0630
     10 C          -0.8482   -1.1270   -0.9117 C.1     1  LIG1       -0.0696
     11 C          -1.4411   -2.1001   -1.3196 C.1     1  LIG1       -0.1139
     12 H          -1.9606   -2.9579   -1.6791 H       1  LIG1        0.1232
     13 S           2.1271    3.7086    1.1437 S.3     1  LIG1       -0.1420
     14 H           1.0345    4.3831    1.5523 H       1  LIG1        0.1071
     15 C           4.1810    0.2363    0.8749 C.ar    1  LIG1        0.0330
     16 C           5.5828    0.2429    0.7978 C.ar    1  LIG1       -0.0369
     17 C           3.4498    1.1351    0.0609 C.ar    1  LIG1       -0.0004
     18 C           6.2835    1.1041   -0.0486 C.ar    1  LIG1       -0.0023
     19 H           6.1404   -0.4433    1.4252 H       1  LIG1        0.0636
     20 C           4.1493    1.9908   -0.7928 C.ar    1  LIG1       -0.0390
     21 C           5.5478    1.9914   -0.8612 C.ar    1  LIG1        0.0131
     22 H           3.5802    2.6629   -1.4269 H       1  LIG1        0.0635
     23 C           3.5370   -0.6615    1.7809 C.1     1  LIG1       -0.0690
     24 C           3.0246   -1.4333    2.5594 C.1     1  LIG1       -0.1139
     25 H           2.5606   -2.1070    3.2420 H       1  LIG1        0.1232
     26 S           6.4182    3.0724   -1.9893 S.3     1  LIG1       -0.1420
     27 H           5.3120    3.5937   -2.5547 H       1  LIG1        0.1071
     28 C           8.4917   -0.0684   -0.4901 C.ar    1  LIG1        0.0325
     29 C           9.8986   -0.0438   -0.4443 C.ar    1  LIG1       -0.0447
     30 C           7.7762    1.0736   -0.0542 C.ar    1  LIG1       -0.0004
     31 C          10.5880    1.0702    0.0124 C.ar    1  LIG1       -0.0474
     32 H          10.4464   -0.9167   -0.7828 H       1  LIG1        0.0630
     33 C           8.4837    2.1873    0.4113 C.ar    1  LIG1       -0.0396
     34 C           9.8818    2.2002    0.4462 C.ar    1  LIG1        0.0054
     35 H           7.9226    3.0491    0.7584 H       1  LIG1        0.0635
     36 H          11.6735    1.0632    0.0298 H       1  LIG1        0.0629
     37 C           7.8297   -1.2335   -0.9855 C.1     1  LIG1       -0.0691
     38 C           7.3059   -2.2376   -1.4123 C.1     1  LIG1       -0.1139
     39 H           6.8305   -3.1144   -1.7867 H       1  LIG1        0.1232
     40 S          10.8195    3.5955    1.0428 S.3     1  LIG1       -0.1426
     41 H           9.7767    4.4304    1.2125 H       1  LIG1        0.1071
@<TRIPOS>BOND
     1    27    26    1
     2    26    21    1
     3    39    38    1
     4    12    11    1
     5    22    20    1
     6    38    37    3
     7    11    10    3
     8    37    28    1
     9    10     1    1
    10    21    20   ar
    11    21    18   ar
    12    20    17   ar
    13    32    29    1
    14     5     2    1
    15    28    29   ar
    16    28    30   ar
    17    29    31   ar
    18     1     2   ar
    19     1     3   ar
    20     2     4   ar
    21    30    18    1
    22    30    33   ar
    23    18    16   ar
    24     9     3    1
    25    31    36    1
    26    31    34   ar
    27     3     6   ar
    28    17     4    1
    29    17    15   ar
    30     4     7   ar
    31    33    34   ar
    32    33    35    1
    33    34    40    1
    34     6     7   ar
    35     6     8    1
    36     7    13    1
    37    16    15   ar
    38    16    19    1
    39    15    23    1
    40    40    41    1
    41    13    14    1
    42    23    24    3
    43    24    25    1
