@<TRIPOS>MOLECULE
mol_data/opt/b3lyp/geoms/mol2/4eg4eg-4eg4eg.out
 54 57 0 0 0
SMALL
GASTEIGER

@<TRIPOS>ATOM
      1 C          -0.2741    0.1223   -0.5729 C.ar    1  LIG1        0.0253
      2 C           1.1291    0.1415   -0.5399 C.ar    1  LIG1       -0.0375
      3 C          -0.9723    1.1474    0.0896 C.ar    1  LIG1       -0.0453
      4 C           1.8388    1.1447    0.1263 C.ar    1  LIG1       -0.0024
      5 H           1.6802   -0.6427   -1.0467 H       1  LIG1        0.0636
      6 C          -0.2829    2.1483    0.7596 C.ar    1  LIG1       -0.0468
      7 C           1.1194    2.1607    0.7908 C.ar    1  LIG1        0.0126
      8 H          -0.8424    2.9276    1.2680 H       1  LIG1        0.0629
      9 H          -2.0570    1.1516    0.0755 H       1  LIG1        0.0630
     10 C          -0.9737   -0.9124   -1.2656 C.1     1  LIG1       -0.0696
     11 C          -1.5697   -1.7874   -1.8523 C.1     1  LIG1       -0.1139
     12 H          -2.0918   -2.5587   -2.3693 H       1  LIG1        0.1232
     13 S           2.0159    3.4286    1.6806 S.3     1  LIG1       -0.1420
     14 H           0.9253    4.0104    2.2169 H       1  LIG1        0.1071
     15 C           4.0702    0.0756    0.7051 C.ar    1  LIG1        0.0330
     16 C           5.4712    0.1008    0.6186 C.ar    1  LIG1       -0.0369
     17 C           3.3315    1.1210    0.0997 C.ar    1  LIG1       -0.0004
     18 C           6.1646    1.1190   -0.0384 C.ar    1  LIG1       -0.0023
     19 H           6.0345   -0.6985    1.0869 H       1  LIG1        0.0636
     20 C           4.0234    2.1350   -0.5660 C.ar    1  LIG1       -0.0390
     21 C           5.4212    2.1524   -0.6454 C.ar    1  LIG1        0.0131
     22 H           3.4485    2.9217   -1.0438 H       1  LIG1        0.0635
     23 C           3.4356   -0.9907    1.4136 C.1     1  LIG1       -0.0690
     24 C           2.9317   -1.9073    2.0222 C.1     1  LIG1       -0.1139
     25 H           2.4748   -2.7078    2.5564 H       1  LIG1        0.1232
     26 S           6.2796    3.4430   -1.5383 S.3     1  LIG1       -0.1420
     27 H           5.1676    4.0619   -1.9802 H       1  LIG1        0.1071
     28 C           8.3724    0.0542   -0.7065 C.ar    1  LIG1        0.0330
     29 C           9.7756    0.0750   -0.6643 C.ar    1  LIG1       -0.0369
     30 C           7.6565    1.0920   -0.0617 C.ar    1  LIG1       -0.0004
     31 C          10.4921    1.0812   -0.0141 C.ar    1  LIG1       -0.0023
     32 H          10.3214   -0.7185   -1.1623 H       1  LIG1        0.0636
     33 C           8.3720    2.0946    0.5967 C.ar    1  LIG1       -0.0390
     34 C           9.7715    2.1074    0.6316 C.ar    1  LIG1        0.0131
     35 H           7.8148    2.8750    1.1047 H       1  LIG1        0.0635
     36 C           7.7131   -0.9996   -1.4112 C.1     1  LIG1       -0.0690
     37 C           7.1888   -1.9057   -2.0183 C.1     1  LIG1       -0.1139
     38 H           6.7155   -2.6976   -2.5509 H       1  LIG1        0.1232
     39 S          10.6629    3.3818    1.5145 S.3     1  LIG1       -0.1420
     40 H           9.5677    4.0023    1.9947 H       1  LIG1        0.1071
     41 C          12.7131    0.0085    0.5871 C.ar    1  LIG1        0.0325
     42 C          14.1183    0.0205    0.5026 C.ar    1  LIG1       -0.0447
     43 C          11.9846    1.0503   -0.0376 C.ar    1  LIG1       -0.0004
     44 C          14.7940    1.0269   -0.1722 C.ar    1  LIG1       -0.0474
     45 H          14.6762   -0.7750    0.9851 H       1  LIG1        0.0630
     46 C          12.6781    2.0555   -0.7205 C.ar    1  LIG1       -0.0396
     47 C          14.0749    2.0578   -0.7922 C.ar    1  LIG1        0.0054
     48 H          12.1068    2.8386   -1.2085 H       1  LIG1        0.0635
     49 H          15.8787    1.0134   -0.2154 H       1  LIG1        0.0629
     50 C          12.0664   -1.0410    1.3092 C.1     1  LIG1       -0.0691
     51 C          11.5561   -1.9455    1.9307 C.1     1  LIG1       -0.1139
     52 H          11.0926   -2.7348    2.4758 H       1  LIG1        0.1232
     53 S          14.9945    3.3141   -1.6626 S.3     1  LIG1       -0.1426
     54 H          13.9442    4.0981   -1.9720 H       1  LIG1        0.1071
@<TRIPOS>BOND
     1    38    37    1
     2    12    11    1
     3    37    36    3
     4    27    26    1
     5    54    53    1
     6    11    10    3
     7    53    47    1
     8    26    21    1
     9    36    28    1
    10    10     1    1
    11    48    46    1
    12    32    29    1
    13     5     2    1
    14    22    20    1
    15    47    46   ar
    16    47    44   ar
    17    46    43   ar
    18    28    29   ar
    19    28    30   ar
    20    29    31   ar
    21    21    20   ar
    22    21    18   ar
    23     1     2   ar
    24     1     3   ar
    25    20    17   ar
    26     2     4   ar
    27    49    44    1
    28    44    42   ar
    29    30    18    1
    30    30    33   ar
    31    18    16   ar
    32    43    31    1
    33    43    41   ar
    34    31    34   ar
    35     9     3    1
    36     3     6   ar
    37    17     4    1
    38    17    15   ar
    39     4     7   ar
    40    42    41   ar
    41    42    45    1
    42    41    50    1
    43    33    34   ar
    44    33    35    1
    45    16    15   ar
    46    16    19    1
    47    34    39    1
    48    15    23    1
    49     6     7   ar
    50     6     8    1
    51     7    13    1
    52    50    51    3
    53    23    24    3
    54    39    40    1
    55    13    14    1
    56    51    52    1
    57    24    25    1
