@<TRIPOS>MOLECULE
mol_data/opt/b3lyp/geoms/mol2/4eg4eg-.out
 28 29 0 0 0
SMALL
GASTEIGER

@<TRIPOS>ATOM
      1 C          -0.0590    0.1281   -0.5588 C.ar    1  LIG1        0.0253
      2 C           1.3446    0.1481   -0.5744 C.ar    1  LIG1       -0.0375
      3 C          -0.7344    1.1528    0.1273 C.ar    1  LIG1       -0.0453
      4 C           2.0764    1.1517    0.0669 C.ar    1  LIG1       -0.0024
      5 H           1.8782   -0.6359   -1.1001 H       1  LIG1        0.0636
      6 C          -0.0227    2.1542    0.7728 C.ar    1  LIG1       -0.0468
      7 C           1.3798    2.1677    0.7552 C.ar    1  LIG1        0.0126
      8 H          -0.5648    2.9333    1.3001 H       1  LIG1        0.0629
      9 H          -1.8190    1.1563    0.1509 H       1  LIG1        0.0630
     10 C          -0.7812   -0.9073   -1.2271 C.1     1  LIG1       -0.0696
     11 C          -1.3955   -1.7832   -1.7930 C.1     1  LIG1       -0.1139
     12 H          -1.9337   -2.5554   -2.2920 H       1  LIG1        0.1232
     13 S           2.3059    3.4372    1.6123 S.3     1  LIG1       -0.1420
     14 H           1.2327    4.0261    2.1753 H       1  LIG1        0.1071
     15 C           4.3247    0.0852    0.5748 C.ar    1  LIG1        0.0325
     16 C           5.7257    0.1054    0.4380 C.ar    1  LIG1       -0.0447
     17 C           3.5679    1.1293   -0.0115 C.ar    1  LIG1       -0.0004
     18 C           6.3711    1.1232   -0.2494 C.ar    1  LIG1       -0.0474
     19 H           6.3050   -0.6919    0.8913 H       1  LIG1        0.0630
     20 C           4.2309    2.1449   -0.7091 C.ar    1  LIG1       -0.0396
     21 C           5.6243    2.1567   -0.8307 C.ar    1  LIG1        0.0054
     22 H           3.6381    2.9287   -1.1697 H       1  LIG1        0.0635
     23 H           7.4536    1.1171   -0.3312 H       1  LIG1        0.0629
     24 C           3.7107   -0.9751    1.3096 C.1     1  LIG1       -0.0691
     25 C           3.2288   -1.8887    1.9403 C.1     1  LIG1       -0.1139
     26 H           2.7886   -2.6857    2.4935 H       1  LIG1        0.1232
     27 S           6.5046    3.4267   -1.7217 S.3     1  LIG1       -0.1426
     28 H           5.4474    4.2305   -1.9454 H       1  LIG1        0.1071
@<TRIPOS>BOND
     1    12    11    1
     2    28    27    1
     3    11    10    3
     4    27    21    1
     5    10     1    1
     6    22    20    1
     7     5     2    1
     8    21    20   ar
     9    21    18   ar
    10    20    17   ar
    11     2     1   ar
    12     2     4   ar
    13     1     3   ar
    14    23    18    1
    15    18    16   ar
    16    17     4    1
    17    17    15   ar
    18     4     7   ar
    19     3     9    1
    20     3     6   ar
    21    16    15   ar
    22    16    19    1
    23    15    24    1
    24     7     6   ar
    25     7    13    1
    26     6     8    1
    27    24    25    3
    28    13    14    1
    29    25    26    1
