@<TRIPOS>MOLECULE
mol_data/opt/b3lyp/geoms/mol2/4eg4eg.out
 28 29 0 0 0
SMALL
GASTEIGER

@<TRIPOS>ATOM
      1 C          -0.0605    0.1323    0.5600 C.ar    1  LIG1        0.0253
      2 C           1.3429    0.1535    0.5807 C.ar    1  LIG1       -0.0375
      3 C          -0.7340    1.1498   -0.1389 C.ar    1  LIG1       -0.0453
      4 C           2.0766    1.1511   -0.0678 C.ar    1  LIG1       -0.0024
      5 H           1.8751   -0.6249    1.1161 H       1  LIG1        0.0636
      6 C          -0.0205    2.1452   -0.7915 C.ar    1  LIG1       -0.0468
      7 C           1.3820    2.1598   -0.7688 C.ar    1  LIG1        0.0126
      8 H          -0.5610    2.9186   -1.3285 H       1  LIG1        0.0629
      9 H          -1.8184    1.1523   -0.1665 H       1  LIG1        0.0630
     10 C          -0.7846   -0.8969    1.2358 C.1     1  LIG1       -0.0696
     11 C          -1.4005   -1.7675    1.8081 C.1     1  LIG1       -0.1139
     12 H          -1.9401   -2.5349    2.3127 H       1  LIG1        0.1232
     13 S           2.3101    3.4213   -1.6347 S.3     1  LIG1       -0.1420
     14 H           1.2388    4.0032   -2.2083 H       1  LIG1        0.1071
     15 C           4.3270    0.0804   -0.5561 C.ar    1  LIG1        0.0325
     16 C           5.7274    0.1023   -0.4143 C.ar    1  LIG1       -0.0447
     17 C           3.5677    1.1302    0.0166 C.ar    1  LIG1       -0.0004
     18 C           6.3700    1.1272    0.2651 C.ar    1  LIG1       -0.0474
     19 H           6.3086   -0.6995   -0.8572 H       1  LIG1        0.0630
     20 C           4.2279    2.1530    0.7063 C.ar    1  LIG1       -0.0396
     21 C           5.6208    2.1664    0.8331 C.ar    1  LIG1        0.0054
     22 H           3.6333    2.9413    1.1568 H       1  LIG1        0.0635
     23 H           7.4523    1.1223    0.3511 H       1  LIG1        0.0629
     24 C           3.7159   -0.9874   -1.2825 C.1     1  LIG1       -0.0691
     25 C           3.2364   -1.9074   -1.9056 C.1     1  LIG1       -0.1139
     26 H           2.7983   -2.7100   -2.4523 H       1  LIG1        0.1232
     27 S           6.4976    3.4456    1.7146 S.3     1  LIG1       -0.1426
     28 H           5.4397    4.2521    1.9247 H       1  LIG1        0.1071
@<TRIPOS>BOND
     1    26    25    1
     2    14    13    1
     3    25    24    3
     4    13     7    1
     5     8     6    1
     6    24    15    1
     7    19    16    1
     8     6     7   ar
     9     6     3   ar
    10     7     4   ar
    11    15    16   ar
    12    15    17   ar
    13    16    18   ar
    14     9     3    1
    15     3     1   ar
    16     4    17    1
    17     4     2   ar
    18    17    20   ar
    19    18    23    1
    20    18    21   ar
    21     1     2   ar
    22     1    10    1
    23     2     5    1
    24    20    21   ar
    25    20    22    1
    26    21    27    1
    27    10    11    3
    28    27    28    1
    29    11    12    1
