@<TRIPOS>MOLECULE
mol_data/opt/b3lyp/geoms/mol2/4eg4eg4eg-.out
 41 43 0 0 0
SMALL
GASTEIGER

@<TRIPOS>ATOM
      1 C          -0.1535    0.0315    0.4426 C.ar    1  LIG1        0.0253
      2 C           1.2495    0.0551    0.4053 C.ar    1  LIG1       -0.0375
      3 C          -0.8535    1.1627   -0.0134 C.ar    1  LIG1       -0.0453
      4 C           1.9571    1.1642   -0.0670 C.ar    1  LIG1       -0.0024
      5 H           1.8020   -0.8105    0.7536 H       1  LIG1        0.0636
      6 C          -0.1660    2.2705   -0.4887 C.ar    1  LIG1       -0.0468
      7 C           1.2361    2.2871   -0.5254 C.ar    1  LIG1        0.0126
      8 H          -0.7268    3.1318   -0.8389 H       1  LIG1        0.0629
      9 H          -1.9382    1.1649    0.0077 H       1  LIG1        0.0630
     10 C          -0.8514   -1.1134    0.9347 C.1     1  LIG1       -0.0696
     11 C          -1.4458   -2.0818    1.3517 C.1     1  LIG1       -0.1139
     12 H          -1.9665   -2.9354    1.7191 H       1  LIG1        0.1232
     13 S           2.1312    3.6981   -1.1658 S.3     1  LIG1       -0.1420
     14 H           1.0399    4.3693   -1.5831 H       1  LIG1        0.1071
     15 C           4.1813    0.2277   -0.8618 C.ar    1  LIG1        0.0330
     16 C           5.5831    0.2343   -0.7836 C.ar    1  LIG1       -0.0369
     17 C           3.4500    1.1344   -0.0570 C.ar    1  LIG1       -0.0004
     18 C           6.2836    1.1031    0.0552 C.ar    1  LIG1       -0.0023
     19 H           6.1409   -0.4581   -1.4041 H       1  LIG1        0.0636
     20 C           4.1492    1.9977    0.7893 C.ar    1  LIG1       -0.0390
     21 C           5.5477    1.9983    0.8588 C.ar    1  LIG1        0.0131
     22 H           3.5799    2.6760    1.4167 H       1  LIG1        0.0635
     23 C           3.5378   -0.6785   -1.7599 C.1     1  LIG1       -0.0690
     24 C           3.0261   -1.4575   -2.5316 C.1     1  LIG1       -0.1139
     25 H           2.5626   -2.1374   -3.2082 H       1  LIG1        0.1232
     26 S           6.4177    3.0893    1.9776 S.3     1  LIG1       -0.1420
     27 H           5.3113    3.6177    2.5359 H       1  LIG1        0.1071
     28 C           8.4910   -0.0664    0.5092 C.ar    1  LIG1        0.0325
     29 C           9.8979   -0.0427    0.4643 C.ar    1  LIG1       -0.0447
     30 C           7.7763    1.0719    0.0624 C.ar    1  LIG1       -0.0004
     31 C          10.5882    1.0667   -0.0019 C.ar    1  LIG1       -0.0474
     32 H          10.4451   -0.9128    0.8112 H       1  LIG1        0.0630
     33 C           8.4846    2.1811   -0.4126 C.ar    1  LIG1       -0.0396
     34 C           9.8828    2.1931   -0.4465 C.ar    1  LIG1        0.0054
     35 H           7.9241    3.0399   -0.7679 H       1  LIG1        0.0635
     36 H          11.6737    1.0591   -0.0184 H       1  LIG1        0.0629
     37 C           7.8281   -1.2266    1.0147 C.1     1  LIG1       -0.0691
     38 C           7.3036   -2.2267    1.4502 C.1     1  LIG1       -0.1139
     39 H           6.8276   -3.0998    1.8323 H       1  LIG1        0.1232
     40 S          10.8216    3.5826   -1.0548 S.3     1  LIG1       -0.1426
     41 H           9.7790    4.4157   -1.2350 H       1  LIG1        0.1071
@<TRIPOS>BOND
     1    25    24    1
     2    24    23    3
     3    23    15    1
     4    14    13    1
     5    19    16    1
     6    41    40    1
     7    13     7    1
     8    40    34    1
     9    15    16   ar
    10    15    17   ar
    11     8     6    1
    12    16    18   ar
    13    35    33    1
    14     7     6   ar
    15     7     4   ar
    16     6     3   ar
    17    34    33   ar
    18    34    31   ar
    19    33    30   ar
    20     4    17    1
    21     4     2   ar
    22    17    20   ar
    23    36    31    1
    24     3     9    1
    25     3     1   ar
    26    31    29   ar
    27    18    30    1
    28    18    21   ar
    29    30    28   ar
    30     2     1   ar
    31     2     5    1
    32     1    10    1
    33    29    28   ar
    34    29    32    1
    35    28    37    1
    36    20    21   ar
    37    20    22    1
    38    21    26    1
    39    10    11    3
    40    37    38    3
    41    11    12    1
    42    38    39    1
    43    26    27    1
