@<TRIPOS>MOLECULE
mol_data/opt/b3lyp/geoms/mol2/4eg4eg4eg-4eg.out
 54 57 0 0 0
SMALL
GASTEIGER

@<TRIPOS>ATOM
      1 C          -0.2714    0.1175    0.6106 C.ar    1  LIG1        0.0253
      2 C           1.1316    0.1374    0.5723 C.ar    1  LIG1       -0.0375
      3 C          -0.9727    1.1438   -0.0468 C.ar    1  LIG1       -0.0453
      4 C           1.8383    1.1426   -0.0944 C.ar    1  LIG1       -0.0024
      5 H           1.6852   -0.6476    1.0752 H       1  LIG1        0.0636
      6 C          -0.2864    2.1466   -0.7171 C.ar    1  LIG1       -0.0468
      7 C           1.1158    2.1598   -0.7537 C.ar    1  LIG1        0.0126
      8 H          -0.8483    2.9268   -1.2215 H       1  LIG1        0.0629
      9 H          -2.0573    1.1474   -0.0285 H       1  LIG1        0.0630
     10 C          -0.9679   -0.9192    1.3036 C.1     1  LIG1       -0.0696
     11 C          -1.5612   -1.7958    1.8905 C.1     1  LIG1       -0.1139
     12 H          -2.0810   -2.5685    2.4077 H       1  LIG1        0.1232
     13 S           2.0082    3.4302   -1.6440 S.3     1  LIG1       -0.1420
     14 H           0.9154    4.0122   -2.1754 H       1  LIG1        0.1071
     15 C           4.0678    0.0758   -0.6840 C.ar    1  LIG1        0.0330
     16 C           5.4691    0.1015   -0.6030 C.ar    1  LIG1       -0.0369
     17 C           3.3310    1.1196   -0.0736 C.ar    1  LIG1       -0.0004
     18 C           6.1646    1.1187    0.0534 C.ar    1  LIG1       -0.0023
     19 H           6.0309   -0.6966   -1.0751 H       1  LIG1        0.0636
     20 C           4.0250    2.1325    0.5916 C.ar    1  LIG1       -0.0390
     21 C           5.4231    2.1504    0.6655 C.ar    1  LIG1        0.0131
     22 H           3.4516    2.9179    1.0734 H       1  LIG1        0.0635
     23 C           3.4308   -0.9892   -1.3923 C.1     1  LIG1       -0.0690
     24 C           2.9247   -1.9047   -2.0007 C.1     1  LIG1       -0.1139
     25 H           2.4660   -2.7043   -2.5347 H       1  LIG1        0.1232
     26 S           6.2844    3.4393    1.5580 S.3     1  LIG1       -0.1420
     27 H           5.1738    4.0577    2.0042 H       1  LIG1        0.1071
     28 C           8.3756    0.0532    0.7099 C.ar    1  LIG1        0.0330
     29 C           9.7785    0.0746    0.6621 C.ar    1  LIG1       -0.0369
     30 C           7.6566    1.0922    0.0707 C.ar    1  LIG1       -0.0004
     31 C          10.4920    1.0828    0.0116 C.ar    1  LIG1       -0.0023
     32 H          10.3267   -0.7198    1.1559 H       1  LIG1        0.0636
     33 C           8.3690    2.0969   -0.5880 C.ar    1  LIG1       -0.0390
     34 C           9.7683    2.1103   -0.6286 C.ar    1  LIG1        0.0131
     35 H           7.8094    2.8784   -1.0917 H       1  LIG1        0.0635
     36 C           7.7196   -1.0027    1.4146 C.1     1  LIG1       -0.0690
     37 C           7.1983   -1.9107    2.0216 C.1     1  LIG1       -0.1139
     38 H           6.7276   -2.7041    2.5544 H       1  LIG1        0.1232
     39 S          10.6556    3.3874   -1.5119 S.3     1  LIG1       -0.1420
     40 H           9.5583    4.0076   -1.9874 H       1  LIG1        0.1071
     41 C          12.7113    0.0130   -0.6012 C.ar    1  LIG1        0.0325
     42 C          14.1168    0.0258   -0.5223 C.ar    1  LIG1       -0.0447
     43 C          11.9846    1.0527    0.0289 C.ar    1  LIG1       -0.0004
     44 C          14.7945    1.0310    0.1521 C.ar    1  LIG1       -0.0474
     45 H          14.6733   -0.7681   -1.0090 H       1  LIG1        0.0630
     46 C          12.6801    2.0568    0.7114 C.ar    1  LIG1       -0.0396
     47 C          14.0772    2.0598    0.7775 C.ar    1  LIG1        0.0054
     48 H          12.1102    2.8384    1.2036 H       1  LIG1        0.0635
     49 H          15.8794    1.0181    0.1910 H       1  LIG1        0.0629
     50 C          12.0624   -1.0353   -1.3233 C.1     1  LIG1       -0.0691
     51 C          11.5504   -1.9387   -1.9450 C.1     1  LIG1       -0.1139
     52 H          11.0853   -2.7269   -2.4902 H       1  LIG1        0.1232
     53 S          14.9995    3.3149    1.6470 S.3     1  LIG1       -0.1426
     54 H          13.9497    4.0965    1.9642 H       1  LIG1        0.1071
@<TRIPOS>BOND
     1    25    24    1
     2    52    51    1
     3    14    13    1
     4    24    23    3
     5    40    39    1
     6    51    50    3
     7    13     7    1
     8    39    34    1
     9    23    15    1
    10    50    41    1
    11     8     6    1
    12    35    33    1
    13    19    16    1
    14    45    42    1
    15     7     6   ar
    16     7     4   ar
    17     6     3   ar
    18    15    16   ar
    19    15    17   ar
    20    34    33   ar
    21    34    31   ar
    22    16    18   ar
    23    41    42   ar
    24    41    43   ar
    25    33    30   ar
    26    42    44   ar
    27     4    17    1
    28     4     2   ar
    29    17    20   ar
    30     3     9    1
    31     3     1   ar
    32    31    43    1
    33    31    29   ar
    34    43    46   ar
    35    18    30    1
    36    18    21   ar
    37    30    28   ar
    38    44    49    1
    39    44    47   ar
    40     2     1   ar
    41     2     5    1
    42    20    21   ar
    43    20    22    1
    44     1    10    1
    45    29    28   ar
    46    29    32    1
    47    21    26    1
    48    28    36    1
    49    46    47   ar
    50    46    48    1
    51    47    53    1
    52    10    11    3
    53    36    37    3
    54    26    27    1
    55    53    54    1
    56    11    12    1
    57    37    38    1
