@<TRIPOS>MOLECULE
mol_data/opt/b3lyp/geoms/mol2/4eg4eg-4eg-4eg-.out
 54 57 0 0 0
SMALL
GASTEIGER

@<TRIPOS>ATOM
      1 C          -0.2716    0.1117   -0.5869 C.ar    1  LIG1        0.0253
      2 C           1.1314    0.1315   -0.5484 C.ar    1  LIG1       -0.0375
      3 C          -0.9726    1.1482    0.0546 C.ar    1  LIG1       -0.0453
      4 C           1.8383    1.1462    0.1032 C.ar    1  LIG1       -0.0024
      5 H           1.6847   -0.6614   -1.0391 H       1  LIG1        0.0636
      6 C          -0.2860    2.1606    0.7099 C.ar    1  LIG1       -0.0468
      7 C           1.1161    2.1737    0.7469 C.ar    1  LIG1        0.0126
      8 H          -0.8477    2.9487    1.2022 H       1  LIG1        0.0629
      9 H          -2.0573    1.1520    0.0358 H       1  LIG1        0.0630
     10 C          -0.9684   -0.9351   -1.2644 C.1     1  LIG1       -0.0696
     11 C          -1.5619   -1.8202   -1.8382 C.1     1  LIG1       -0.1139
     12 H          -2.0818   -2.6005   -2.3438 H       1  LIG1        0.1232
     13 S           2.0088    3.4569    1.6182 S.3     1  LIG1       -0.1420
     14 H           0.9160    4.0476    2.1400 H       1  LIG1        0.1071
     15 C           4.0674    0.0877    0.7100 C.ar    1  LIG1        0.0330
     16 C           5.4687    0.1116    0.6290 C.ar    1  LIG1       -0.0369
     17 C           3.3311    1.1222    0.0833 C.ar    1  LIG1       -0.0004
     18 C           6.1647    1.1183   -0.0429 C.ar    1  LIG1       -0.0023
     19 H           6.0301   -0.6793    1.1135 H       1  LIG1        0.0636
     20 C           4.0257    2.1246   -0.5972 C.ar    1  LIG1       -0.0390
     21 C           5.4238    2.1408   -0.6710 C.ar    1  LIG1        0.0131
     22 H           3.4527    2.9027   -1.0910 H       1  LIG1        0.0635
     23 C           3.4298   -0.9661    1.4344 C.1     1  LIG1       -0.0690
     24 C           2.9234   -1.8720    2.0568 C.1     1  LIG1       -0.1139
     25 H           2.4643   -2.6632    2.6028 H       1  LIG1        0.1232
     26 S           6.2858    3.4157   -1.5828 S.3     1  LIG1       -0.1420
     27 H           5.1756    4.0264   -2.0402 H       1  LIG1        0.1071
     28 C           8.3754    0.0422   -0.6829 C.ar    1  LIG1        0.0330
     29 C           9.7784    0.0637   -0.6351 C.ar    1  LIG1       -0.0369
     30 C           7.6568    1.0910   -0.0594 C.ar    1  LIG1       -0.0004
     31 C          10.4921    1.0812    0.0006 C.ar    1  LIG1       -0.0023
     32 H          10.3263   -0.7382   -1.1168 H       1  LIG1        0.0636
     33 C           8.3694    2.1050    0.5844 C.ar    1  LIG1       -0.0390
     34 C           9.7688    2.1185    0.6251 C.ar    1  LIG1        0.0131
     35 H           7.8101    2.8942    1.0763 H       1  LIG1        0.0635
     36 C           7.7191   -1.0238   -1.3719 C.1     1  LIG1       -0.0690
     37 C           7.1975   -1.9404   -1.9654 C.1     1  LIG1       -0.1139
     38 H           6.7266   -2.7415   -2.4863 H       1  LIG1        0.1232
     39 S          10.6564    3.4082    1.4895 S.3     1  LIG1       -0.1420
     40 H           9.5592    4.0370    1.9538 H       1  LIG1        0.1071
     41 C          12.7106    0.0195    0.6302 C.ar    1  LIG1        0.0325
     42 C          14.1162    0.0303    0.5516 C.ar    1  LIG1       -0.0447
     43 C          11.9848    1.0500   -0.0159 C.ar    1  LIG1       -0.0004
     44 C          14.7947    1.0248   -0.1378 C.ar    1  LIG1       -0.0474
     45 H          14.6720   -0.7565    1.0505 H       1  LIG1        0.0630
     46 C          12.6811    2.0432   -0.7134 C.ar    1  LIG1       -0.0396
     47 C          14.0782    2.0444   -0.7790 C.ar    1  LIG1        0.0054
     48 H          12.1119    2.8175   -1.2176 H       1  LIG1        0.0635
     49 H          15.8796    1.0106   -0.1762 H       1  LIG1        0.0629
     50 C          12.0609   -1.0172    1.3679 C.1     1  LIG1       -0.0691
     51 C          11.5481   -1.9107    2.0031 C.1     1  LIG1       -0.1139
     52 H          11.0824   -2.6904    2.5600 H       1  LIG1        0.1232
     53 S          15.0015    3.2854   -1.6674 S.3     1  LIG1       -0.1426
     54 H          13.9525    4.0637   -1.9950 H       1  LIG1        0.1071
@<TRIPOS>BOND
     1    38    37    1
     2    12    11    1
     3    27    26    1
     4    54    53    1
     5    37    36    3
     6    11    10    3
     7    53    47    1
     8    26    21    1
     9    36    28    1
    10    10     1    1
    11    48    46    1
    12    32    29    1
    13    22    20    1
    14     5     2    1
    15    47    46   ar
    16    47    44   ar
    17    46    43   ar
    18    28    29   ar
    19    28    30   ar
    20    21    20   ar
    21    21    18   ar
    22    29    31   ar
    23    20    17   ar
    24     1     2   ar
    25     1     3   ar
    26     2     4   ar
    27    49    44    1
    28    44    42   ar
    29    30    18    1
    30    30    33   ar
    31    18    16   ar
    32    43    31    1
    33    43    41   ar
    34    31    34   ar
    35     9     3    1
    36     3     6   ar
    37    17     4    1
    38    17    15   ar
    39     4     7   ar
    40    42    41   ar
    41    42    45    1
    42    33    34   ar
    43    33    35    1
    44    34    39    1
    45    16    15   ar
    46    16    19    1
    47    41    50    1
    48     6     7   ar
    49     6     8    1
    50    15    23    1
    51     7    13    1
    52    50    51    3
    53    23    24    3
    54    39    40    1
    55    13    14    1
    56    51    52    1
    57    24    25    1
