@<TRIPOS>MOLECULE
mol_data/opt/b3lyp/geoms/mol2/4eg4eg4eg-4eg-.out
 54 57 0 0 0
SMALL
GASTEIGER

@<TRIPOS>ATOM
      1 C          -0.2747    0.1273    0.5881 C.ar    1  LIG1        0.0253
      2 C           1.1285    0.1460    0.5563 C.ar    1  LIG1       -0.0375
      3 C          -0.9723    1.1455   -0.0857 C.ar    1  LIG1       -0.0453
      4 C           1.8388    1.1421   -0.1199 C.ar    1  LIG1       -0.0024
      5 H           1.6791   -0.6329    1.0717 H       1  LIG1        0.0636
      6 C          -0.2822    2.1393   -0.7655 C.ar    1  LIG1       -0.0468
      7 C           1.1201    2.1512   -0.7956 C.ar    1  LIG1        0.0126
      8 H          -0.8413    2.9132   -1.2825 H       1  LIG1        0.0629
      9 H          -2.0571    1.1498   -0.0725 H       1  LIG1        0.0630
     10 C          -0.9751   -0.9001    1.2911 C.1     1  LIG1       -0.0696
     11 C          -1.5717   -1.7688    1.8863 C.1     1  LIG1       -0.1139
     12 H          -2.0943   -2.5346    2.4109 H       1  LIG1        0.1232
     13 S           2.0176    3.4096   -1.6978 S.3     1  LIG1       -0.1420
     14 H           0.9277    3.9858   -2.2413 H       1  LIG1        0.1071
     15 C           4.0709    0.0677   -0.6862 C.ar    1  LIG1        0.0330
     16 C           5.4718    0.0940   -0.5988 C.ar    1  LIG1       -0.0369
     17 C           3.3314    1.1188   -0.0918 C.ar    1  LIG1       -0.0004
     18 C           6.1645    1.1188    0.0488 C.ar    1  LIG1       -0.0023
     19 H           6.0356   -0.7097   -1.0587 H       1  LIG1        0.0636
     20 C           4.0226    2.1395    0.5646 C.ar    1  LIG1       -0.0390
     21 C           5.4203    2.1579    0.6450 C.ar    1  LIG1        0.0131
     22 H           3.4471    2.9308    1.0341 H       1  LIG1        0.0635
     23 C           3.4370   -1.0057   -1.3846 C.1     1  LIG1       -0.0690
     24 C           2.9336   -1.9283   -1.9845 C.1     1  LIG1       -0.1139
     25 H           2.4773   -2.7341   -2.5110 H       1  LIG1        0.1232
     26 S           6.2778    3.4573    1.5260 S.3     1  LIG1       -0.1420
     27 H           5.1652    4.0804    1.9607 H       1  LIG1        0.1071
     28 C           8.3720    0.0612    0.7290 C.ar    1  LIG1        0.0330
     29 C           9.7752    0.0819    0.6878 C.ar    1  LIG1       -0.0369
     30 C           7.6563    1.0924    0.0736 C.ar    1  LIG1       -0.0004
     31 C          10.4920    1.0820    0.0284 C.ar    1  LIG1       -0.0023
     32 H          10.3209   -0.7064    1.1940 H       1  LIG1        0.0636
     33 C           8.3720    2.0887   -0.5940 C.ar    1  LIG1       -0.0390
     34 C           9.7716    2.1017   -0.6278 C.ar    1  LIG1        0.0131
     35 H           7.8150    2.8639   -1.1100 H       1  LIG1        0.0635
     36 C           7.7125   -0.9860    1.4434 C.1     1  LIG1       -0.0690
     37 C           7.1882   -1.8864    2.0589 C.1     1  LIG1       -0.1139
     38 H           6.7148   -2.6733    2.5989 H       1  LIG1        0.1232
     39 S          10.6632    3.3675   -1.5226 S.3     1  LIG1       -0.1420
     40 H           9.5682    3.9832   -2.0093 H       1  LIG1        0.1071
     41 C          12.7141    0.0041   -0.5597 C.ar    1  LIG1        0.0325
     42 C          14.1192    0.0178   -0.4741 C.ar    1  LIG1       -0.0447
     43 C          11.9845    1.0520    0.0535 C.ar    1  LIG1       -0.0004
     44 C          14.7938    1.0316    0.1906 C.ar    1  LIG1       -0.0474
     45 H          14.6779   -0.7823   -0.9479 H       1  LIG1        0.0630
     46 C          12.6769    2.0646    0.7264 C.ar    1  LIG1       -0.0396
     47 C          14.0736    2.0684    0.7993 C.ar    1  LIG1        0.0054
     48 H          12.1047    2.8525    1.2058 H       1  LIG1        0.0635
     49 H          15.8785    1.0191    0.2350 H       1  LIG1        0.0629
     50 C          12.0687   -1.0533   -1.2715 C.1     1  LIG1       -0.0691
     51 C          11.5596   -1.9645   -1.8841 C.1     1  LIG1       -0.1139
     52 H          11.0971   -2.7597   -2.4214 H       1  LIG1        0.1232
     53 S          14.9919    3.3342    1.6574 S.3     1  LIG1       -0.1426
     54 H          13.9408    4.1207    1.9580 H       1  LIG1        0.1071
@<TRIPOS>BOND
     1    25    24    1
     2    52    51    1
     3    14    13    1
     4    40    39    1
     5    24    23    3
     6    51    50    3
     7    13     7    1
     8    39    34    1
     9    23    15    1
    10     8     6    1
    11    50    41    1
    12    35    33    1
    13    19    16    1
    14    45    42    1
    15     7     6   ar
    16     7     4   ar
    17     6     3   ar
    18    15    16   ar
    19    15    17   ar
    20    34    33   ar
    21    34    31   ar
    22    16    18   ar
    23    33    30   ar
    24    41    42   ar
    25    41    43   ar
    26    42    44   ar
    27     4    17    1
    28     4     2   ar
    29    17    20   ar
    30     3     9    1
    31     3     1   ar
    32    31    43    1
    33    31    29   ar
    34    18    30    1
    35    18    21   ar
    36    43    46   ar
    37    30    28   ar
    38    44    49    1
    39    44    47   ar
    40     2     1   ar
    41     2     5    1
    42    20    21   ar
    43    20    22    1
    44     1    10    1
    45    21    26    1
    46    29    28   ar
    47    29    32    1
    48    46    47   ar
    49    46    48    1
    50    28    36    1
    51    47    53    1
    52    10    11    3
    53    36    37    3
    54    26    27    1
    55    53    54    1
    56    11    12    1
    57    37    38    1
