@<TRIPOS>MOLECULE
mol_data/opt/b3lyp/geoms/mol2/4eg4eg4eg.out
 41 43 0 0 0
SMALL
GASTEIGER

@<TRIPOS>ATOM
      1 C          -0.1670    0.5348    0.9537 C.ar    1  LIG1        0.0253
      2 C           1.2364    0.5305    0.9232 C.ar    1  LIG1       -0.0375
      3 C          -0.8582    1.0389   -0.1622 C.ar    1  LIG1       -0.0453
      4 C           1.9530    1.0116   -0.1763 C.ar    1  LIG1       -0.0024
      5 H           1.7820    0.1448    1.7772 H       1  LIG1        0.0636
      6 C          -0.1619    1.5154   -1.2640 C.ar    1  LIG1       -0.0468
      7 C           1.2406    1.5066   -1.2895 C.ar    1  LIG1        0.0126
      8 H          -0.7161    1.8955   -2.1168 H       1  LIG1        0.0629
      9 H          -1.9430    1.0522   -0.1584 H       1  LIG1        0.0630
     10 C          -0.8739    0.0419    2.0928 C.1     1  LIG1       -0.0696
     11 C          -1.4759   -0.3743    3.0568 C.1     1  LIG1       -0.1139
     12 H          -2.0034   -0.7416    3.9063 H       1  LIG1        0.1232
     13 S           2.1461    2.0874   -2.7193 S.3     1  LIG1       -0.1420
     14 H           1.0588    2.2997   -3.4864 H       1  LIG1        0.1071
     15 C           4.1851   -0.2005   -0.0767 C.ar    1  LIG1        0.0330
     16 C           5.5853   -0.1315   -0.0015 C.ar    1  LIG1       -0.0369
     17 C           3.4457    1.0060   -0.1317 C.ar    1  LIG1       -0.0004
     18 C           6.2771    1.0810    0.0209 C.ar    1  LIG1       -0.0023
     19 H           6.1490   -1.0568    0.0379 H       1  LIG1        0.0636
     20 C           4.1366    2.2193   -0.1102 C.ar    1  LIG1       -0.0390
     21 C           5.5339    2.2778   -0.0415 C.ar    1  LIG1        0.0131
     22 H           3.5617    3.1392   -0.1429 H       1  LIG1        0.0635
     23 C           3.5514   -1.4808   -0.1048 C.1     1  LIG1       -0.0690
     24 C           3.0485   -2.5813   -0.1271 C.1     1  LIG1       -0.1139
     25 H           2.5923   -3.5437   -0.1486 H       1  LIG1        0.1232
     26 S           6.3932    3.8467   -0.0460 S.3     1  LIG1       -0.1420
     27 H           5.2995    4.5960   -0.2859 H       1  LIG1        0.1071
     28 C           8.5797    0.5237   -0.8914 C.ar    1  LIG1        0.0325
     29 C           9.9763    0.5199   -0.7152 C.ar    1  LIG1       -0.0447
     30 C           7.7662    1.0732    0.1296 C.ar    1  LIG1       -0.0004
     31 C          10.5631    1.0434    0.4280 C.ar    1  LIG1       -0.0474
     32 H          10.5993    0.1030   -1.4994 H       1  LIG1        0.0630
     33 C           8.3703    1.5916    1.2803 C.ar    1  LIG1       -0.0396
     34 C           9.7600    1.5869    1.4396 C.ar    1  LIG1        0.0054
     35 H           7.7349    1.9937    2.0630 H       1  LIG1        0.0635
     36 H          11.6436    1.0321    0.5334 H       1  LIG1        0.0629
     37 C           8.0258   -0.0103   -2.0951 C.1     1  LIG1       -0.0691
     38 C           7.5928   -0.4698   -3.1276 C.1     1  LIG1       -0.1139
     39 H           7.1930   -0.8681   -4.0312 H       1  LIG1        0.1232
     40 S          10.5668    2.2307    2.8944 S.3     1  LIG1       -0.1426
     41 H           9.4603    2.7103    3.4937 H       1  LIG1        0.1071
@<TRIPOS>BOND
     1    39    38    1
     2    14    13    1
     3    38    37    3
     4    13     7    1
     5     8     6    1
     6    37    28    1
     7    32    29    1
     8     7     6   ar
     9     7     4   ar
    10     6     3   ar
    11    28    29   ar
    12    28    30   ar
    13    29    31   ar
    14    27    26    1
    15     4    17    1
    16     4     2   ar
    17     3     9    1
    18     3     1   ar
    19    25    24    1
    20    22    20    1
    21    17    20   ar
    22    17    15   ar
    23    24    23    3
    24    20    21   ar
    25    23    15    1
    26    15    16   ar
    27    26    21    1
    28    21    18   ar
    29    16    18   ar
    30    16    19    1
    31    18    30    1
    32    30    33   ar
    33    31    36    1
    34    31    34   ar
    35     2     1   ar
    36     2     5    1
    37     1    10    1
    38    33    34   ar
    39    33    35    1
    40    34    40    1
    41    10    11    3
    42    40    41    1
    43    11    12    1
