@<TRIPOS>MOLECULE
mol_data/opt/b3lyp/geoms/mol2/4eg4eg4eg4eg.out
 54 57 0 0 0
SMALL
GASTEIGER

@<TRIPOS>ATOM
      1 C          -0.2497    1.0932    1.0955 C.ar    1  LIG1        0.0253
      2 C           1.1515    1.0421    1.0300 C.ar    1  LIG1       -0.0375
      3 C          -0.9792    0.9814   -0.1014 C.ar    1  LIG1       -0.0453
      4 C           1.8296    0.8865   -0.1825 C.ar    1  LIG1       -0.0024
      5 H           1.7261    1.1279    1.9455 H       1  LIG1        0.0636
      6 C          -0.3217    0.8218   -1.3130 C.ar    1  LIG1       -0.0468
      7 C           1.0788    0.7693   -1.3718 C.ar    1  LIG1        0.0126
      8 H          -0.9051    0.7328   -2.2243 H       1  LIG1        0.0629
      9 H          -2.0630    1.0192   -0.0729 H       1  LIG1        0.0630
     10 C          -0.9162    1.2579    2.3480 C.1     1  LIG1       -0.0696
     11 C          -1.4843    1.3980    3.4075 C.1     1  LIG1       -0.1139
     12 H          -1.9817    1.5210    4.3414 H       1  LIG1        0.1232
     13 S           1.9329    0.5292   -2.9259 S.3     1  LIG1       -0.1420
     14 H           0.8189    0.3475   -3.6620 H       1  LIG1        0.1071
     15 C           4.0562   -0.1550    0.4634 C.ar    1  LIG1        0.0330
     16 C           5.4584   -0.0895    0.4555 C.ar    1  LIG1       -0.0369
     17 C           3.3228    0.8691   -0.1835 C.ar    1  LIG1       -0.0004
     18 C           6.1587    0.9460   -0.1668 C.ar    1  LIG1       -0.0023
     19 H           6.0170   -0.8761    0.9501 H       1  LIG1        0.0636
     20 C           4.0219    1.9042   -0.8080 C.ar    1  LIG1       -0.0390
     21 C           5.4212    1.9564   -0.8181 C.ar    1  LIG1        0.0131
     22 H           3.4524    2.6902   -1.2933 H       1  LIG1        0.0635
     23 C           3.4145   -1.2538    1.1135 C.1     1  LIG1       -0.0690
     24 C           2.9049   -2.1984    1.6726 C.1     1  LIG1       -0.1139
     25 H           2.4429   -3.0252    2.1602 H       1  LIG1        0.1232
     26 S           6.2885    3.2758   -1.6588 S.3     1  LIG1       -0.1420
     27 H           5.1905    3.8188   -2.2200 H       1  LIG1        0.1071
     28 C           8.4306   -0.0627   -0.6936 C.ar    1  LIG1        0.0330
     29 C           9.8273   -0.0044   -0.5659 C.ar    1  LIG1       -0.0369
     30 C           7.6496    0.9613   -0.1044 C.ar    1  LIG1       -0.0004
     31 C          10.4767    1.0250    0.1184 C.ar    1  LIG1       -0.0023
     32 H          10.4228   -0.7883   -1.0202 H       1  LIG1        0.0636
     33 C           8.2980    1.9915    0.5803 C.ar    1  LIG1       -0.0390
     34 C           9.6924    2.0449    0.6956 C.ar    1  LIG1        0.0131
     35 H           7.6921    2.7658    1.0397 H       1  LIG1        0.0635
     36 C           7.8422   -1.1430   -1.4204 C.1     1  LIG1       -0.0690
     37 C           7.3763   -2.0704   -2.0428 C.1     1  LIG1       -0.1139
     38 H           6.9504   -2.8795   -2.5895 H       1  LIG1        0.1232
     39 S          10.4963    3.3932    1.5532 S.3     1  LIG1       -0.1420
     40 H           9.3794    4.1275    1.7222 H       1  LIG1        0.1071
     41 C          12.7989    1.1042   -0.9051 C.ar    1  LIG1        0.0325
     42 C          14.1945    1.0459   -0.7301 C.ar    1  LIG1       -0.0447
     43 C          11.9649    1.0024    0.2354 C.ar    1  LIG1       -0.0004
     44 C          14.7607    0.8975    0.5279 C.ar    1  LIG1       -0.0474
     45 H          14.8329    1.1292   -1.6033 H       1  LIG1        0.0630
     46 C          12.5487    0.8437    1.4970 C.ar    1  LIG1       -0.0396
     47 C          13.9375    0.7953    1.6571 C.ar    1  LIG1        0.0054
     48 H          11.8987    0.7459    2.3606 H       1  LIG1        0.0635
     49 H          15.8408    0.8650    0.6331 H       1  LIG1        0.0629
     50 C          12.2660    1.2794   -2.2189 C.1     1  LIG1       -0.0691
     51 C          11.8505    1.4300   -3.3456 C.1     1  LIG1       -0.1139
     52 H          11.4659    1.5644   -4.3299 H       1  LIG1        0.1232
     53 S          14.7184    0.5834    3.2470 S.3     1  LIG1       -0.1426
     54 H          13.6020    0.6957    3.9917 H       1  LIG1        0.1071
@<TRIPOS>BOND
     1    52    51    1
     2    14    13    1
     3    51    50    3
     4    13     7    1
     5    38    37    1
     6     8     6    1
     7    27    26    1
     8    50    41    1
     9    37    36    3
    10    26    21    1
    11    45    42    1
    12    36    28    1
    13     7     6   ar
    14     7     4   ar
    15     6     3   ar
    16    22    20    1
    17    32    29    1
    18    41    42   ar
    19    41    43   ar
    20    21    20   ar
    21    21    18   ar
    22    20    17   ar
    23    42    44   ar
    24    28    29   ar
    25    28    30   ar
    26    29    31   ar
    27    17     4    1
    28    17    15   ar
    29     4     2   ar
    30    18    30    1
    31    18    16   ar
    32    30    33   ar
    33     3     9    1
    34     3     1   ar
    35    31    43    1
    36    31    34   ar
    37    43    46   ar
    38    16    15   ar
    39    16    19    1
    40    15    23    1
    41    44    49    1
    42    44    47   ar
    43    33    34   ar
    44    33    35    1
    45    34    39    1
    46     2     1   ar
    47     2     5    1
    48     1    10    1
    49    23    24    3
    50    46    47   ar
    51    46    48    1
    52    39    40    1
    53    47    53    1
    54    24    25    1
    55    10    11    3
    56    53    54    1
    57    11    12    1
