@<TRIPOS>MOLECULE
mol_data/opt/b3lyp/geoms/mol2/4eh4la-13da13hd-.out
 50 53 0 0 0
SMALL
GASTEIGER

@<TRIPOS>ATOM
      1 C          -0.0822    0.6239    1.0137 C.ar    1  LIG1        0.0254
      2 C           1.3174    0.5980    0.9091 C.ar    1  LIG1       -0.0367
      3 C          -0.8051    1.3560    0.0528 C.ar    1  LIG1       -0.0446
      4 C           2.0030    1.2739   -0.1034 C.ar    1  LIG1        0.0074
      5 H           1.8868    0.0343    1.6391 H       1  LIG1        0.0636
      6 C          -0.1452    2.0233   -0.9658 C.ar    1  LIG1       -0.0393
      7 C           1.2578    1.9968   -1.0695 C.ar    1  LIG1        0.0325
      8 H          -0.7166    2.5800   -1.7044 H       1  LIG1        0.0636
      9 H          -1.8880    1.3897    0.1118 H       1  LIG1        0.0630
     10 C          -0.7510   -0.0714    2.0664 C.1     1  LIG1       -0.0696
     11 C          -1.3213   -0.6595    2.9584 C.1     1  LIG1       -0.1139
     12 H          -1.8222   -1.1771    3.7428 H       1  LIG1        0.1232
     13 N           1.8853    2.7088   -2.0890 N.pl3   1  LIG1       -0.3575
     14 H           2.8093    2.3838   -2.3399 H       1  LIG1        0.1423
     15 H           1.3066    2.8916   -2.8972 H       1  LIG1        0.1423
     16 C           4.2195    0.0302   -0.1877 C.ar    1  LIG1        0.1284
     17 C           5.6159    0.0332   -0.1807 C.ar    1  LIG1       -0.0102
     18 C           3.4932    1.2479   -0.1421 C.ar    1  LIG1        0.0256
     19 C           6.3359    1.2403   -0.1569 C.ar    1  LIG1        0.0031
     20 H           6.1568   -0.9024   -0.1924 H       1  LIG1        0.0661
     21 C           4.2313    2.4379   -0.1154 C.ar    1  LIG1       -0.0499
     22 C           5.6240    2.4493   -0.1302 C.ar    1  LIG1       -0.0518
     23 H           3.6908    3.3789   -0.0918 H       1  LIG1        0.0625
     24 O           3.4812   -1.1099   -0.2343 O.3     1  LIG1       -0.4945
     25 C           4.1555   -2.3607   -0.3341 C.3     1  LIG1        0.0788
     26 H           3.3699   -3.1121   -0.4178 H       1  LIG1        0.0660
     27 H           4.8007   -2.4033   -1.2191 H       1  LIG1        0.0660
     28 H           4.7574   -2.5650    0.5597 H       1  LIG1        0.0660
     29 H           6.1439    3.4025   -0.1579 H       1  LIG1        0.0624
     30 C           7.7987    1.2259   -0.1585 C.ar    1  LIG1        0.0646
     31 C           8.7289    0.3031   -0.6574 C.ar    1  LIG1        0.0776
     32 C          10.0395    0.8115   -0.4075 C.ar    1  LIG1       -0.0169
     33 C           9.8993    2.0288    0.2347 C.ar    1  LIG1        0.0664
     34 N           8.5382    2.2563    0.3689 N.ar    1  LIG1       -0.3519
     35 H           8.1309    3.0883    0.7663 H       1  LIG1        0.1660
     36 N           8.1880   -1.9275   -1.8449 N.1     1  LIG1       -0.1908
     37 C           8.4290   -0.9184   -1.3140 C.1     1  LIG1        0.1013
     38 H          10.9717    0.3157   -0.6330 H       1  LIG1        0.0652
     39 C          10.8967    2.9640    0.7027 C.ar    1  LIG1        0.0851
     40 C          12.1158    3.3147    0.1355 C.ar    1  LIG1        0.0692
     41 C          12.7032    4.3128    0.9874 C.ar    1  LIG1        0.0903
     42 C          11.8291    4.5309    2.0459 C.ar    1  LIG1        0.0215
     43 N          10.7447    3.7367    1.8591 N.ar    1  LIG1       -0.3568
     44 H          10.0430    3.5650    2.5621 H       1  LIG1        0.1655
     45 H          11.9237    5.1891    2.8952 H       1  LIG1        0.0820
     46 N          12.6898    2.7899   -1.0121 N.pl3   1  LIG1       -0.3553
     47 H          12.0242    2.4232   -1.6817 H       1  LIG1        0.1424
     48 H          13.3777    3.3917   -1.4471 H       1  LIG1        0.1424
     49 N          14.9499    5.4894    0.5064 N.1     1  LIG1       -0.1908
     50 C          13.9356    4.9695    0.7489 C.1     1  LIG1        0.1025
@<TRIPOS>BOND
     1    15    13    1
     2    14    13    1
     3    13     7    1
     4    36    37    3
     5     8     6    1
     6    47    46    1
     7    48    46    1
     8    37    31    1
     9    27    25    1
    10     7     6   ar
    11     7     4   ar
    12    46    40    1
    13     6     3   ar
    14    31    32   ar
    15    31    30   ar
    16    38    32    1
    17    26    25    1
    18    32    33   ar
    19    25    24    1
    20    25    28    1
    21    24    16    1
    22    20    17    1
    23    16    17   ar
    24    16    18   ar
    25    17    19   ar
    26    30    19    1
    27    30    34   ar
    28    29    22    1
    29    19    22   ar
    30    18    21   ar
    31    18     4    1
    32    22    21   ar
    33    21    23    1
    34     4     2   ar
    35     3     9    1
    36     3     1   ar
    37    40    39   ar
    38    40    41   ar
    39    33    34   ar
    40    33    39    1
    41    34    35    1
    42    49    50    3
    43    39    43   ar
    44    50    41    1
    45     2     1   ar
    46     2     5    1
    47    41    42   ar
    48     1    10    1
    49    43    42   ar
    50    43    44    1
    51    42    45    1
    52    10    11    3
    53    11    12    1
