@<TRIPOS>MOLECULE
mol_data/opt/b3lyp/geoms/mol2/4eh4fi-13he13ii.out
 56 59 0 0 0
SMALL
GASTEIGER

@<TRIPOS>ATOM
      1 C          -0.0230    0.2832    1.2803 C.ar    1  LIG1        0.0254
      2 C           1.3618    0.3654    1.0617 C.ar    1  LIG1       -0.0367
      3 C          -0.8788    0.9167    0.3599 C.ar    1  LIG1       -0.0446
      4 C           1.9074    1.0513   -0.0264 C.ar    1  LIG1        0.0074
      5 H           2.0323   -0.1223    1.7599 H       1  LIG1        0.0636
      6 C          -0.3592    1.5933   -0.7317 C.ar    1  LIG1       -0.0393
      7 C           1.0281    1.6722   -0.9506 C.ar    1  LIG1        0.0325
      8 H          -1.0312    2.0741   -1.4383 H       1  LIG1        0.0636
      9 H          -1.9526    0.8672    0.5079 H       1  LIG1        0.0630
     10 C          -0.5463   -0.4211    2.4070 C.1     1  LIG1       -0.0696
     11 C          -0.9939   -1.0169    3.3618 C.1     1  LIG1       -0.1139
     12 H          -1.3851   -1.5412    4.2020 H       1  LIG1        0.1232
     13 N           1.5109    2.3871   -2.0453 N.pl3   1  LIG1       -0.3575
     14 H           2.4418    2.1312   -2.3465 H       1  LIG1        0.1423
     15 H           0.8620    2.4698   -2.8158 H       1  LIG1        0.1423
     16 C           4.2008   -0.0176   -0.2353 C.ar    1  LIG1        0.1252
     17 C           5.5824    0.0997   -0.3677 C.ar    1  LIG1       -0.0102
     18 C           3.3864    1.1318   -0.1943 C.ar    1  LIG1        0.0256
     19 C           6.2239    1.3501   -0.4695 C.ar    1  LIG1        0.0065
     20 H           6.1915   -0.8012   -0.3690 H       1  LIG1        0.0661
     21 C           4.0395    2.3690   -0.2958 C.ar    1  LIG1       -0.0469
     22 C           5.4221    2.5200   -0.4352 C.ar    1  LIG1       -0.0405
     23 H           3.4246    3.2646   -0.2702 H       1  LIG1        0.0628
     24 O           3.5966   -1.2407   -0.1389 O.3     1  LIG1       -0.5061
     25 H           4.2778   -1.9261   -0.1574 H       1  LIG1        0.2922
     26 C           5.9887    3.9168   -0.5723 C.3     1  LIG1       -0.0391
     27 H           5.2014    4.6186   -0.8605 H       1  LIG1        0.0278
     28 H           6.7776    3.9628   -1.3290 H       1  LIG1        0.0278
     29 H           6.4134    4.2981    0.3671 H       1  LIG1        0.0278
     30 C           7.6788    1.3580   -0.6150 C.ar    1  LIG1        0.0695
     31 C           8.5203    0.4503   -1.2511 C.ar    1  LIG1        0.0664
     32 C           9.8745    0.8903   -1.0674 C.ar    1  LIG1        0.0726
     33 C           9.8332    2.0575   -0.2925 C.ar    1  LIG1        0.0810
     34 N           8.5102    2.3413   -0.0687 N.ar    1  LIG1       -0.3505
     35 H           8.2103    2.9718    0.6578 H       1  LIG1        0.1660
     36 N           8.1648   -0.7024   -1.9566 N.pl3   1  LIG1       -0.3554
     37 H           7.2891   -0.6155   -2.4590 H       1  LIG1        0.1424
     38 H           8.9087   -1.0103   -2.5738 H       1  LIG1        0.1424
     39 C          10.9935    0.2844   -1.6866 C.1     1  LIG1       -0.0656
     40 C          11.9019   -0.2792   -2.2595 C.1     1  LIG1       -0.1138
     41 H          12.7196   -0.7543   -2.7491 H       1  LIG1        0.1232
     42 C          10.8762    2.9329    0.1988 C.ar    1  LIG1        0.0674
     43 C          12.1232    2.6810    0.7615 C.ar    1  LIG1       -0.0208
     44 C          12.7012    3.9484    1.0964 C.ar    1  LIG1       -0.0296
     45 C          11.7930    4.9220    0.7376 C.ar    1  LIG1        0.0054
     46 N          10.6780    4.3074    0.2224 N.ar    1  LIG1       -0.3590
     47 H           9.9499    4.7737   -0.2950 H       1  LIG1        0.1654
     48 H          11.8542    5.9979    0.8162 H       1  LIG1        0.0810
     49 C          12.7338    1.3401    1.0395 C.3     1  LIG1       -0.0374
     50 H          13.2096    1.3227    2.0268 H       1  LIG1        0.0278
     51 H          13.5035    1.0783    0.3032 H       1  LIG1        0.0278
     52 H          11.9833    0.5471    1.0107 H       1  LIG1        0.0278
     53 C          14.0359    4.1713    1.7439 C.3     1  LIG1       -0.0380
     54 H          14.2243    5.2371    1.9029 H       1  LIG1        0.0278
     55 H          14.8558    3.7779    1.1310 H       1  LIG1        0.0278
     56 H          14.1038    3.6758    2.7204 H       1  LIG1        0.0278
@<TRIPOS>BOND
     1    15    13    1
     2    41    40    1
     3    38    36    1
     4    37    36    1
     5    14    13    1
     6    40    39    3
     7    13     7    1
     8    36    31    1
     9    39    32    1
    10     8     6    1
    11    28    26    1
    12    31    32   ar
    13    31    30   ar
    14    32    33   ar
    15     7     6   ar
    16     7     4   ar
    17    27    26    1
    18     6     3   ar
    19    30    19    1
    20    30    34   ar
    21    26    22    1
    22    26    29    1
    23    19    22   ar
    24    19    17   ar
    25    22    21   ar
    26    20    17    1
    27    17    16   ar
    28    21    23    1
    29    21    18   ar
    30    47    46    1
    31    33    34   ar
    32    33    42    1
    33    16    18   ar
    34    16    24    1
    35    18     4    1
    36    25    24    1
    37    34    35    1
    38     4     2   ar
    39    42    46   ar
    40    42    43   ar
    41    46    45   ar
    42    51    49    1
    43     3     9    1
    44     3     1   ar
    45    45    48    1
    46    45    44   ar
    47    43    49    1
    48    43    44   ar
    49    52    49    1
    50    49    50    1
    51     2     1   ar
    52     2     5    1
    53    44    53    1
    54    55    53    1
    55     1    10    1
    56    53    54    1
    57    53    56    1
    58    10    11    3
    59    11    12    1
