@<TRIPOS>MOLECULE
mol_data/opt/b3lyp/geoms/mol2/4eh6lf-6al6df.out
 54 57 0 0 0
SMALL
GASTEIGER

@<TRIPOS>ATOM
      1 C          -0.2077    0.3058    0.7845 C.ar    1  LIG1        0.0254
      2 C           1.1907    0.4234    0.7735 C.ar    1  LIG1       -0.0367
      3 C          -0.9395    1.0677   -0.1454 C.ar    1  LIG1       -0.0446
      4 C           1.8720    1.2661   -0.1126 C.ar    1  LIG1        0.0091
      5 H           1.7659   -0.1549    1.4892 H       1  LIG1        0.0636
      6 C          -0.2870    1.9150   -1.0247 C.ar    1  LIG1       -0.0393
      7 C           1.1156    2.0429   -1.0324 C.ar    1  LIG1        0.0326
      8 H          -0.8661    2.5010   -1.7342 H       1  LIG1        0.0636
      9 H          -2.0220    0.9958   -0.1612 H       1  LIG1        0.0630
     10 C          -0.8633   -0.5587    1.7123 C.1     1  LIG1       -0.0696
     11 C          -1.4215   -1.2924    2.4976 C.1     1  LIG1       -0.1139
     12 H          -1.9118   -1.9365    3.1896 H       1  LIG1        0.1232
     13 N           1.7288    2.8495   -1.9821 N.pl3   1  LIG1       -0.3575
     14 H           2.5398    3.3505   -1.6384 H       1  LIG1        0.1423
     15 H           1.0892    3.4623   -2.4704 H       1  LIG1        0.1423
     16 C           4.2048    2.3658    0.0232 C.ar    1  LIG1        0.2232
     17 C           3.3600    1.2296   -0.0972 C.ar    1  LIG1        0.0489
     18 C           4.0233    0.0053   -0.1214 C.ar    1  LIG1       -0.0052
     19 C           5.4182   -0.0714   -0.0554 C.ar    1  LIG1        0.1436
     20 C           6.1546    1.1198    0.0174 C.ar    1  LIG1        0.1176
     21 N           5.5191    2.3095    0.0804 N.ar    1  LIG1       -0.2087
     22 H           3.4597   -0.9185   -0.1946 H       1  LIG1        0.0662
     23 O           3.6015    3.5886    0.0772 O.3     1  LIG1       -0.4792
     24 C           4.4467    4.7238    0.3098 C.3     1  LIG1        0.0804
     25 H           3.7752    5.5829    0.3220 H       1  LIG1        0.0660
     26 H           4.9612    4.6326    1.2700 H       1  LIG1        0.0660
     27 H           5.1959    4.8301   -0.4787 H       1  LIG1        0.0660
     28 O           5.9744   -1.3241   -0.0648 O.3     1  LIG1       -0.5046
     29 H           6.8781   -1.2676    0.2765 H       1  LIG1        0.2922
     30 C           8.2875    2.1395    0.8340 C.ar    1  LIG1        0.0378
     31 C           7.6352    1.1636    0.0651 C.ar    1  LIG1        0.0256
     32 C           8.4450    0.2770   -0.6652 C.ar    1  LIG1       -0.0071
     33 C           9.8355    0.3866   -0.5905 C.ar    1  LIG1        0.1467
     34 C          10.3926    1.3944    0.2333 C.ar    1  LIG1        0.1153
     35 N           9.6115    2.2415    0.9149 N.ar    1  LIG1       -0.2506
     36 H           7.9909   -0.4484   -1.3293 H       1  LIG1        0.0662
     37 H           7.7036    2.8592    1.3986 H       1  LIG1        0.0836
     38 O          10.6995   -0.4051   -1.2812 O.3     1  LIG1       -0.4929
     39 C          10.1716   -1.3603   -2.1958 C.3     1  LIG1        0.0789
     40 H          11.0363   -1.8433   -2.6511 H       1  LIG1        0.0660
     41 H           9.5631   -2.1163   -1.6844 H       1  LIG1        0.0660
     42 H           9.5716   -0.8781   -2.9763 H       1  LIG1        0.0660
     43 C          12.4360    2.8836    0.3657 C.ar    1  LIG1        0.1495
     44 C          11.8586    1.5896    0.3844 C.ar    1  LIG1        0.0432
     45 C          12.7187    0.5116    0.6002 C.ar    1  LIG1       -0.0066
     46 C          14.0774    0.7436    0.8063 C.ar    1  LIG1        0.1356
     47 C          14.5409    2.0660    0.7857 C.ar    1  LIG1        0.0705
     48 N          13.7451    3.1056    0.5631 N.ar    1  LIG1       -0.2403
     49 H          12.3450   -0.5044    0.6184 H       1  LIG1        0.0662
     50 H          15.5971    2.2837    0.9504 H       1  LIG1        0.0867
     51 N          11.1029    5.0456   -0.2097 N.1     1  LIG1       -0.1893
     52 C          11.6644    4.0667    0.0691 C.1     1  LIG1        0.1198
     53 O          14.8885   -0.3243    1.0244 O.3     1  LIG1       -0.5052
     54 H          15.7949   -0.0179    1.1659 H       1  LIG1        0.2922
@<TRIPOS>BOND
     1    42    39    1
     2    40    39    1
     3    15    13    1
     4    39    41    1
     5    39    38    1
     6    13    14    1
     7    13     7    1
     8     8     6    1
     9    36    32    1
    10    38    33    1
    11     7     6   ar
    12     7     4   ar
    13     6     3   ar
    14    32    33   ar
    15    32    31   ar
    16    33    34   ar
    17    27    24    1
    18    51    52    3
    19    22    18    1
    20     9     3    1
    21     3     1   ar
    22    18    17   ar
    23    18    19   ar
    24     4    17    1
    25     4     2   ar
    26    17    16   ar
    27    28    19    1
    28    28    29    1
    29    19    20   ar
    30    20    31    1
    31    20    21   ar
    32    16    23    1
    33    16    21   ar
    34    31    30   ar
    35    52    43    1
    36    23    24    1
    37    34    44    1
    38    34    35   ar
    39    24    25    1
    40    24    26    1
    41    43    44   ar
    42    43    48   ar
    43    44    45   ar
    44    48    47   ar
    45    45    49    1
    46    45    46   ar
    47     2     1   ar
    48     2     5    1
    49     1    10    1
    50    47    46   ar
    51    47    50    1
    52    46    53    1
    53    30    35   ar
    54    30    37    1
    55    53    54    1
    56    10    11    3
    57    11    12    1
