@<TRIPOS>MOLECULE
mol_data/opt/b3lyp/geoms/mol2/4eh6ei-4ee4ea.out
 56 59 0 0 0
SMALL
GASTEIGER

@<TRIPOS>ATOM
      1 C          -0.2521    0.7693    0.8872 C.ar    1  LIG1        0.0254
      2 C           1.1524    0.8148    0.8785 C.ar    1  LIG1       -0.0368
      3 C          -0.9292    1.1167   -0.2971 C.ar    1  LIG1       -0.0446
      4 C           1.8781    1.1963   -0.2511 C.ar    1  LIG1        0.0066
      5 H           1.6922    0.5545    1.7834 H       1  LIG1        0.0636
      6 C          -0.2265    1.4865   -1.4320 C.ar    1  LIG1       -0.0393
      7 C           1.1808    1.5322   -1.4404 C.ar    1  LIG1        0.0325
      8 H          -0.7657    1.7465   -2.3393 H       1  LIG1        0.0636
      9 H          -2.0137    1.0888   -0.3172 H       1  LIG1        0.0630
     10 C          -0.9664    0.3815    2.0605 C.1     1  LIG1       -0.0696
     11 C          -1.5742    0.0507    3.0544 C.1     1  LIG1       -0.1139
     12 H          -2.1078   -0.2368    3.9300 H       1  LIG1        0.1232
     13 N           1.8508    1.9209   -2.5852 N.pl3   1  LIG1       -0.3575
     14 H           2.8329    1.6995   -2.6476 H       1  LIG1        0.1423
     15 H           1.3500    1.8373   -3.4565 H       1  LIG1        0.1423
     16 C           4.1618    2.3493   -0.2735 C.ar    1  LIG1        0.1216
     17 C           3.3682    1.1796   -0.2004 C.ar    1  LIG1        0.0180
     18 C           4.0529   -0.0262   -0.0190 C.ar    1  LIG1       -0.0464
     19 C           5.4461   -0.0851    0.0425 C.ar    1  LIG1       -0.0238
     20 C           6.1346    1.1394   -0.1103 C.ar    1  LIG1        0.0765
     21 N           5.5068    2.3140   -0.2334 N.ar    1  LIG1       -0.2375
     22 H           3.4754   -0.9415    0.0833 H       1  LIG1        0.0628
     23 C           3.5646    3.6511   -0.3591 C.1     1  LIG1       -0.0492
     24 C           3.0663    4.7508   -0.4179 C.1     1  LIG1       -0.1124
     25 H           2.6243    5.7185   -0.4738 H       1  LIG1        0.1232
     26 C           6.1464   -1.3976    0.2889 C.3     1  LIG1       -0.0377
     27 H           6.9875   -1.2779    0.9776 H       1  LIG1        0.0278
     28 H           6.5472   -1.8141   -0.6408 H       1  LIG1        0.0278
     29 H           5.4541   -2.1280    0.7164 H       1  LIG1        0.0278
     30 C           8.4594    0.6356   -1.0509 C.ar    1  LIG1        0.0345
     31 C           9.8536    0.7800   -0.9478 C.ar    1  LIG1       -0.0368
     32 C           7.6283    1.2312   -0.0724 C.ar    1  LIG1        0.0172
     33 C          10.4562    1.4996    0.0841 C.ar    1  LIG1       -0.0001
     34 H          10.4768    0.3271   -1.7101 H       1  LIG1        0.0636
     35 C           8.2256    1.9698    0.9466 C.ar    1  LIG1       -0.0354
     36 C           9.6200    2.1127    1.0521 C.ar    1  LIG1        0.0331
     37 H           7.5940    2.4496    1.6855 H       1  LIG1        0.0637
     38 C           7.9264   -0.0637   -2.1779 C.1     1  LIG1       -0.0690
     39 C           7.5133   -0.6534   -3.1514 C.1     1  LIG1       -0.1139
     40 H           7.1465   -1.1637   -4.0117 H       1  LIG1        0.1232
     41 C          10.1466    2.8516    2.1565 C.1     1  LIG1       -0.0690
     42 C          10.5454    3.4796    3.1111 C.1     1  LIG1       -0.1139
     43 H          10.9102    4.0274    3.9489 H       1  LIG1        0.1232
     44 C          12.7937    0.5097    0.1507 C.ar    1  LIG1        0.0324
     45 C          14.1894    0.6969    0.1423 C.ar    1  LIG1       -0.0457
     46 C          11.9389    1.6406    0.1171 C.ar    1  LIG1       -0.0013
     47 C          14.7388    1.9730    0.1000 C.ar    1  LIG1       -0.0606
     48 H          14.8303   -0.1780    0.1741 H       1  LIG1        0.0630
     49 C          12.5167    2.9165    0.0815 C.ar    1  LIG1       -0.0528
     50 C          13.8991    3.0876    0.0702 C.ar    1  LIG1       -0.0611
     51 H          11.8661    3.7841    0.0527 H       1  LIG1        0.0624
     52 H          15.8174    2.0973    0.0917 H       1  LIG1        0.0618
     53 C          12.2852   -0.8262    0.2201 C.1     1  LIG1       -0.0691
     54 C          11.9052   -1.9735    0.2852 C.1     1  LIG1       -0.1139
     55 H          11.5545   -2.9777    0.3437 H       1  LIG1        0.1232
     56 H          14.3181    4.0887    0.0343 H       1  LIG1        0.0618
@<TRIPOS>BOND
     1    40    39    1
     2    15    13    1
     3    39    38    3
     4    14    13    1
     5    13     7    1
     6     8     6    1
     7    38    30    1
     8    34    31    1
     9     7     6   ar
    10     7     4   ar
    11     6     3   ar
    12    30    31   ar
    13    30    32   ar
    14    31    33   ar
    15    28    26    1
    16    25    24    1
    17    24    23    3
    18    23    16    1
    19     9     3    1
    20     3     1   ar
    21    16    21   ar
    22    16    17   ar
    23     4    17    1
    24     4     2   ar
    25    21    20   ar
    26    17    18   ar
    27    20    32    1
    28    20    19   ar
    29    32    35   ar
    30    18    19   ar
    31    18    22    1
    32    56    50    1
    33    19    26    1
    34    51    49    1
    35    50    49   ar
    36    50    47   ar
    37    49    46   ar
    38    33    46    1
    39    33    36   ar
    40    52    47    1
    41    47    45   ar
    42    46    44   ar
    43    45    44   ar
    44    45    48    1
    45    44    53    1
    46    53    54    3
    47    54    55    1
    48    26    29    1
    49    26    27    1
    50     2     1   ar
    51     2     5    1
    52     1    10    1
    53    35    36   ar
    54    35    37    1
    55    36    41    1
    56    10    11    3
    57    41    42    3
    58    11    12    1
    59    42    43    1
