@<TRIPOS>MOLECULE
mol_data/opt/b3lyp/geoms/mol2/4ei.out
 17 17 0 0 0
SMALL
GASTEIGER

@<TRIPOS>ATOM
      1 C           0.0675   -0.0126   -0.0007 C.ar    1  LIG1        0.0247
      2 C           1.4744   -0.0079    0.0046 C.ar    1  LIG1       -0.0461
      3 C          -0.6078    1.2216    0.0047 C.ar    1  LIG1       -0.0461
      4 C           2.1752    1.1937    0.0134 C.ar    1  LIG1       -0.0577
      5 H           2.0076   -0.9530    0.0057 H       1  LIG1        0.0630
      6 C           0.1059    2.4155    0.0136 C.ar    1  LIG1       -0.0577
      7 C           1.5076    2.4262    0.0149 C.ar    1  LIG1       -0.0504
      8 H          -0.4348    3.3586    0.0213 H       1  LIG1        0.0621
      9 H           3.2621    1.1756    0.0211 H       1  LIG1        0.0621
     10 H          -1.6929    1.2320    0.0060 H       1  LIG1        0.0630
     11 C          -0.6591   -1.2434   -0.0065 C.1     1  LIG1       -0.0697
     12 C          -1.2746   -2.2857   -0.0119 C.1     1  LIG1       -0.1139
     13 H          -1.8164   -3.2028   -0.0164 H       1  LIG1        0.1232
     14 C           2.2751    3.7260   -0.0086 C.3     1  LIG1       -0.0397
     15 H           1.7201    4.5279    0.4872 H       1  LIG1        0.0278
     16 H           2.4680    4.0526   -1.0382 H       1  LIG1        0.0278
     17 H           3.2453    3.6274    0.4872 H       1  LIG1        0.0278
@<TRIPOS>BOND
     1    16    14    1
     2    13    12    1
     3    12    11    3
     4    14     7    1
     5    14    15    1
     6    14    17    1
     7    11     1    1
     8     1     2   ar
     9     1     3   ar
    10     2     5    1
    11     2     4   ar
    12     3    10    1
    13     3     6   ar
    14     4     7   ar
    15     4     9    1
    16     6     7   ar
    17     6     8    1
