@<TRIPOS>MOLECULE
mol_data/opt/b3lyp/geoms/mol2/4ei12ef-13la-13ee-.out
 51 54 0 0 0
SMALL
GASTEIGER

@<TRIPOS>ATOM
      1 C           1.3322    2.7752   -3.5895 C.ar    1  LIG1        0.0254
      2 C           2.4352    2.2932   -2.8736 C.ar    1  LIG1       -0.0354
      3 C           0.1875    3.1720   -2.8777 C.ar    1  LIG1       -0.0460
      4 C           2.4216    2.1868   -1.4714 C.ar    1  LIG1        0.0227
      5 H           3.3235    2.0053   -3.4217 H       1  LIG1        0.0637
      6 C           0.1713    3.0730   -1.4917 C.ar    1  LIG1       -0.0570
      7 C           1.2596    2.5871   -0.7574 C.ar    1  LIG1       -0.0397
      8 H          -0.7222    3.3762   -0.9528 H       1  LIG1        0.0621
      9 H          -0.6753    3.5514   -3.4142 H       1  LIG1        0.0630
     10 C           1.3792    2.8721   -5.0152 C.1     1  LIG1       -0.0696
     11 C           1.4130    2.9556   -6.2219 C.1     1  LIG1       -0.1139
     12 H           1.4453    3.0311   -7.2840 H       1  LIG1        0.1232
     13 C           1.1319    2.5013    0.7457 C.3     1  LIG1       -0.0390
     14 H           0.0916    2.6541    1.0444 H       1  LIG1        0.0278
     15 H           1.7391    3.2667    1.2422 H       1  LIG1        0.0278
     16 H           1.4602    1.5303    1.1277 H       1  LIG1        0.0278
     17 C           3.6170    1.6535   -0.8275 C.ar    1  LIG1        0.1551
     18 C           4.6384    0.8285   -1.2786 C.ar    1  LIG1        0.1125
     19 C           5.5548    0.6698   -0.1833 C.ar    1  LIG1        0.1806
     20 C           5.0677    1.4046    0.8697 C.ar    1  LIG1        0.1978
     21 O           3.8830    1.9983    0.4656 O.2     1  LIG1       -0.4482
     22 C           4.8198    0.1660   -2.5156 C.1     1  LIG1       -0.0622
     23 C           5.0761   -0.4465   -3.5301 C.1     1  LIG1       -0.1137
     24 H           5.2590   -0.9718   -4.4392 H       1  LIG1        0.1232
     25 O           6.6624   -0.1065   -0.1865 O.3     1  LIG1       -0.5023
     26 H           6.7396   -0.5032   -1.0682 H       1  LIG1        0.2923
     27 C           5.4752    1.6537    2.2215 C.ar    1  LIG1        0.1285
     28 C           6.7086    1.5454    2.8657 C.ar    1  LIG1        0.1490
     29 C           6.5439    1.9461    4.2145 C.ar    1  LIG1        0.0076
     30 C           5.2158    2.3139    4.3796 C.ar    1  LIG1        0.0682
     31 N           4.5720    2.1080    3.1707 N.ar    1  LIG1       -0.3475
     32 H           3.6882    2.5219    2.9158 H       1  LIG1        0.1661
     33 O           7.8730    1.1834    2.2550 O.3     1  LIG1       -0.4929
     34 C           8.3753   -0.1029    2.6181 C.3     1  LIG1        0.0789
     35 H           9.3348   -0.2138    2.1094 H       1  LIG1        0.0660
     36 H           8.5286   -0.1834    3.7016 H       1  LIG1        0.0660
     37 H           7.6954   -0.8954    2.2851 H       1  LIG1        0.0660
     38 H           7.3004    1.9677    4.9837 H       1  LIG1        0.0676
     39 C           4.5063    2.7907    5.5415 C.ar    1  LIG1        0.0798
     40 C           4.9532    3.4635    6.6818 C.ar    1  LIG1        0.0667
     41 C           3.7973    3.6973    7.5210 C.ar    1  LIG1        0.0580
     42 C           2.7054    3.1626    6.8636 C.ar    1  LIG1        0.0189
     43 N           3.1390    2.6359    5.6739 N.ar    1  LIG1       -0.3574
     44 H           2.5824    2.0441    5.0776 H       1  LIG1        0.1654
     45 H           1.6689    3.1240    7.1598 H       1  LIG1        0.0820
     46 C           6.2803    3.8679    6.9581 C.1     1  LIG1       -0.0663
     47 C           7.4141    4.2135    7.2066 C.1     1  LIG1       -0.1138
     48 H           8.4067    4.5311    7.4259 H       1  LIG1        0.1232
     49 C           3.7800    4.3588    8.7746 C.1     1  LIG1       -0.0669
     50 C           3.7664    4.9225    9.8453 C.1     1  LIG1       -0.1138
     51 H           3.7606    5.4197   10.7870 H       1  LIG1        0.1232
@<TRIPOS>BOND
     1    12    11    1
     2    11    10    3
     3    10     1    1
     4    24    23    1
     5     1     3   ar
     6     1     2   ar
     7    23    22    3
     8     5     2    1
     9     9     3    1
    10     3     6   ar
    11     2     4   ar
    12    22    18    1
    13     6     8    1
    14     6     7   ar
    15     4    17    1
    16     4     7   ar
    17    18    17   ar
    18    18    19   ar
    19    26    25    1
    20    17    21   ar
    21     7    13    1
    22    25    19    1
    23    19    20   ar
    24    21    20   ar
    25    13    14    1
    26    13    16    1
    27    13    15    1
    28    20    27    1
    29    35    34    1
    30    27    28   ar
    31    27    31   ar
    32    33    34    1
    33    33    28    1
    34    37    34    1
    35    34    36    1
    36    28    29   ar
    37    32    31    1
    38    31    30   ar
    39    29    30   ar
    40    29    38    1
    41    30    39    1
    42    44    43    1
    43    39    43   ar
    44    39    40   ar
    45    43    42   ar
    46    40    46    1
    47    40    41   ar
    48    42    45    1
    49    42    41   ar
    50    46    47    3
    51    47    48    1
    52    41    49    1
    53    49    50    3
    54    50    51    1
