@<TRIPOS>MOLECULE
mol_data/opt/b3lyp/geoms/mol2/4ei12lh4fh-13ia4ed-13le13dh-4fa.out
 103 110 0 0 0
SMALL
GASTEIGER

@<TRIPOS>ATOM
      1 C           0.0925   -1.0132   -0.9870 C.ar    1  LIG1        0.0254
      2 C           1.3637   -0.6969   -0.4904 C.ar    1  LIG1       -0.0353
      3 C          -0.6992    0.0165   -1.5234 C.ar    1  LIG1       -0.0460
      4 C           1.8598    0.6197   -0.5056 C.ar    1  LIG1        0.0251
      5 H           1.9832   -1.4879   -0.0863 H       1  LIG1        0.0637
      6 C          -0.2113    1.3173   -1.5421 C.ar    1  LIG1       -0.0570
      7 C           1.0524    1.6574   -1.0431 C.ar    1  LIG1       -0.0396
      8 H          -0.8342    2.1075   -1.9527 H       1  LIG1        0.0621
      9 H          -1.6846   -0.2101   -1.9161 H       1  LIG1        0.0630
     10 C          -0.3832   -2.3616   -0.9550 C.1     1  LIG1       -0.0696
     11 C          -0.7916   -3.5006   -0.9286 C.1     1  LIG1       -0.1139
     12 H          -1.1477   -4.5042   -0.9071 H       1  LIG1        0.1232
     13 C           1.4799    3.1054   -1.0871 C.3     1  LIG1       -0.0390
     14 H           0.6462    3.7354   -1.4085 H       1  LIG1        0.0278
     15 H           2.3132    3.2593   -1.7796 H       1  LIG1        0.0278
     16 H           1.8166    3.4559   -0.1064 H       1  LIG1        0.0278
     17 C           3.1930    0.8346    0.0532 C.ar    1  LIG1        0.1793
     18 C           3.9713    0.0847    0.9071 C.ar    1  LIG1        0.1870
     19 C           5.2249    0.7512    1.0801 C.ar    1  LIG1        0.1141
     20 C           5.1602    1.8916    0.2987 C.ar    1  LIG1        0.1635
     21 O           3.9122    1.9372   -0.3105 O.2     1  LIG1       -0.4490
     22 O           3.6734   -1.1124    1.5062 O.3     1  LIG1       -0.4896
     23 C           3.0839   -0.9777    2.8102 C.3     1  LIG1        0.0791
     24 H           2.9476   -1.9912    3.1923 H       1  LIG1        0.0660
     25 H           3.7426   -0.4147    3.4805 H       1  LIG1        0.0660
     26 H           2.1118   -0.4761    2.7482 H       1  LIG1        0.0660
     27 N           6.1898    0.3024    1.9686 N.pl3   1  LIG1       -0.3522
     28 H           6.1438   -0.7027    2.0900 H       1  LIG1        0.1425
     29 H           7.1222    0.6253    1.7357 H       1  LIG1        0.1425
     30 C           7.4222    3.0069    0.1271 C.ar    1  LIG1        0.1283
     31 C           8.1746    4.1499   -0.1103 C.ar    1  LIG1       -0.0086
     32 C           6.0145    3.0378    0.0434 C.ar    1  LIG1        0.0624
     33 C           7.5957    5.3751   -0.4828 C.ar    1  LIG1        0.0227
     34 H           9.2514    4.0979    0.0189 H       1  LIG1        0.0661
     35 C           5.4392    4.2618   -0.3515 C.ar    1  LIG1       -0.0262
     36 C           6.1832    5.4075   -0.6190 C.ar    1  LIG1        0.0347
     37 H           4.3596    4.3053   -0.4491 H       1  LIG1        0.0644
     38 O           8.0406    1.8115    0.4380 O.3     1  LIG1       -0.5060
     39 H           8.9971    1.9443    0.4187 H       1  LIG1        0.2922
     40 N           5.5219    6.6171   -0.9668 N.pl3   1  LIG1       -0.3574
     41 H           5.9286    7.0502   -1.7916 H       1  LIG1        0.1423
     42 H           4.5323    6.4665   -1.1295 H       1  LIG1        0.1423
     43 C           8.4364    6.5571   -0.6798 C.ar    1  LIG1        0.0517
     44 C           9.7695    6.6996   -1.0913 C.ar    1  LIG1       -0.0245
     45 C          10.0826    8.0760   -1.0098 C.ar    1  LIG1       -0.0329
     46 C           8.9574    8.7674   -0.5670 C.ar    1  LIG1        0.0484
     47 N           7.9684    7.8229   -0.3931 N.ar    1  LIG1       -0.3539
     48 H           7.0480    7.9792   -0.0058 H       1  LIG1        0.1659
     49 C          10.7071    5.6307   -1.5764 C.3     1  LIG1       -0.0377
     50 H          11.4443    6.0547   -2.2649 H       1  LIG1        0.0278
     51 H          10.1770    4.8334   -2.1063 H       1  LIG1        0.0278
     52 H          11.2707    5.1632   -0.7577 H       1  LIG1        0.0278
     53 H          11.0216    8.5276   -1.2897 H       1  LIG1        0.0641
     54 C           9.6905   11.1509   -0.0591 C.ar    1  LIG1        0.0345
     55 C           9.3498   12.4963    0.1229 C.ar    1  LIG1       -0.0352
     56 C           8.6858   10.1855   -0.3745 C.ar    1  LIG1        0.0149
     57 C           8.0351   12.9815    0.0116 C.ar    1  LIG1        0.0205
     58 H          10.1361   13.1957    0.3725 H       1  LIG1        0.0637
     59 C           7.3751   10.6647   -0.4908 C.ar    1  LIG1       -0.0334
     60 C           7.0384   12.0124   -0.3072 C.ar    1  LIG1        0.0617
     61 H           6.5791    9.9821   -0.7675 H       1  LIG1        0.0637
     62 C          11.0637   10.8025    0.1269 C.1     1  LIG1       -0.0690
     63 C          12.2405   10.5820    0.3046 C.1     1  LIG1       -0.1139
     64 H          13.2715   10.3686    0.4687 H       1  LIG1        0.1232
     65 N           4.5442   12.6693   -0.6087 N.1     1  LIG1       -0.1908
     66 C           5.6632   12.3647   -0.4850 C.1     1  LIG1        0.0998
     67 C           7.7638   14.3954    0.2151 C.ar    1  LIG1        0.0917
     68 C           8.6225   15.5012    0.2181 C.ar    1  LIG1        0.1612
     69 C           7.8543   16.6864    0.4416 C.ar    1  LIG1        0.0936
     70 C           6.5197   16.2696    0.5859 C.ar    1  LIG1        0.0839
     71 N           6.4971   14.9081    0.4406 N.ar    1  LIG1       -0.3490
     72 H           5.6812   14.3492    0.6379 H       1  LIG1        0.1661
     73 O           9.9709   15.4229    0.0519 O.3     1  LIG1       -0.4917
     74 C          10.5112   16.1333   -1.0734 C.3     1  LIG1        0.0789
     75 H          11.5866   15.9503   -1.0545 H       1  LIG1        0.0660
     76 H          10.0893   15.7502   -2.0100 H       1  LIG1        0.0660
     77 H          10.3177   17.2056   -0.9936 H       1  LIG1        0.0660
     78 C           8.3360   18.0168    0.4748 C.1     1  LIG1       -0.0638
     79 C           8.7493   19.1546    0.4922 C.1     1  LIG1       -0.1137
     80 H           9.0908   20.1609    0.5657 H       1  LIG1        0.1232
     81 C           5.2749   16.9770    0.7581 C.ar    1  LIG1        0.0841
     82 C           4.9118   18.1455    1.4438 C.ar    1  LIG1        0.0996
     83 C           3.4983   18.3405    1.2742 C.ar    1  LIG1        0.0686
     84 C           3.0253   17.2892    0.4844 C.ar    1  LIG1        0.0727
     85 N           4.1229   16.4720    0.2178 N.ar    1  LIG1       -0.3504
     86 H           4.1109   15.7579   -0.4966 H       1  LIG1        0.1660
     87 N           6.2656   19.7187    2.9728 N.1     1  LIG1       -0.1907
     88 C           5.7039   18.9768    2.2700 C.1     1  LIG1        0.1032
     89 N           2.7680   19.3246    1.9145 N.pl3   1  LIG1       -0.3553
     90 H           3.3362   20.0806    2.2749 H       1  LIG1        0.1424
     91 H           1.9699   19.6456    1.3794 H       1  LIG1        0.1424
     92 C           0.6963   17.8061   -0.3557 C.ar    1  LIG1        0.1260
     93 C          -0.5552   17.3717   -0.7927 C.ar    1  LIG1       -0.0195
     94 C           1.6963   16.8856    0.0290 C.ar    1  LIG1        0.0415
     95 C          -0.8394   16.0108   -0.8902 C.ar    1  LIG1       -0.0583
     96 H          -1.3039   18.1092   -1.0760 H       1  LIG1        0.0654
     97 C           1.3763   15.5164   -0.0813 C.ar    1  LIG1       -0.0491
     98 C           0.1367   15.0790   -0.5384 C.ar    1  LIG1       -0.0609
     99 H           2.1162   14.7809    0.2199 H       1  LIG1        0.0625
    100 H          -1.8153   15.6876   -1.2382 H       1  LIG1        0.0619
    101 O           1.0000   19.1484   -0.3133 O.3     1  LIG1       -0.5061
    102 H           0.2450   19.6496   -0.6487 H       1  LIG1        0.2922
    103 H          -0.0678   14.0154   -0.6040 H       1  LIG1        0.0618
@<TRIPOS>BOND
     1    50    49    1
     2    51    49    1
     3    76    74    1
     4     8     6    1
     5     9     3    1
     6    41    40    1
     7    15    13    1
     8    49    44    1
     9    49    52    1
    10     6     3   ar
    11     6     7   ar
    12     3     1   ar
    13    14    13    1
    14    53    45    1
    15   100    95    1
    16    42    40    1
    17    44    45   ar
    18    44    43   ar
    19    13     7    1
    20    13    16    1
    21    96    93    1
    22    74    75    1
    23    74    77    1
    24    74    73    1
    25     7     4   ar
    26    45    46   ar
    27     1    10    1
    28     1     2   ar
    29    40    36    1
    30    10    11    3
    31    11    12    1
    32    95    93   ar
    33    95    98   ar
    34    93    92   ar
    35    61    59    1
    36    43    33    1
    37    43    47   ar
    38   102   101    1
    39    36    33   ar
    40    36    35   ar
    41    65    66    3
    42   103    98    1
    43    46    47   ar
    44    46    56    1
    45    98    97   ar
    46     4     2   ar
    47     4    17    1
    48    86    85    1
    49    59    56   ar
    50    59    60   ar
    51     2     5    1
    52    66    60    1
    53    33    31   ar
    54    37    35    1
    55    47    48    1
    56    56    54   ar
    57    92   101    1
    58    92    94   ar
    59    35    32   ar
    60    21    17   ar
    61    21    20   ar
    62    60    57   ar
    63    31    34    1
    64    31    30   ar
    65    97    94   ar
    66    97    99    1
    67    54    55   ar
    68    54    62    1
    69    57    55   ar
    70    57    67    1
    71    94    84    1
    72    32    30   ar
    73    32    20    1
    74    73    68    1
    75    17    18   ar
    76    55    58    1
    77    62    63    3
    78    30    38    1
    79    67    68   ar
    80    67    71   ar
    81    85    84   ar
    82    85    81   ar
    83    68    69   ar
    84    20    19   ar
    85    63    64    1
    86    39    38    1
    87    71    70   ar
    88    71    72    1
    89    69    78    1
    90    69    70   ar
    91    78    79    3
    92    84    83   ar
    93    79    80    1
    94    70    81    1
    95    81    82   ar
    96    18    19   ar
    97    18    22    1
    98    19    27    1
    99    83    82   ar
   100    83    89    1
   101    91    89    1
   102    82    88    1
   103    22    23    1
   104    29    27    1
   105    89    90    1
   106    27    28    1
   107    88    87    3
   108    26    23    1
   109    23    24    1
   110    23    25    1
