@<TRIPOS>MOLECULE
mol_data/opt/b3lyp/geoms/mol2/4ei12fh13ee12hi.out
 51 54 0 0 0
SMALL
GASTEIGER

@<TRIPOS>ATOM
      1 C          -0.0489   -0.1115    0.3220 C.ar    1  LIG1        0.0254
      2 C           1.3359   -0.0084    0.1431 C.ar    1  LIG1       -0.0353
      3 C          -0.8115    1.0648    0.4151 C.ar    1  LIG1       -0.0460
      4 C           1.9841    1.2395    0.0505 C.ar    1  LIG1        0.0251
      5 H           1.9210   -0.9169    0.0765 H       1  LIG1        0.0637
      6 C          -0.1770    2.2969    0.3215 C.ar    1  LIG1       -0.0570
      7 C           1.2052    2.4264    0.1376 C.ar    1  LIG1       -0.0396
      8 H          -0.7741    3.2025    0.3882 H       1  LIG1        0.0621
      9 H          -1.8853    1.0035    0.5554 H       1  LIG1        0.0630
     10 C          -0.6725   -1.3957    0.4129 C.1     1  LIG1       -0.0696
     11 C          -1.2072   -2.4787    0.4906 C.1     1  LIG1       -0.1139
     12 H          -1.6736   -3.4338    0.5588 H       1  LIG1        0.1232
     13 C           1.7811    3.8198    0.0272 C.3     1  LIG1       -0.0390
     14 H           0.9786    4.5613    0.0579 H       1  LIG1        0.0278
     15 H           2.3295    3.9553   -0.9110 H       1  LIG1        0.0278
     16 H           2.4782    4.0400    0.8416 H       1  LIG1        0.0278
     17 C           3.4275    1.2164   -0.1354 C.ar    1  LIG1        0.1791
     18 C           4.3272    0.2021   -0.3888 C.ar    1  LIG1        0.1845
     19 C           5.6357    0.7602   -0.4607 C.ar    1  LIG1        0.1153
     20 C           5.4916    2.1089   -0.2163 C.ar    1  LIG1        0.1772
     21 O           4.1617    2.3872   -0.0237 O.2     1  LIG1       -0.4476
     22 O           4.0921   -1.1197   -0.5597 O.3     1  LIG1       -0.5020
     23 H           4.9785   -1.5260   -0.6007 H       1  LIG1        0.2924
     24 N           6.7433   -0.0758   -0.7515 N.pl3   1  LIG1       -0.3521
     25 H           6.9559   -0.0711   -1.7473 H       1  LIG1        0.1425
     26 H           7.5823    0.2286   -0.2635 H       1  LIG1        0.1425
     27 C           6.3724    3.2416   -0.1468 C.ar    1  LIG1        0.1014
     28 C           7.7532    3.3700    0.0357 C.ar    1  LIG1        0.0691
     29 C           8.0626    4.7822   -0.0166 C.ar    1  LIG1        0.0691
     30 C           6.8520    5.4675   -0.1947 C.ar    1  LIG1        0.1012
     31 N           5.8653    4.5151   -0.2725 N.ar    1  LIG1       -0.3473
     32 H           4.8886    4.7278   -0.4068 H       1  LIG1        0.1662
     33 C           8.6983    2.3493    0.2905 C.1     1  LIG1       -0.0662
     34 C           9.5401    1.5085    0.5277 C.1     1  LIG1       -0.1138
     35 H          10.2881    0.7882    0.7657 H       1  LIG1        0.1232
     36 C           9.3681    5.3195    0.0467 C.1     1  LIG1       -0.0662
     37 C          10.5036    5.7450    0.0946 C.1     1  LIG1       -0.1138
     38 H          11.5097    6.0947    0.1071 H       1  LIG1        0.1232
     39 C           6.5022    6.8561   -0.3037 C.ar    1  LIG1        0.1729
     40 C           7.0839    8.0651    0.0328 C.ar    1  LIG1        0.0754
     41 C           6.1284    9.0909   -0.3116 C.ar    1  LIG1        0.0086
     42 C           5.0431    8.4369   -0.8075 C.ar    1  LIG1        0.0974
     43 O           5.2305    7.0928   -0.8141 O.2     1  LIG1       -0.4592
     44 H           4.0944    8.7858   -1.1865 H       1  LIG1        0.1033
     45 N           8.2812    8.3131    0.6816 N.pl3   1  LIG1       -0.3548
     46 H           8.9677    7.5683    0.6336 H       1  LIG1        0.1424
     47 H           8.6850    9.2167    0.4747 H       1  LIG1        0.1424
     48 C           6.3149   10.5639   -0.1200 C.3     1  LIG1       -0.0350
     49 H           5.4236   11.1171   -0.4273 H       1  LIG1        0.0279
     50 H           7.1574   10.9484   -0.7093 H       1  LIG1        0.0279
     51 H           6.5146   10.8065    0.9304 H       1  LIG1        0.0279
@<TRIPOS>BOND
     1    25    24    1
     2    44    42    1
     3    15    13    1
     4    43    42   ar
     5    43    39   ar
     6    42    41   ar
     7    24    19    1
     8    24    26    1
     9    50    48    1
    10    23    22    1
    11    22    18    1
    12    19    18   ar
    13    19    20   ar
    14    49    48    1
    15    32    31    1
    16    18    17   ar
    17    41    48    1
    18    41    40   ar
    19    39    30    1
    20    39    40   ar
    21    31    30   ar
    22    31    27   ar
    23    20    27    1
    24    20    21   ar
    25    30    29   ar
    26    27    28   ar
    27    17    21   ar
    28    17     4    1
    29    48    51    1
    30    29    28   ar
    31    29    36    1
    32    13    14    1
    33    13     7    1
    34    13    16    1
    35    40    45    1
    36    28    33    1
    37    36    37    3
    38     4     7   ar
    39     4     2   ar
    40     5     2    1
    41    37    38    1
    42     7     6   ar
    43     2     1   ar
    44    33    34    3
    45     6     8    1
    46     6     3   ar
    47     1    10    1
    48     1     3   ar
    49    10    11    3
    50     3     9    1
    51    47    45    1
    52    11    12    1
    53    34    35    1
    54    46    45    1
