@<TRIPOS>MOLECULE
mol_data/opt/b3lyp/geoms/mol2/4ei4ei-4ei.out
 47 49 0 0 0
SMALL
GASTEIGER

@<TRIPOS>ATOM
      1 C          -0.1589    0.1364   -0.4664 C.ar    1  LIG1        0.0253
      2 C           1.2462    0.1671   -0.4778 C.ar    1  LIG1       -0.0383
      3 C          -0.8484    1.2476    0.0458 C.ar    1  LIG1       -0.0461
      4 C           1.9587    1.2719   -0.0027 C.ar    1  LIG1       -0.0126
      5 H           1.7892   -0.6847   -0.8739 H       1  LIG1        0.0636
      6 C          -0.1399    2.3410    0.5312 C.ar    1  LIG1       -0.0571
      7 C           1.2602    2.3831    0.5213 C.ar    1  LIG1       -0.0426
      8 H          -0.6863    3.1879    0.9380 H       1  LIG1        0.0621
      9 H          -1.9332    1.2415    0.0658 H       1  LIG1        0.0630
     10 C          -0.8657   -1.0029   -0.9622 C.1     1  LIG1       -0.0696
     11 C          -1.4654   -1.9676   -1.3804 C.1     1  LIG1       -0.1139
     12 H          -1.9923   -2.8162   -1.7504 H       1  LIG1        0.1232
     13 C           1.9820    3.5872    1.0758 C.3     1  LIG1       -0.0391
     14 H           1.2970    4.2240    1.6421 H       1  LIG1        0.0278
     15 H           2.4171    4.1907    0.2717 H       1  LIG1        0.0278
     16 H           2.8028    3.2940    1.7378 H       1  LIG1        0.0278
     17 C           4.2313    1.9969   -0.9056 C.ar    1  LIG1        0.0330
     18 C           5.6308    1.8677   -0.8764 C.ar    1  LIG1       -0.0377
     19 C           3.4526    1.2122   -0.0244 C.ar    1  LIG1       -0.0019
     20 C           6.2776    0.9802   -0.0142 C.ar    1  LIG1       -0.0126
     21 H           6.2217    2.4675   -1.5609 H       1  LIG1        0.0636
     22 C           4.1154    0.3309    0.8362 C.ar    1  LIG1       -0.0494
     23 C           5.5073    0.1932    0.8693 C.ar    1  LIG1       -0.0421
     24 H           3.5159   -0.2641    1.5200 H       1  LIG1        0.0627
     25 C           3.6368    2.8985   -1.8430 C.1     1  LIG1       -0.0690
     26 C           3.1638    3.6693   -2.6478 C.1     1  LIG1       -0.1139
     27 H           2.7356    4.3345   -3.3612 H       1  LIG1        0.1232
     28 C           6.1443   -0.7661    1.8449 C.3     1  LIG1       -0.0391
     29 H           6.9832   -0.3026    2.3734 H       1  LIG1        0.0278
     30 H           6.5375   -1.6481    1.3281 H       1  LIG1        0.0278
     31 H           5.4174   -1.1059    2.5871 H       1  LIG1        0.0278
     32 C           8.4824   -0.1787   -0.5544 C.ar    1  LIG1        0.0324
     33 C           9.8893   -0.1487   -0.5545 C.ar    1  LIG1       -0.0455
     34 C           7.7720    0.9300   -0.0332 C.ar    1  LIG1       -0.0020
     35 C          10.5822    0.9487   -0.0586 C.ar    1  LIG1       -0.0576
     36 H          10.4289   -1.0010   -0.9543 H       1  LIG1        0.0630
     37 C           8.4974    2.0247    0.4504 C.ar    1  LIG1       -0.0499
     38 C           9.8968    2.0600    0.4485 C.ar    1  LIG1       -0.0498
     39 H           7.9454    2.8725    0.8478 H       1  LIG1        0.0627
     40 H          11.6690    0.9443   -0.0673 H       1  LIG1        0.0621
     41 C           7.8092   -1.3156   -1.1011 C.1     1  LIG1       -0.0691
     42 C           7.2715   -2.2922   -1.5731 C.1     1  LIG1       -0.1139
     43 H           6.7862   -3.1410   -1.9961 H       1  LIG1        0.1232
     44 C          10.6419    3.2715    0.9545 C.3     1  LIG1       -0.0397
     45 H          10.0684    3.8047    1.7181 H       1  LIG1        0.0278
     46 H          10.8394    3.9809    0.1411 H       1  LIG1        0.0278
     47 H          11.6088    2.9952    1.3854 H       1  LIG1        0.0278
@<TRIPOS>BOND
     1    27    26    1
     2    26    25    3
     3    43    42    1
     4    25    17    1
     5    12    11    1
     6    42    41    3
     7    21    18    1
     8    11    10    3
     9    41    32    1
    10    10     1    1
    11    36    33    1
    12    17    18   ar
    13    17    19   ar
    14    18    20   ar
    15     5     2    1
    16    33    32   ar
    17    33    35   ar
    18    32    34   ar
    19     2     1   ar
    20     2     4   ar
    21     1     3   ar
    22    40    35    1
    23    35    38   ar
    24    34    20    1
    25    34    37   ar
    26    19     4    1
    27    19    22   ar
    28    20    23   ar
    29     4     7   ar
    30     3     9    1
    31     3     6   ar
    32    46    44    1
    33    15    13    1
    34    38    37   ar
    35    38    44    1
    36    37    39    1
    37     7     6   ar
    38     7    13    1
    39     6     8    1
    40    22    23   ar
    41    22    24    1
    42    23    28    1
    43    44    47    1
    44    44    45    1
    45    13    14    1
    46    13    16    1
    47    30    28    1
    48    28    29    1
    49    28    31    1
