@<TRIPOS>MOLECULE
mol_data/opt/b3lyp/geoms/mol2/4ei4ei-4ei-4ei.out
 62 65 0 0 0
SMALL
GASTEIGER

@<TRIPOS>ATOM
      1 C          -0.2468    0.0500    0.4083 C.ar    1  LIG1        0.0253
      2 C           1.1570    0.0954    0.3583 C.ar    1  LIG1       -0.0383
      3 C          -0.9675    1.1880    0.0108 C.ar    1  LIG1       -0.0461
      4 C           1.8384    1.2340   -0.0817 C.ar    1  LIG1       -0.0126
      5 H           1.7238   -0.7794    0.6597 H       1  LIG1        0.0636
      6 C          -0.2900    2.3256   -0.4134 C.ar    1  LIG1       -0.0571
      7 C           1.1086    2.3803   -0.4702 C.ar    1  LIG1       -0.0426
      8 H          -0.8605    3.2041   -0.7037 H       1  LIG1        0.0621
      9 H          -2.0519    1.1735    0.0449 H       1  LIG1        0.0630
     10 C          -0.9213   -1.1279    0.8565 C.1     1  LIG1       -0.0696
     11 C          -1.4939   -2.1243    1.2367 C.1     1  LIG1       -0.1139
     12 H          -1.9969   -3.0021    1.5698 H       1  LIG1        0.1232
     13 C           1.7948    3.6466   -0.9217 C.3     1  LIG1       -0.0391
     14 H           1.0917    4.4836   -0.9397 H       1  LIG1        0.0278
     15 H           2.2094    3.5322   -1.9290 H       1  LIG1        0.0278
     16 H           2.6262    3.9113   -0.2610 H       1  LIG1        0.0278
     17 C           4.0950    1.1861   -1.2696 C.ar    1  LIG1        0.0330
     18 C           5.4972    1.1438   -1.1806 C.ar    1  LIG1       -0.0377
     19 C           3.3333    1.2096   -0.0787 C.ar    1  LIG1       -0.0019
     20 C           6.1645    1.1274    0.0459 C.ar    1  LIG1       -0.0126
     21 H           6.0752    1.1260   -2.0988 H       1  LIG1        0.0636
     22 C           4.0154    1.1663    1.1417 C.ar    1  LIG1       -0.0494
     23 C           5.4103    1.1261    1.2396 C.ar    1  LIG1       -0.0421
     24 H           3.4280    1.1638    2.0561 H       1  LIG1        0.0627
     25 C           3.4815    1.1715   -2.5613 C.1     1  LIG1       -0.0690
     26 C           2.9931    1.1548   -3.6689 C.1     1  LIG1       -0.1139
     27 H           2.5515    1.1303   -4.6380 H       1  LIG1        0.1232
     28 C           6.0653    1.0671    2.5980 C.3     1  LIG1       -0.0391
     29 H           6.5264    2.0268    2.8545 H       1  LIG1        0.0278
     30 H           6.8565    0.3116    2.6283 H       1  LIG1        0.0278
     31 H           5.3325    0.8270    3.3728 H       1  LIG1        0.0278
     32 C           8.4679    2.1417    0.4539 C.ar    1  LIG1        0.0330
     33 C           9.8660    2.0036    0.4025 C.ar    1  LIG1       -0.0377
     34 C           7.6575    1.0585    0.0428 C.ar    1  LIG1       -0.0019
     35 C          10.4815    0.8365   -0.0533 C.ar    1  LIG1       -0.0126
     36 H          10.4818    2.8417    0.7122 H       1  LIG1        0.0636
     37 C           8.2891   -0.1059   -0.4069 C.ar    1  LIG1       -0.0494
     38 C           9.6793   -0.2502   -0.4650 C.ar    1  LIG1       -0.0421
     39 H           7.6645   -0.9412   -0.7121 H       1  LIG1        0.0627
     40 C           7.9096    3.3825    0.8938 C.1     1  LIG1       -0.0690
     41 C           7.4698    4.4459    1.2700 C.1     1  LIG1       -0.1139
     42 H           7.0734    5.3820    1.5883 H       1  LIG1        0.1232
     43 C          10.2813   -1.5492   -0.9423 C.3     1  LIG1       -0.0391
     44 H          11.0720   -1.8957   -0.2694 H       1  LIG1        0.0278
     45 H          10.7311   -1.4321   -1.9338 H       1  LIG1        0.0278
     46 H           9.5198   -2.3307   -1.0070 H       1  LIG1        0.0278
     47 C          12.7346    0.7859   -1.2436 C.ar    1  LIG1        0.0324
     48 C          14.1387    0.7372   -1.1610 C.ar    1  LIG1       -0.0455
     49 C          11.9755    0.7704   -0.0484 C.ar    1  LIG1       -0.0020
     50 C          14.7820    0.6809    0.0690 C.ar    1  LIG1       -0.0576
     51 H          14.7157    0.7482   -2.0799 H       1  LIG1        0.0630
     52 C          12.6521    0.7232    1.1760 C.ar    1  LIG1       -0.0499
     53 C          14.0483    0.6788    1.2625 C.ar    1  LIG1       -0.0498
     54 H          12.0629    0.7133    2.0893 H       1  LIG1        0.0627
     55 H          15.8675    0.6406    0.1040 H       1  LIG1        0.0621
     56 C          12.1147    0.8725   -2.5293 C.1     1  LIG1       -0.0691
     57 C          11.6220    0.9471   -3.6326 C.1     1  LIG1       -0.1139
     58 H          11.1776    1.0240   -4.5977 H       1  LIG1        0.1232
     59 C          14.7419    0.6559    2.6030 C.3     1  LIG1       -0.0397
     60 H          14.0987    0.2334    3.3800 H       1  LIG1        0.0278
     61 H          15.0166    1.6692    2.9217 H       1  LIG1        0.0278
     62 H          15.6638    0.0676    2.5666 H       1  LIG1        0.0278
@<TRIPOS>BOND
     1    27    26    1
     2    58    57    1
     3    26    25    3
     4    57    56    3
     5    25    17    1
     6    56    47    1
     7    21    18    1
     8    51    48    1
     9    45    43    1
    10    15    13    1
    11    17    18   ar
    12    17    19   ar
    13    47    48   ar
    14    47    49   ar
    15    18    20   ar
    16    48    50   ar
    17    46    43    1
    18    43    38    1
    19    43    44    1
    20    14    13    1
    21    13     7    1
    22    13    16    1
    23    39    37    1
    24     8     6    1
    25     7     6   ar
    26     7     4   ar
    27    38    37   ar
    28    38    35   ar
    29     6     3   ar
    30    37    34   ar
    31     4    19    1
    32     4     2   ar
    33    19    22   ar
    34    35    49    1
    35    35    33   ar
    36    49    52   ar
    37     3     9    1
    38     3     1   ar
    39    34    20    1
    40    34    32   ar
    41    20    23   ar
    42    50    55    1
    43    50    53   ar
    44     2     1   ar
    45     2     5    1
    46    33    32   ar
    47    33    36    1
    48     1    10    1
    49    32    40    1
    50    10    11    3
    51    40    41    3
    52    22    23   ar
    53    22    24    1
    54    52    53   ar
    55    52    54    1
    56    11    12    1
    57    23    28    1
    58    53    59    1
    59    41    42    1
    60    62    59    1
    61    28    30    1
    62    28    29    1
    63    28    31    1
    64    59    61    1
    65    59    60    1
