@<TRIPOS>MOLECULE
mol_data/opt/b3lyp/geoms/mol2/4ei4ei-4ei4ei-.out
 62 65 0 0 0
SMALL
GASTEIGER

@<TRIPOS>ATOM
      1 C          -0.2682    0.2333   -0.6667 C.ar    1  LIG1        0.0253
      2 C           1.1367    0.2733   -0.6619 C.ar    1  LIG1       -0.0383
      3 C          -0.9681    1.2180    0.0496 C.ar    1  LIG1       -0.0461
      4 C           1.8390    1.2667    0.0266 C.ar    1  LIG1       -0.0126
      5 H           1.6878   -0.4806   -1.2144 H       1  LIG1        0.0636
      6 C          -0.2698    2.1982    0.7458 C.ar    1  LIG1       -0.0571
      7 C           1.1300    2.2491    0.7541 C.ar    1  LIG1       -0.0426
      8 H          -0.8244    2.9453    1.3076 H       1  LIG1        0.0621
      9 H          -2.0529    1.2021    0.0604 H       1  LIG1        0.0630
     10 C          -0.9646   -0.7894   -1.3824 C.1     1  LIG1       -0.0696
     11 C          -1.5559   -1.6554   -1.9872 C.1     1  LIG1       -0.1139
     12 H          -2.0752   -2.4168   -2.5211 H       1  LIG1        0.1232
     13 C           1.8401    3.3253    1.5391 C.3     1  LIG1       -0.0391
     14 H           1.1481    3.8319    2.2171 H       1  LIG1        0.0278
     15 H           2.2720    4.0792    0.8720 H       1  LIG1        0.0278
     16 H           2.6618    2.9135    2.1332 H       1  LIG1        0.0278
     17 C           4.1110    2.1674   -0.7023 C.ar    1  LIG1        0.0330
     18 C           5.5112    2.0425   -0.6913 C.ar    1  LIG1       -0.0377
     19 C           3.3335    1.2208    0.0034 C.ar    1  LIG1       -0.0019
     20 C           6.1598    1.0067   -0.0161 C.ar    1  LIG1       -0.0126
     21 H           6.1016    2.7679   -1.2413 H       1  LIG1        0.0636
     22 C           3.9979    0.1920    0.6791 C.ar    1  LIG1       -0.0494
     23 C           5.3904    0.0583    0.6928 C.ar    1  LIG1       -0.0421
     24 H           3.3988   -0.5283    1.2297 H       1  LIG1        0.0627
     25 C           3.5147    3.2320   -1.4481 C.1     1  LIG1       -0.0690
     26 C           3.0407    4.1431   -2.0889 C.1     1  LIG1       -0.1139
     27 H           2.6113    4.9329   -2.6604 H       1  LIG1        0.1232
     28 C           6.0295   -1.0687    1.4669 C.3     1  LIG1       -0.0391
     29 H           6.8723   -0.7138    2.0680 H       1  LIG1        0.0278
     30 H           6.4178   -1.8384    0.7911 H       1  LIG1        0.0278
     31 H           5.3056   -1.5410    2.1361 H       1  LIG1        0.0278
     32 C           8.3777   -0.0147   -0.7490 C.ar    1  LIG1        0.0330
     33 C           9.7827    0.0289   -0.7326 C.ar    1  LIG1       -0.0377
     34 C           7.6539    0.9690   -0.0368 C.ar    1  LIG1       -0.0019
     35 C          10.4877    1.0198   -0.0465 C.ar    1  LIG1       -0.0126
     36 H          10.3316   -0.7252   -1.2870 H       1  LIG1        0.0636
     37 C           8.3743    1.9530    0.6482 C.ar    1  LIG1       -0.0494
     38 C           9.7722    2.0064    0.6664 C.ar    1  LIG1       -0.0421
     39 H           7.8164    2.7024    1.2033 H       1  LIG1        0.0627
     40 C           7.7236   -1.0364   -1.5060 C.1     1  LIG1       -0.0690
     41 C           7.1998   -1.9128   -2.1566 C.1     1  LIG1       -0.1139
     42 H           6.7281   -2.6717   -2.7367 H       1  LIG1        0.1232
     43 C          10.4726    3.0908    1.4483 C.3     1  LIG1       -0.0391
     44 H           9.7739    3.6035    2.1145 H       1  LIG1        0.0278
     45 H          10.9101    3.8380    0.7773 H       1  LIG1        0.0278
     46 H          11.2893    2.6853    2.0534 H       1  LIG1        0.0278
     47 C          12.7629    1.9108   -0.7708 C.ar    1  LIG1        0.0324
     48 C          14.1655    1.7905   -0.7484 C.ar    1  LIG1       -0.0455
     49 C          11.9821    0.9694   -0.0586 C.ar    1  LIG1       -0.0020
     50 C          14.7848    0.7653   -0.0458 C.ar    1  LIG1       -0.0576
     51 H          14.7595    2.5147   -1.2964 H       1  LIG1        0.0630
     52 C          12.6346   -0.0592    0.6320 C.ar    1  LIG1       -0.0499
     53 C          14.0278   -0.1836    0.6549 C.ar    1  LIG1       -0.0498
     54 H          12.0280   -0.7794    1.1747 H       1  LIG1        0.0627
     55 H          15.8697    0.6980   -0.0428 H       1  LIG1        0.0621
     56 C          12.1655    2.9645   -1.5308 C.1     1  LIG1       -0.0691
     57 C          11.6925    3.8664   -2.1853 C.1     1  LIG1       -0.1139
     58 H          11.2640    4.6491   -2.7673 H       1  LIG1        0.1232
     59 C          14.6972   -1.3158    1.3956 C.3     1  LIG1       -0.0397
     60 H          15.5713   -0.9657    1.9540 H       1  LIG1        0.0278
     61 H          15.0473   -2.0895    0.7013 H       1  LIG1        0.0278
     62 H          14.0124   -1.7932    2.1015 H       1  LIG1        0.0278
@<TRIPOS>BOND
     1    58    57    1
     2    42    41    1
     3    27    26    1
     4    12    11    1
     5    57    56    3
     6    41    40    3
     7    26    25    3
     8    11    10    3
     9    56    47    1
    10    40    32    1
    11    25    17    1
    12    10     1    1
    13    51    48    1
    14    36    33    1
    15    21    18    1
    16     5     2    1
    17    47    48   ar
    18    47    49   ar
    19    32    33   ar
    20    32    34   ar
    21    48    50   ar
    22    33    35   ar
    23    17    18   ar
    24    17    19   ar
    25    18    20   ar
    26     1     2   ar
    27     1     3   ar
    28     2     4   ar
    29    49    35    1
    30    49    52   ar
    31    35    38   ar
    32    50    55    1
    33    50    53   ar
    34    34    20    1
    35    34    37   ar
    36    20    23   ar
    37    19     4    1
    38    19    22   ar
    39     4     7   ar
    40     3     9    1
    41     3     6   ar
    42    52    53   ar
    43    52    54    1
    44    37    38   ar
    45    37    39    1
    46    53    59    1
    47    38    43    1
    48    22    23   ar
    49    22    24    1
    50    23    28    1
    51    61    59    1
    52     6     7   ar
    53     6     8    1
    54     7    13    1
    55    45    43    1
    56    30    28    1
    57    15    13    1
    58    59    60    1
    59    59    62    1
    60    43    46    1
    61    43    44    1
    62    28    29    1
    63    28    31    1
    64    13    16    1
    65    13    14    1
