@<TRIPOS>MOLECULE
mol_data/opt/b3lyp/geoms/mol2/4ei4ad-6af-6ff-.out
 49 52 0 0 0
SMALL
GASTEIGER

@<TRIPOS>ATOM
      1 C          -0.1604   -0.0283   -0.1708 C.ar    1  LIG1        0.0253
      2 C           1.2389    0.0790   -0.1585 C.ar    1  LIG1       -0.0384
      3 C          -0.9211    1.1359    0.0293 C.ar    1  LIG1       -0.0461
      4 C           1.8836    1.3068    0.0386 C.ar    1  LIG1       -0.0138
      5 H           1.8335   -0.8130   -0.3266 H       1  LIG1        0.0636
      6 C          -0.2842    2.3529    0.2382 C.ar    1  LIG1       -0.0571
      7 C           1.1123    2.4742    0.2480 C.ar    1  LIG1       -0.0427
      8 H          -0.8861    3.2412    0.4098 H       1  LIG1        0.0621
      9 H          -2.0042    1.0749    0.0261 H       1  LIG1        0.0630
     10 C          -0.7914   -1.2928   -0.3833 C.1     1  LIG1       -0.0696
     11 C          -1.3270   -2.3631   -0.5626 C.1     1  LIG1       -0.1139
     12 H          -1.7988   -3.3048   -0.7226 H       1  LIG1        0.1232
     13 C           1.7284    3.8302    0.5095 C.3     1  LIG1       -0.0391
     14 H           1.0243    4.4712    1.0466 H       1  LIG1        0.0278
     15 H           1.9880    4.3490   -0.4211 H       1  LIG1        0.0278
     16 H           2.6436    3.7577    1.1028 H       1  LIG1        0.0278
     17 C           4.0971    0.4294    0.8483 C.ar    1  LIG1       -0.0534
     18 C           5.4878    0.4061    0.8338 C.ar    1  LIG1       -0.0522
     19 C           3.3745    1.3175    0.0348 C.ar    1  LIG1       -0.0163
     20 C           6.2319    1.2614    0.0085 C.ar    1  LIG1        0.0011
     21 H           6.0153   -0.2702    1.4989 H       1  LIG1        0.0624
     22 C           4.1033    2.1682   -0.8021 C.ar    1  LIG1       -0.0360
     23 C           5.5067    2.1477   -0.8247 C.ar    1  LIG1        0.0601
     24 H           3.5856    2.8413   -1.4758 H       1  LIG1        0.0637
     25 H           3.5584   -0.2356    1.5165 H       1  LIG1        0.0624
     26 N           6.6551    3.7413   -2.5259 N.1     1  LIG1       -0.1908
     27 C           6.1652    3.0200   -1.7556 C.1     1  LIG1        0.0998
     28 C           8.5016    2.3664    0.1166 C.ar    1  LIG1        0.0362
     29 C           7.7131    1.2086    0.0326 C.ar    1  LIG1        0.0049
     30 C           8.3890   -0.0153    0.0527 C.ar    1  LIG1       -0.0088
     31 C           9.7803   -0.0545    0.1063 C.ar    1  LIG1        0.1435
     32 C          10.5051    1.1631    0.0981 C.ar    1  LIG1        0.1174
     33 N           9.8310    2.3321    0.1502 N.ar    1  LIG1       -0.2505
     34 H           7.8513   -0.9573    0.0261 H       1  LIG1        0.0661
     35 H           8.0468    3.3499    0.1750 H       1  LIG1        0.0836
     36 O          10.3537   -1.2864    0.1755 O.3     1  LIG1       -0.5046
     37 H          11.2810   -1.1950    0.4402 H       1  LIG1        0.2922
     38 C          12.6632    2.3576    0.6802 C.ar    1  LIG1        0.2220
     39 C          11.9823    1.2422    0.0944 C.ar    1  LIG1        0.0687
     40 C          12.7852    0.2471   -0.4858 C.ar    1  LIG1       -0.0043
     41 C          14.1737    0.3271   -0.3996 C.ar    1  LIG1        0.1357
     42 C          14.7213    1.4144    0.2833 C.ar    1  LIG1        0.0728
     43 N          13.9890    2.4050    0.7914 N.ar    1  LIG1       -0.2172
     44 H          12.3540   -0.5690   -1.0566 H       1  LIG1        0.0663
     45 H          15.8029    1.4973    0.4065 H       1  LIG1        0.0868
     46 O          12.0064    3.4230    1.1547 O.3     1  LIG1       -0.4919
     47 H          11.0708    3.3455    0.8360 H       1  LIG1        0.2937
     48 O          14.9205   -0.6615   -0.9800 O.3     1  LIG1       -0.5052
     49 H          15.8580   -0.4493   -0.8797 H       1  LIG1        0.2922
@<TRIPOS>BOND
     1    26    27    3
     2    27    23    1
     3    24    22    1
     4    44    40    1
     5    48    49    1
     6    48    41    1
     7    23    22   ar
     8    23    20   ar
     9    22    19   ar
    10    12    11    1
    11    11    10    3
    12    40    41   ar
    13    40    39   ar
    14    15    13    1
    15    41    42   ar
    16    10     1    1
    17     5     2    1
    18     1     2   ar
    19     1     3   ar
    20     2     4   ar
    21    20    29    1
    22    20    18   ar
    23     9     3    1
    24    34    30    1
    25     3     6   ar
    26    29    30   ar
    27    29    28   ar
    28    19     4    1
    29    19    17   ar
    30     4     7   ar
    31    30    31   ar
    32    39    32    1
    33    39    38   ar
    34    32    31   ar
    35    32    33   ar
    36    31    36    1
    37    28    33   ar
    38    28    35    1
    39    36    37    1
    40     6     7   ar
    41     6     8    1
    42     7    13    1
    43    42    45    1
    44    42    43   ar
    45    13    14    1
    46    13    16    1
    47    38    43   ar
    48    38    46    1
    49    18    17   ar
    50    18    21    1
    51    47    46    1
    52    17    25    1
