@<TRIPOS>MOLECULE
mol_data/opt/b3lyp/geoms/mol2/4ei4ei4ei-4ei-.out
 62 65 0 0 0
SMALL
GASTEIGER

@<TRIPOS>ATOM
      1 C          -0.2289    0.0605   -0.4477 C.ar    1  LIG1        0.0253
      2 C           1.1739    0.1233   -0.3888 C.ar    1  LIG1       -0.0383
      3 C          -0.9662    1.1870   -0.0478 C.ar    1  LIG1       -0.0461
      4 C           1.8382    1.2676    0.0622 C.ar    1  LIG1       -0.0126
      5 H           1.7535   -0.7425   -0.6920 H       1  LIG1        0.0636
      6 C          -0.3057    2.3304    0.3873 C.ar    1  LIG1       -0.0571
      7 C           1.0917    2.4023    0.4530 C.ar    1  LIG1       -0.0426
      8 H          -0.8889    3.1998    0.6793 H       1  LIG1        0.0621
      9 H          -2.0501    1.1591   -0.0887 H       1  LIG1        0.0630
     10 C          -0.8857   -1.1230   -0.9072 C.1     1  LIG1       -0.0696
     11 C          -1.4434   -2.1241   -1.2971 C.1     1  LIG1       -0.1139
     12 H          -1.9334   -3.0060   -1.6387 H       1  LIG1        0.1232
     13 C           1.7590    3.6745    0.9162 C.3     1  LIG1       -0.0391
     14 H           1.0459    4.5032    0.9314 H       1  LIG1        0.0278
     15 H           2.5931    3.9519    0.2643 H       1  LIG1        0.0278
     16 H           2.1657    3.5607    1.9268 H       1  LIG1        0.0278
     17 C           4.0884    1.2416    1.2632 C.ar    1  LIG1        0.0330
     18 C           5.4915    1.2172    1.1822 C.ar    1  LIG1       -0.0377
     19 C           3.3334    1.2620    0.0680 C.ar    1  LIG1       -0.0019
     20 C           6.1661    1.2153   -0.0404 C.ar    1  LIG1       -0.0126
     21 H           6.0644    1.2016    2.1036 H       1  LIG1        0.0636
     22 C           4.0230    1.2336   -1.1486 C.ar    1  LIG1       -0.0494
     23 C           5.4189    1.2110   -1.2386 C.ar    1  LIG1       -0.0421
     24 H           3.4410    1.2286   -2.0664 H       1  LIG1        0.0627
     25 C           3.4676    1.2122    2.5511 C.1     1  LIG1       -0.0690
     26 C           2.9731    1.1832    3.6557 C.1     1  LIG1       -0.1139
     27 H           2.5262    1.1476    4.6221 H       1  LIG1        0.1232
     28 C           6.0823    1.1669   -2.5934 C.3     1  LIG1       -0.0391
     29 H           5.3568    0.9228   -3.3738 H       1  LIG1        0.0278
     30 H           6.8822    0.4206   -2.6233 H       1  LIG1        0.0278
     31 H           6.5340    2.1332   -2.8419 H       1  LIG1        0.0278
     32 C           8.4601    2.2581   -0.4306 C.ar    1  LIG1        0.0330
     33 C           9.8594    2.1359   -0.3714 C.ar    1  LIG1       -0.0377
     34 C           7.6597    1.1641   -0.0287 C.ar    1  LIG1       -0.0019
     35 C          10.4855    0.9741    0.0836 C.ar    1  LIG1       -0.0126
     36 H          10.4674    2.9822   -0.6739 H       1  LIG1        0.0636
     37 C           8.3020    0.0052    0.4202 C.ar    1  LIG1       -0.0494
     38 C           9.6934   -0.1234    0.4861 C.ar    1  LIG1       -0.0421
     39 H           7.6853   -0.8385    0.7183 H       1  LIG1        0.0627
     40 C           7.8903    3.4945   -0.8684 C.1     1  LIG1       -0.0690
     41 C           7.4407    4.5544   -1.2425 C.1     1  LIG1       -0.1139
     42 H           7.0356    5.4875   -1.5590 H       1  LIG1        0.1232
     43 C          10.3073   -1.4173    0.9621 C.3     1  LIG1       -0.0391
     44 H          10.7478   -1.2994    1.9579 H       1  LIG1        0.0278
     45 H          11.1075   -1.7509    0.2940 H       1  LIG1        0.0278
     46 H           9.5549   -2.2082    1.0172 H       1  LIG1        0.0278
     47 C          12.7312    0.9460    1.2871 C.ar    1  LIG1        0.0324
     48 C          14.1372    0.9226    1.2129 C.ar    1  LIG1       -0.0455
     49 C          11.9801    0.9249    0.0879 C.ar    1  LIG1       -0.0020
     50 C          14.7885    0.8827   -0.0126 C.ar    1  LIG1       -0.0576
     51 H          14.7080    0.9460    2.1355 H       1  LIG1        0.0630
     52 C          12.6653    0.8943   -1.1331 C.ar    1  LIG1       -0.0499
     53 C          14.0616    0.8684   -1.2111 C.ar    1  LIG1       -0.0498
     54 H          12.0822    0.8851   -2.0502 H       1  LIG1        0.0627
     55 H          15.8750    0.8675   -0.0411 H       1  LIG1        0.0621
     56 C          12.1026    1.0206    2.5694 C.1     1  LIG1       -0.0691
     57 C          11.6028    1.0846    3.6701 C.1     1  LIG1       -0.1139
     58 H          11.1518    1.1519    4.6330 H       1  LIG1        0.1232
     59 C          14.7673    0.8102   -2.5442 C.3     1  LIG1       -0.0397
     60 H          15.2020   -0.1815   -2.7191 H       1  LIG1        0.0278
     61 H          15.5880    1.5335   -2.5929 H       1  LIG1        0.0278
     62 H          14.0820    1.0202   -3.3696 H       1  LIG1        0.0278
@<TRIPOS>BOND
     1    29    28    1
     2    62    59    1
     3    31    28    1
     4    60    59    1
     5    30    28    1
     6    28    23    1
     7    61    59    1
     8    59    53    1
     9    24    22    1
    10    54    52    1
    11    12    11    1
    12    42    41    1
    13    11    10    3
    14    41    40    3
    15    23    22   ar
    16    23    20   ar
    17    53    52   ar
    18    53    50   ar
    19    22    19   ar
    20    52    49   ar
    21    10     1    1
    22    40    32    1
    23     5     2    1
    24    36    33    1
    25     1     2   ar
    26     1     3   ar
    27    32    33   ar
    28    32    34   ar
    29     2     4   ar
    30    33    35   ar
    31     9     3    1
    32     3     6   ar
    33    55    50    1
    34    20    34    1
    35    20    18   ar
    36    34    37   ar
    37    50    48   ar
    38     4    19    1
    39     4     7   ar
    40    19    17   ar
    41    35    49    1
    42    35    38   ar
    43    49    47   ar
    44    15    13    1
    45    45    43    1
    46     6     7   ar
    47     6     8    1
    48    37    38   ar
    49    37    39    1
    50     7    13    1
    51    38    43    1
    52    13    14    1
    53    13    16    1
    54    43    46    1
    55    43    44    1
    56    18    17   ar
    57    18    21    1
    58    48    47   ar
    59    48    51    1
    60    17    25    1
    61    47    56    1
    62    25    26    3
    63    56    57    3
    64    26    27    1
    65    57    58    1
