@<TRIPOS>MOLECULE
mol_data/opt/b3lyp/geoms/mol2/4ei4ei-.out
 32 33 0 0 0
SMALL
GASTEIGER

@<TRIPOS>ATOM
      1 C          -0.0423    0.2246   -0.6164 C.ar    1  LIG1        0.0253
      2 C           1.3618    0.2769   -0.6562 C.ar    1  LIG1       -0.0383
      3 C          -0.7272    1.2010    0.1250 C.ar    1  LIG1       -0.0461
      4 C           2.0770    1.2741    0.0128 C.ar    1  LIG1       -0.0126
      5 H           1.9011   -0.4706   -1.2288 H       1  LIG1        0.0636
      6 C          -0.0155    2.1849    0.8024 C.ar    1  LIG1       -0.0571
      7 C           1.3834    2.2476    0.7671 C.ar    1  LIG1       -0.0426
      8 H          -0.5585    2.9249    1.3844 H       1  LIG1        0.0621
      9 H          -1.8110    1.1761    0.1699 H       1  LIG1        0.0630
     10 C          -0.7520   -0.8022   -1.3128 C.1     1  LIG1       -0.0696
     11 C          -1.3542   -1.6719   -1.9012 C.1     1  LIG1       -0.1139
     12 H          -1.8833   -2.4367   -2.4206 H       1  LIG1        0.1232
     13 C           2.1098    3.3243    1.5361 C.3     1  LIG1       -0.0391
     14 H           1.4331    3.8299    2.2302 H       1  LIG1        0.0278
     15 H           2.5260    4.0794    0.8606 H       1  LIG1        0.0278
     16 H           2.9449    2.9125    2.1114 H       1  LIG1        0.0278
     17 C           4.3138    2.2037   -0.7838 C.ar    1  LIG1        0.0324
     18 C           5.7169    2.1011   -0.8151 C.ar    1  LIG1       -0.0455
     19 C           3.5707    1.2415   -0.0573 C.ar    1  LIG1       -0.0020
     20 C           6.3748    1.0722   -0.1525 C.ar    1  LIG1       -0.0576
     21 H           6.2815    2.8417   -1.3723 H       1  LIG1        0.0630
     22 C           4.2609    0.2109    0.5911 C.ar    1  LIG1       -0.0499
     23 C           5.6562    0.1030    0.5589 C.ar    1  LIG1       -0.0498
     24 H           3.6837   -0.5244    1.1457 H       1  LIG1        0.0627
     25 H           7.4596    1.0189   -0.1901 H       1  LIG1        0.0621
     26 C           3.6760    3.2610   -1.5048 C.1     1  LIG1       -0.0691
     27 C           3.1680    4.1664   -2.1276 C.1     1  LIG1       -0.1139
     28 H           2.7076    4.9517   -2.6810 H       1  LIG1        0.1232
     29 C           6.3613   -1.0385    1.2507 C.3     1  LIG1       -0.0397
     30 H           7.3506   -0.7388    1.6093 H       1  LIG1        0.0278
     31 H           6.5062   -1.8846    0.5673 H       1  LIG1        0.0278
     32 H           5.7861   -1.4061    2.1052 H       1  LIG1        0.0278
@<TRIPOS>BOND
     1    28    27    1
     2    12    11    1
     3    27    26    3
     4    11    10    3
     5    26    17    1
     6    21    18    1
     7    10     1    1
     8     5     2    1
     9    18    17   ar
    10    18    20   ar
    11    17    19   ar
    12     2     1   ar
    13     2     4   ar
    14     1     3   ar
    15    25    20    1
    16    20    23   ar
    17    19     4    1
    18    19    22   ar
    19     4     7   ar
    20     3     9    1
    21     3     6   ar
    22    23    22   ar
    23    23    29    1
    24    31    29    1
    25    22    24    1
    26     7     6   ar
    27     7    13    1
    28     6     8    1
    29    15    13    1
    30    29    30    1
    31    29    32    1
    32    13    16    1
    33    13    14    1
