@<TRIPOS>MOLECULE
mol_data/opt/b3lyp/geoms/mol2/4ei4ei4ei4ei-.out
 62 65 0 0 0
SMALL
GASTEIGER

@<TRIPOS>ATOM
      1 C          -0.2023    0.7843   -1.2745 C.ar    1  LIG1        0.0253
      2 C           1.1992    0.7891   -1.1704 C.ar    1  LIG1       -0.0383
      3 C          -0.9607    1.0960   -0.1340 C.ar    1  LIG1       -0.0461
      4 C           1.8404    1.0990    0.0313 C.ar    1  LIG1       -0.0126
      5 H           1.7942    0.5485   -2.0451 H       1  LIG1        0.0636
      6 C          -0.3226    1.3952    1.0645 C.ar    1  LIG1       -0.0571
      7 C           1.0737    1.4040    1.1775 C.ar    1  LIG1       -0.0426
      8 H          -0.9222    1.6243    1.9416 H       1  LIG1        0.0621
      9 H          -2.0439    1.0964   -0.1959 H       1  LIG1        0.0630
     10 C          -0.8385    0.4697   -2.5154 C.1     1  LIG1       -0.0696
     11 C          -1.3789    0.2043   -3.5655 C.1     1  LIG1       -0.1139
     12 H          -1.8526   -0.0304   -4.4901 H       1  LIG1        0.1232
     13 C           1.7253    1.7149    2.5042 C.3     1  LIG1       -0.0391
     14 H           0.9763    1.7890    3.2970 H       1  LIG1        0.0278
     15 H           2.2775    2.6606    2.4760 H       1  LIG1        0.0278
     16 H           2.4455    0.9399    2.7854 H       1  LIG1        0.0278
     17 C           4.0922   -0.0780    0.0835 C.ar    1  LIG1        0.0330
     18 C           5.4957    0.0045    0.0993 C.ar    1  LIG1       -0.0377
     19 C           3.3359    1.1159    0.0698 C.ar    1  LIG1       -0.0019
     20 C           6.1647    1.2288    0.0964 C.ar    1  LIG1       -0.0126
     21 H           6.0701   -0.9156    0.1122 H       1  LIG1        0.0636
     22 C           4.0202    2.3351    0.0782 C.ar    1  LIG1       -0.0494
     23 C           5.4159    2.4257    0.0904 C.ar    1  LIG1       -0.0421
     24 H           3.4374    3.2525    0.0668 H       1  LIG1        0.0627
     25 C           3.4661   -1.3640    0.0903 C.1     1  LIG1       -0.0690
     26 C           2.9641   -2.4651    0.0998 C.1     1  LIG1       -0.1139
     27 H           2.5082   -3.4278    0.1041 H       1  LIG1        0.1232
     28 C           6.0842    3.7803    0.1148 C.3     1  LIG1       -0.0391
     29 H           5.3458    4.5754    0.2465 H       1  LIG1        0.0278
     30 H           6.6317    3.9824   -0.8122 H       1  LIG1        0.0278
     31 H           6.8117    3.8496    0.9300 H       1  LIG1        0.0278
     32 C           8.4200    0.8715    1.2121 C.ar    1  LIG1        0.0330
     33 C           9.8234    0.8818    1.1217 C.ar    1  LIG1       -0.0377
     34 C           7.6597    1.2416    0.0799 C.ar    1  LIG1       -0.0019
     35 C          10.4895    1.2532   -0.0474 C.ar    1  LIG1       -0.0126
     36 H          10.4019    0.6021    1.9960 H       1  LIG1        0.0636
     37 C           8.3411    1.5987   -1.0881 C.ar    1  LIG1       -0.0494
     38 C           9.7358    1.6141   -1.1863 C.ar    1  LIG1       -0.0421
     39 H           7.7547    1.8557   -1.9666 H       1  LIG1        0.0627
     40 C           7.8027    0.4974    2.4469 C.1     1  LIG1       -0.0690
     41 C           7.3121    0.1787    3.5063 C.1     1  LIG1       -0.1139
     42 H           6.8675   -0.1025    4.4326 H       1  LIG1        0.1232
     43 C          10.3937    1.9874   -2.4925 C.3     1  LIG1       -0.0391
     44 H           9.6594    2.0227   -3.3014 H       1  LIG1        0.0278
     45 H          11.1724    1.2695   -2.7688 H       1  LIG1        0.0278
     46 H          10.8715    2.9705   -2.4254 H       1  LIG1        0.0278
     47 C          12.7767    2.3785   -0.0988 C.ar    1  LIG1        0.0324
     48 C          14.1786    2.2556   -0.0845 C.ar    1  LIG1       -0.0455
     49 C          11.9840    1.2056   -0.0615 C.ar    1  LIG1       -0.0020
     50 C          14.7875    1.0080   -0.0317 C.ar    1  LIG1       -0.0576
     51 H          14.7813    3.1578   -0.1043 H       1  LIG1        0.0630
     52 C          12.6261   -0.0365    0.0015 C.ar    1  LIG1       -0.0499
     53 C          14.0200   -0.1630    0.0123 C.ar    1  LIG1       -0.0498
     54 H          12.0111   -0.9319    0.0377 H       1  LIG1        0.0627
     55 H          15.8722    0.9419   -0.0185 H       1  LIG1        0.0621
     56 C          12.1925    3.6836   -0.1176 C.1     1  LIG1       -0.0691
     57 C          11.7315    4.8029   -0.1329 C.1     1  LIG1       -0.1139
     58 H          11.3161    5.7839   -0.1356 H       1  LIG1        0.1232
     59 C          14.6745   -1.5228    0.0432 C.3     1  LIG1       -0.0397
     60 H          15.6205   -1.4988    0.5926 H       1  LIG1        0.0278
     61 H          14.8976   -1.8767   -0.9712 H       1  LIG1        0.0278
     62 H          14.0269   -2.2686    0.5127 H       1  LIG1        0.0278
@<TRIPOS>BOND
     1    12    11    1
     2    11    10    3
     3    44    43    1
     4    45    43    1
     5    10     1    1
     6    43    46    1
     7    43    38    1
     8     5     2    1
     9    39    37    1
    10     1     2   ar
    11     1     3   ar
    12    38    37   ar
    13    38    35   ar
    14     2     4   ar
    15    37    34   ar
    16    61    59    1
    17    30    28    1
    18     9     3    1
    19    58    57    1
    20     3     6   ar
    21    57    56    3
    22    56    47    1
    23    51    48    1
    24    47    48   ar
    25    47    49   ar
    26    48    50   ar
    27    49    35    1
    28    49    52   ar
    29    35    33   ar
    30    50    55    1
    31    50    53   ar
    32    52    53   ar
    33    52    54    1
    34    53    59    1
    35     4    19    1
    36     4     7   ar
    37    59    62    1
    38    59    60    1
    39    24    22    1
    40    19    22   ar
    41    19    17   ar
    42    22    23   ar
    43    34    20    1
    44    34    32   ar
    45    17    25    1
    46    17    18   ar
    47    25    26    3
    48    23    20   ar
    49    23    28    1
    50    20    18   ar
    51    18    21    1
    52    26    27    1
    53    28    29    1
    54    28    31    1
    55     6     7   ar
    56     6     8    1
    57    33    32   ar
    58    33    36    1
    59     7    13    1
    60    32    40    1
    61    40    41    3
    62    15    13    1
    63    13    16    1
    64    13    14    1
    65    41    42    1
