@<TRIPOS>MOLECULE
mol_data/opt/b3lyp/geoms/mol2/4ei4ei.out
 32 33 0 0 0
SMALL
GASTEIGER

@<TRIPOS>ATOM
      1 C           0.0285    0.3777   -1.0060 C.ar    1  LIG1        0.0253
      2 C           1.4303    0.4564   -0.9409 C.ar    1  LIG1       -0.0383
      3 C          -0.7248    1.0272   -0.0145 C.ar    1  LIG1       -0.0461
      4 C           2.0781    1.1531    0.0832 C.ar    1  LIG1       -0.0126
      5 H           2.0221   -0.0444   -1.7000 H       1  LIG1        0.0636
      6 C          -0.0811    1.7322    0.9964 C.ar    1  LIG1       -0.0571
      7 C           1.3152    1.8148    1.0720 C.ar    1  LIG1       -0.0426
      8 H          -0.6774    2.2424    1.7482 H       1  LIG1        0.0621
      9 H          -1.8082    0.9800   -0.0490 H       1  LIG1        0.0630
     10 C          -0.6113   -0.3445   -2.0606 C.1     1  LIG1       -0.0696
     11 C          -1.1543   -0.9549   -2.9538 C.1     1  LIG1       -0.1139
     12 H          -1.6314   -1.4935   -3.7392 H       1  LIG1        0.1232
     13 C           1.9648    2.6093    2.1788 C.3     1  LIG1       -0.0391
     14 H           1.2281    3.2301    2.6956 H       1  LIG1        0.0278
     15 H           2.7534    3.2633    1.7939 H       1  LIG1        0.0278
     16 H           2.4280    1.9486    2.9195 H       1  LIG1        0.0278
     17 C           4.3673    0.5217    1.0112 C.ar    1  LIG1        0.0324
     18 C           5.7693    0.6120    0.9214 C.ar    1  LIG1       -0.0455
     19 C           3.5726    1.2113    0.0641 C.ar    1  LIG1       -0.0020
     20 C           6.3759    1.3584   -0.0805 C.ar    1  LIG1       -0.0576
     21 H           6.3734    0.0817    1.6504 H       1  LIG1        0.0630
     22 C           4.2131    1.9472   -0.9401 C.ar    1  LIG1       -0.0499
     23 C           5.6062    2.0366   -1.0351 C.ar    1  LIG1       -0.0498
     24 H           3.5966    2.4728   -1.6646 H       1  LIG1        0.0627
     25 H           7.4605    1.4137   -0.1245 H       1  LIG1        0.0621
     26 C           3.7859   -0.2827    2.0407 C.1     1  LIG1       -0.0691
     27 C           3.3274   -0.9737    2.9227 C.1     1  LIG1       -0.1139
     28 H           2.9109   -1.5877    3.6871 H       1  LIG1        0.1232
     29 C           6.2614    2.8218   -2.1456 C.3     1  LIG1       -0.0397
     30 H           5.5710    3.5468   -2.5850 H       1  LIG1        0.0278
     31 H           6.5982    2.1586   -2.9521 H       1  LIG1        0.0278
     32 H           7.1414    3.3643   -1.7860 H       1  LIG1        0.0278
@<TRIPOS>BOND
     1    12    11    1
     2    11    10    3
     3    31    29    1
     4    30    29    1
     5    29    32    1
     6    29    23    1
     7    10     1    1
     8     5     2    1
     9    24    22    1
    10    23    22   ar
    11    23    20   ar
    12     1     2   ar
    13     1     3   ar
    14     2     4   ar
    15    22    19   ar
    16    25    20    1
    17    20    18   ar
    18     9     3    1
    19     3     6   ar
    20    19     4    1
    21    19    17   ar
    22     4     7   ar
    23    18    17   ar
    24    18    21    1
    25     6     7   ar
    26     6     8    1
    27    17    26    1
    28     7    13    1
    29    15    13    1
    30    26    27    3
    31    13    14    1
    32    13    16    1
    33    27    28    1
