@<TRIPOS>MOLECULE
mol_data/opt/b3lyp/geoms/mol2/4ei4ih12hh-12ie-.out
 55 58 0 0 0
SMALL
GASTEIGER

@<TRIPOS>ATOM
      1 C          -0.1564    0.3725   -1.0752 C.ar    1  LIG1        0.0253
      2 C           1.2465    0.4509   -1.0090 C.ar    1  LIG1       -0.0384
      3 C          -0.9109    0.9898   -0.0641 C.ar    1  LIG1       -0.0461
      4 C           1.8934    1.1220    0.0312 C.ar    1  LIG1       -0.0135
      5 H           1.8390   -0.0206   -1.7865 H       1  LIG1        0.0636
      6 C          -0.2682    1.6616    0.9705 C.ar    1  LIG1       -0.0571
      7 C           1.1282    1.7445    1.0430 C.ar    1  LIG1       -0.0427
      8 H          -0.8646    2.1384    1.7441 H       1  LIG1        0.0621
      9 H          -1.9942    0.9395   -0.0987 H       1  LIG1        0.0630
     10 C          -0.7964   -0.3196   -2.1499 C.1     1  LIG1       -0.0696
     11 C          -1.3389   -0.9057   -3.0596 C.1     1  LIG1       -0.1139
     12 H          -1.8162   -1.4212   -3.8602 H       1  LIG1        0.1232
     13 C           1.7913    2.4934    2.1741 C.3     1  LIG1       -0.0391
     14 H           1.0479    2.8905    2.8703 H       1  LIG1        0.0278
     15 H           2.3912    3.3300    1.8004 H       1  LIG1        0.0278
     16 H           2.4760    1.8502    2.7372 H       1  LIG1        0.0278
     17 C           4.1565    0.1987    0.7184 C.ar    1  LIG1       -0.0420
     18 C           5.5426    0.3118    0.6673 C.ar    1  LIG1       -0.0458
     19 C           3.3910    1.1770    0.0458 C.ar    1  LIG1       -0.0129
     20 C           6.2200    1.3441   -0.0150 C.ar    1  LIG1        0.0401
     21 H           6.1437   -0.4263    1.1883 H       1  LIG1        0.0628
     22 C           4.0376    2.2140   -0.6216 C.ar    1  LIG1       -0.0324
     23 C           5.4389    2.3396   -0.6682 C.ar    1  LIG1        0.0360
     24 H           3.4378    2.9675   -1.1270 H       1  LIG1        0.0642
     25 C           3.5072   -0.9455    1.4630 C.3     1  LIG1       -0.0391
     26 H           4.2638   -1.5895    1.9196 H       1  LIG1        0.0278
     27 H           2.8922   -1.5658    0.8011 H       1  LIG1        0.0278
     28 H           2.8446   -0.5940    2.2625 H       1  LIG1        0.0278
     29 N           5.9820    3.4375   -1.3112 N.pl3   1  LIG1       -0.3574
     30 H           6.9730    3.4433   -1.4923 H       1  LIG1        0.1423
     31 H           5.4041    3.8793   -2.0089 H       1  LIG1        0.1423
     32 C           7.6772    1.3227   -0.0375 C.ar    1  LIG1        0.1600
     33 C           8.6118    0.3345    0.2171 C.ar    1  LIG1        0.0928
     34 C           9.9041    0.9103   -0.0125 C.ar    1  LIG1        0.0957
     35 C           9.6987    2.2225   -0.3668 C.ar    1  LIG1        0.1932
     36 O           8.3440    2.4733   -0.3923 O.2     1  LIG1       -0.4478
     37 N           8.3869   -0.9904    0.6363 N.pl3   1  LIG1       -0.3536
     38 H           7.8332   -1.5435   -0.0091 H       1  LIG1        0.1425
     39 H           9.2456   -1.4714    0.8741 H       1  LIG1        0.1425
     40 N          11.1116    0.2095    0.1348 N.pl3   1  LIG1       -0.3535
     41 H          11.0879   -0.6833   -0.3506 H       1  LIG1        0.1425
     42 H          11.9053    0.7419   -0.2038 H       1  LIG1        0.1425
     43 C          10.5886    3.2996   -0.7091 C.ar    1  LIG1        0.1757
     44 C          11.8004    3.7129   -0.2140 C.ar    1  LIG1        0.0138
     45 C          12.1990    4.8364   -1.0380 C.ar    1  LIG1        0.0659
     46 C          11.1880    5.0251   -1.9427 C.ar    1  LIG1        0.1083
     47 O          10.2107    4.1051   -1.7685 O.2     1  LIG1       -0.4582
     48 H          11.0357    5.7516   -2.7253 H       1  LIG1        0.1042
     49 C          12.5472    3.1938    0.9757 C.3     1  LIG1       -0.0348
     50 H          12.8386    4.0193    1.6335 H       1  LIG1        0.0279
     51 H          13.4745    2.6827    0.6884 H       1  LIG1        0.0279
     52 H          11.9376    2.4949    1.5531 H       1  LIG1        0.0279
     53 C          13.3842    5.6050   -0.9056 C.1     1  LIG1       -0.0662
     54 C          14.4023    6.2460   -0.7737 C.1     1  LIG1       -0.1138
     55 H          15.2941    6.8180   -0.6641 H       1  LIG1        0.1232
@<TRIPOS>BOND
     1    12    11    1
     2    11    10    3
     3    48    46    1
     4    10     1    1
     5    31    29    1
     6    46    47   ar
     7    46    45   ar
     8     5     2    1
     9    47    43   ar
    10    30    29    1
    11    29    23    1
    12    24    22    1
    13     1     2   ar
    14     1     3   ar
    15    45    53    1
    16    45    44   ar
    17     2     4   ar
    18    53    54    3
    19    54    55    1
    20    43    35    1
    21    43    44   ar
    22    23    22   ar
    23    23    20   ar
    24    22    19   ar
    25    36    35   ar
    26    36    32   ar
    27    35    34   ar
    28    41    40    1
    29    44    49    1
    30    42    40    1
    31     9     3    1
    32     3     6   ar
    33    32    20    1
    34    32    33   ar
    35    20    18   ar
    36    34    40    1
    37    34    33   ar
    38    38    37    1
    39     4    19    1
    40     4     7   ar
    41    19    17   ar
    42    33    37    1
    43    37    39    1
    44    18    17   ar
    45    18    21    1
    46    51    49    1
    47    17    25    1
    48    27    25    1
    49     6     7   ar
    50     6     8    1
    51    49    52    1
    52    49    50    1
    53     7    13    1
    54    25    26    1
    55    25    28    1
    56    15    13    1
    57    13    16    1
    58    13    14    1
