@<TRIPOS>MOLECULE
mol_data/opt/b3lyp/geoms/mol2/4ei4ei4ei.out
 47 49 0 0 0
SMALL
GASTEIGER

@<TRIPOS>ATOM
      1 C          -0.1018    1.3300   -1.2265 C.ar    1  LIG1        0.0253
      2 C           1.3001    1.3584   -1.1315 C.ar    1  LIG1       -0.0383
      3 C          -0.8389    0.8911   -0.1145 C.ar    1  LIG1       -0.0461
      4 C           1.9642    0.9552    0.0306 C.ar    1  LIG1       -0.0126
      5 H           1.8797    1.6927   -1.9858 H       1  LIG1        0.0636
      6 C          -0.1796    0.5034    1.0465 C.ar    1  LIG1       -0.0571
      7 C           1.2173    0.5246    1.1505 C.ar    1  LIG1       -0.0426
      8 H          -0.7635    0.1803    1.9044 H       1  LIG1        0.0621
      9 H          -1.9223    0.8646   -0.1675 H       1  LIG1        0.0630
     10 C          -0.7582    1.7415   -2.4278 C.1     1  LIG1       -0.0696
     11 C          -1.3154    2.0906   -3.4441 C.1     1  LIG1       -0.1139
     12 H          -1.8049    2.3963   -4.3393 H       1  LIG1        0.1232
     13 C           1.8834    0.1097    2.4398 C.3     1  LIG1       -0.0391
     14 H           1.1527    0.0437    3.2503 H       1  LIG1        0.0278
     15 H           2.6619    0.8192    2.7368 H       1  LIG1        0.0278
     16 H           2.3635   -0.8694    2.3376 H       1  LIG1        0.0278
     17 C           4.2820   -0.1076    0.0560 C.ar    1  LIG1        0.0330
     18 C           5.6780    0.0573    0.0632 C.ar    1  LIG1       -0.0377
     19 C           3.4566    1.0403    0.0596 C.ar    1  LIG1       -0.0019
     20 C           6.2776    1.3181    0.0788 C.ar    1  LIG1       -0.0126
     21 H           6.3051   -0.8283    0.0598 H       1  LIG1        0.0636
     22 C           4.0723    2.2961    0.0493 C.ar    1  LIG1       -0.0494
     23 C           5.4605    2.4695    0.0602 C.ar    1  LIG1       -0.0421
     24 H           3.4365    3.1773    0.0323 H       1  LIG1        0.0627
     25 C           3.7399   -1.4303    0.0138 C.1     1  LIG1       -0.0690
     26 C           3.3127   -2.5623   -0.0247 C.1     1  LIG1       -0.1139
     27 H           2.9250   -3.5536   -0.0684 H       1  LIG1        0.1232
     28 C           6.0434    3.8615    0.0388 C.3     1  LIG1       -0.0391
     29 H           5.2795    4.5989   -0.2211 H       1  LIG1        0.0278
     30 H           6.8598    3.9432   -0.6854 H       1  LIG1        0.0278
     31 H           6.4538    4.1308    1.0180 H       1  LIG1        0.0278
     32 C           8.5152    1.8303    1.1853 C.ar    1  LIG1        0.0324
     33 C           9.9204    1.8638    1.1012 C.ar    1  LIG1       -0.0455
     34 C           7.7705    1.3976    0.0621 C.ar    1  LIG1       -0.0020
     35 C          10.5774    1.4758   -0.0588 C.ar    1  LIG1       -0.0576
     36 H          10.4863    2.1963    1.9654 H       1  LIG1        0.0630
     37 C           8.4616    1.0032   -1.0902 C.ar    1  LIG1       -0.0499
     38 C           9.8575    1.0322   -1.1767 C.ar    1  LIG1       -0.0498
     39 H           7.8831    0.6710   -1.9482 H       1  LIG1        0.0627
     40 H          11.6629    1.5146   -0.0976 H       1  LIG1        0.0621
     41 C           7.8822    2.2110    2.4097 C.1     1  LIG1       -0.0691
     42 C           7.3808    2.5387    3.4618 C.1     1  LIG1       -0.1139
     43 H           6.9293    2.8154    4.3862 H       1  LIG1        0.1232
     44 C          10.5701    0.5814   -2.4287 C.3     1  LIG1       -0.0397
     45 H           9.8881    0.5294   -3.2815 H       1  LIG1        0.0278
     46 H          11.0087   -0.4152   -2.2959 H       1  LIG1        0.0278
     47 H          11.3885    1.2605   -2.6891 H       1  LIG1        0.0278
@<TRIPOS>BOND
     1    12    11    1
     2    11    10    3
     3    45    44    1
     4    47    44    1
     5    44    46    1
     6    44    38    1
     7    10     1    1
     8     5     2    1
     9    39    37    1
    10     1     2   ar
    11     1     3   ar
    12    38    37   ar
    13    38    35   ar
    14     2     4   ar
    15    37    34   ar
    16    30    28    1
    17    29    28    1
    18     9     3    1
    19     3     6   ar
    20    40    35    1
    21    27    26    1
    22    35    33   ar
    23    26    25    3
    24    25    17    1
    25     4    19    1
    26     4     7   ar
    27    24    22    1
    28    28    23    1
    29    28    31    1
    30    22    19   ar
    31    22    23   ar
    32    17    19   ar
    33    17    18   ar
    34    21    18    1
    35    23    20   ar
    36    34    20    1
    37    34    32   ar
    38    18    20   ar
    39     6     7   ar
    40     6     8    1
    41    33    32   ar
    42    33    36    1
    43     7    13    1
    44    32    41    1
    45    16    13    1
    46    41    42    3
    47    13    15    1
    48    13    14    1
    49    42    43    1
