@<TRIPOS>MOLECULE
mol_data/opt/b3lyp/geoms/mol2/4ei4ei4ei-4ei.out
 62 65 0 0 0
SMALL
GASTEIGER

@<TRIPOS>ATOM
      1 C          -0.2268    1.4564   -1.2457 C.ar    1  LIG1        0.0253
      2 C           1.1752    1.3878   -1.1754 C.ar    1  LIG1       -0.0383
      3 C          -0.9659    1.2698   -0.0661 C.ar    1  LIG1       -0.0461
      4 C           1.8367    1.1323    0.0293 C.ar    1  LIG1       -0.0126
      5 H           1.7564    1.5273   -2.0810 H       1  LIG1        0.0636
      6 C          -0.3079    1.0293    1.1348 C.ar    1  LIG1       -0.0571
      7 C           1.0887    0.9553    1.2151 C.ar    1  LIG1       -0.0426
      8 H          -0.8922    0.9012    2.0423 H       1  LIG1        0.0621
      9 H          -2.0491    1.3221   -0.0997 H       1  LIG1        0.0630
     10 C          -0.8813    1.7137   -2.4902 C.1     1  LIG1       -0.0696
     11 C          -1.4370    1.9324   -3.5431 C.1     1  LIG1       -0.1139
     12 H          -1.9249    2.1232   -4.4704 H       1  LIG1        0.1232
     13 C           1.7545    0.7071    2.5468 C.3     1  LIG1       -0.0391
     14 H           1.0433    0.8374    3.3668 H       1  LIG1        0.0278
     15 H           2.5941    1.3899    2.7100 H       1  LIG1        0.0278
     16 H           2.1529   -0.3117    2.6040 H       1  LIG1        0.0278
     17 C           4.0681   -0.0915    0.1945 C.ar    1  LIG1        0.0330
     18 C           5.4722   -0.0376    0.1547 C.ar    1  LIG1       -0.0377
     19 C           3.3317    1.1030    0.0223 C.ar    1  LIG1       -0.0019
     20 C           6.1645    1.1555   -0.0616 C.ar    1  LIG1       -0.0126
     21 H           6.0311   -0.9592    0.2799 H       1  LIG1        0.0636
     22 C           4.0395    2.2910   -0.1883 C.ar    1  LIG1       -0.0494
     23 C           5.4364    2.3533   -0.2324 C.ar    1  LIG1       -0.0421
     24 H           3.4717    3.2096   -0.3096 H       1  LIG1        0.0627
     25 C           3.4268   -1.3559    0.3817 C.1     1  LIG1       -0.0690
     26 C           2.9141   -2.4409    0.5412 C.1     1  LIG1       -0.1139
     27 H           2.4513   -3.3920    0.6674 H       1  LIG1        0.1232
     28 C           6.1230    3.6811   -0.4409 C.3     1  LIG1       -0.0391
     29 H           5.4202    4.5078   -0.3084 H       1  LIG1        0.0278
     30 H           6.5425    3.7520   -1.4502 H       1  LIG1        0.0278
     31 H           6.9508    3.8182    0.2618 H       1  LIG1        0.0278
     32 C           8.4223    1.3122   -1.2353 C.ar    1  LIG1        0.0330
     33 C           9.8243    1.2491   -1.1535 C.ar    1  LIG1       -0.0377
     34 C           7.6589    1.1220   -0.0607 C.ar    1  LIG1       -0.0019
     35 C          10.4880    0.9917    0.0476 C.ar    1  LIG1       -0.0126
     36 H          10.4037    1.3894   -2.0601 H       1  LIG1        0.0636
     37 C           8.3383    0.8679    1.1354 C.ar    1  LIG1       -0.0494
     38 C           9.7327    0.7991    1.2249 C.ar    1  LIG1       -0.0421
     39 H           7.7501    0.7317    2.0389 H       1  LIG1        0.0627
     40 C           7.8107    1.5407   -2.5075 C.1     1  LIG1       -0.0690
     41 C           7.3234    1.7345   -3.5986 C.1     1  LIG1       -0.1139
     42 H           6.8832    1.8912   -4.5560 H       1  LIG1        0.1232
     43 C          10.3883    0.5401    2.5595 C.3     1  LIG1       -0.0391
     44 H          11.2212    1.2274    2.7374 H       1  LIG1        0.0278
     45 H          10.7944   -0.4760    2.6063 H       1  LIG1        0.0278
     46 H           9.6694    0.6541    3.3750 H       1  LIG1        0.0278
     47 C          12.7235   -0.2222    0.2068 C.ar    1  LIG1        0.0324
     48 C          14.1294   -0.1631    0.1808 C.ar    1  LIG1       -0.0455
     49 C          11.9833    0.9740    0.0465 C.ar    1  LIG1       -0.0020
     50 C          14.7920    1.0439   -0.0033 C.ar    1  LIG1       -0.0576
     51 H          14.6923   -1.0826    0.3045 H       1  LIG1        0.0630
     52 C          12.6785    2.1733   -0.1473 C.ar    1  LIG1       -0.0499
     53 C          14.0764    2.2358   -0.1766 C.ar    1  LIG1       -0.0498
     54 H          12.1031    3.0870   -0.2708 H       1  LIG1        0.0627
     55 H          15.8786    1.0614   -0.0152 H       1  LIG1        0.0621
     56 C          12.0813   -1.4892    0.3711 C.1     1  LIG1       -0.0691
     57 C          11.5694   -2.5774    0.5101 C.1     1  LIG1       -0.1139
     58 H          11.1072   -3.5310    0.6202 H       1  LIG1        0.1232
     59 C          14.7902    3.5450   -0.4115 C.3     1  LIG1       -0.0397
     60 H          14.1732    4.3971   -0.1129 H       1  LIG1        0.0278
     61 H          15.0359    3.6754   -1.4729 H       1  LIG1        0.0278
     62 H          15.7304    3.5931    0.1461 H       1  LIG1        0.0278
@<TRIPOS>BOND
     1    42    41    1
     2    12    11    1
     3    41    40    3
     4    11    10    3
     5    40    32    1
     6    10     1    1
     7     5     2    1
     8    36    33    1
     9    61    59    1
    10    30    28    1
    11     1     2   ar
    12     1     3   ar
    13    32    33   ar
    14    32    34   ar
    15     2     4   ar
    16    33    35   ar
    17    28    29    1
    18    28    23    1
    19    28    31    1
    20    59    53    1
    21    59    60    1
    22    59    62    1
    23    24    22    1
    24    54    52    1
    25    23    22   ar
    26    23    20   ar
    27    22    19   ar
    28    53    52   ar
    29    53    50   ar
    30    52    49   ar
    31     9     3    1
    32     3     6   ar
    33    20    34    1
    34    20    18   ar
    35    34    37   ar
    36    55    50    1
    37    50    48   ar
    38    19     4    1
    39    19    17   ar
    40     4     7   ar
    41    49    35    1
    42    49    47   ar
    43    35    38   ar
    44    18    17   ar
    45    18    21    1
    46    48    47   ar
    47    48    51    1
    48    17    25    1
    49    47    56    1
    50    56    57    3
    51    25    26    3
    52    57    58    1
    53    26    27    1
    54     6     7   ar
    55     6     8    1
    56    37    38   ar
    57    37    39    1
    58     7    13    1
    59    38    43    1
    60    13    16    1
    61    13    15    1
    62    13    14    1
    63    43    45    1
    64    43    44    1
    65    43    46    1
