@<TRIPOS>MOLECULE
mol_data/opt/b3lyp/geoms/mol2/4ei4ei-4ei-4ei-.out
 62 65 0 0 0
SMALL
GASTEIGER

@<TRIPOS>ATOM
      1 C          -0.2826    0.3778    0.4745 C.ar    1  LIG1        0.0253
      2 C           1.1225    0.3660    0.4458 C.ar    1  LIG1       -0.0383
      3 C          -0.9547    1.4598   -0.1171 C.ar    1  LIG1       -0.0461
      4 C           1.8518    1.3932   -0.1600 C.ar    1  LIG1       -0.0126
      5 H           1.6520   -0.4665    0.8974 H       1  LIG1        0.0636
      6 C          -0.2295    2.4886   -0.7077 C.ar    1  LIG1       -0.0571
      7 C           1.1709    2.4846   -0.7451 C.ar    1  LIG1       -0.0426
      8 H          -0.7626    3.3268   -1.1487 H       1  LIG1        0.0621
      9 H          -2.0392    1.4885   -0.1025 H       1  LIG1        0.0630
     10 C          -1.0066   -0.6871    1.0950 C.1     1  LIG1       -0.0696
     11 C          -1.6209   -1.5878    1.6210 C.1     1  LIG1       -0.1139
     12 H          -2.1606   -2.3816    2.0827 H       1  LIG1        0.1232
     13 C           1.9111    3.6339   -1.3848 C.3     1  LIG1       -0.0391
     14 H           1.2402    4.4797   -1.5576 H       1  LIG1        0.0278
     15 H           2.3379    3.3392   -2.3496 H       1  LIG1        0.0278
     16 H           2.7406    3.9764   -0.7585 H       1  LIG1        0.0278
     17 C           4.1209    1.0608   -1.2759 C.ar    1  LIG1        0.0330
     18 C           5.5187    0.9801   -1.1517 C.ar    1  LIG1       -0.0377
     19 C           3.3447    1.3179   -0.1225 C.ar    1  LIG1       -0.0019
     20 C           6.1677    1.1500    0.0729 C.ar    1  LIG1       -0.0126
     21 H           6.1080    0.7812   -2.0409 H       1  LIG1        0.0636
     22 C           4.0076    1.4620    1.1007 C.ar    1  LIG1       -0.0494
     23 C           5.3983    1.3865    1.2331 C.ar    1  LIG1       -0.0421
     24 H           3.4078    1.6405    1.9892 H       1  LIG1        0.0627
     25 C           3.5249    0.8495   -2.5586 C.1     1  LIG1       -0.0690
     26 C           3.0511    0.6637   -3.6570 C.1     1  LIG1       -0.1139
     27 H           2.6217    0.4916   -4.6166 H       1  LIG1        0.1232
     28 C           6.0332    1.5417    2.5934 C.3     1  LIG1       -0.0391
     29 H           6.5206    2.5177    2.6907 H       1  LIG1        0.0278
     30 H           6.8009    0.7813    2.7658 H       1  LIG1        0.0278
     31 H           5.2833    1.4586    3.3845 H       1  LIG1        0.0278
     32 C           8.5094    2.1221    0.3450 C.ar    1  LIG1        0.0330
     33 C           9.9002    1.9176    0.3488 C.ar    1  LIG1       -0.0377
     34 C           7.6559    1.0188    0.1148 C.ar    1  LIG1       -0.0019
     35 C          10.4674    0.6595    0.1367 C.ar    1  LIG1       -0.0126
     36 H          10.5493    2.7690    0.5257 H       1  LIG1        0.0636
     37 C           8.2399   -0.2303   -0.1205 C.ar    1  LIG1       -0.0494
     38 C           9.6225   -0.4433   -0.1152 C.ar    1  LIG1       -0.0421
     39 H           7.5829   -1.0737   -0.3154 H       1  LIG1        0.0627
     40 C           8.0018    3.4443    0.5424 C.1     1  LIG1       -0.0690
     41 C           7.6043    4.5756    0.7094 C.1     1  LIG1       -0.1139
     42 H           7.2452    5.5690    0.8474 H       1  LIG1        0.1232
     43 C          10.1706   -1.8228   -0.3885 C.3     1  LIG1       -0.0391
     44 H          10.5679   -2.2762    0.5258 H       1  LIG1        0.0278
     45 H          10.9892   -1.7924   -1.1143 H       1  LIG1        0.0278
     46 H           9.3903   -2.4806   -0.7799 H       1  LIG1        0.0278
     47 C          12.6667   -0.1142    1.1666 C.ar    1  LIG1        0.0324
     48 C          14.0721   -0.1702    1.1022 C.ar    1  LIG1       -0.0455
     49 C          11.9580    0.5419    0.1318 C.ar    1  LIG1       -0.0020
     50 C          14.7641    0.4101    0.0474 C.ar    1  LIG1       -0.0576
     51 H          14.6104   -0.6743    1.8982 H       1  LIG1        0.0630
     52 C          12.6838    1.1254   -0.9139 C.ar    1  LIG1       -0.0499
     53 C          14.0802    1.0745   -0.9800 C.ar    1  LIG1       -0.0498
     54 H          12.1327    1.6283   -1.7042 H       1  LIG1        0.0627
     55 H          15.8490    0.3494    0.0211 H       1  LIG1        0.0621
     56 C          11.9968   -0.7000    2.2858 C.1     1  LIG1       -0.0691
     57 C          11.4621   -1.2047    3.2476 C.1     1  LIG1       -0.1139
     58 H          10.9822   -1.6373    4.0947 H       1  LIG1        0.1232
     59 C          14.8311    1.7319   -2.1125 C.3     1  LIG1       -0.0397
     60 H          15.6472    1.0970   -2.4723 H       1  LIG1        0.0278
     61 H          15.2787    2.6804   -1.7911 H       1  LIG1        0.0278
     62 H          14.1723    1.9494   -2.9575 H       1  LIG1        0.0278
@<TRIPOS>BOND
     1    27    26    1
     2    26    25    3
     3    62    59    1
     4    25    17    1
     5    60    59    1
     6    15    13    1
     7    59    61    1
     8    59    53    1
     9    21    18    1
    10    54    52    1
    11    14    13    1
    12    13    16    1
    13    13     7    1
    14    17    18   ar
    15    17    19   ar
    16    18    20   ar
    17     8     6    1
    18    45    43    1
    19    53    52   ar
    20    53    50   ar
    21    52    49   ar
    22    46    43    1
    23     7     6   ar
    24     7     4   ar
    25     6     3   ar
    26    43    38    1
    27    43    44    1
    28    39    37    1
    29     4    19    1
    30     4     2   ar
    31    19    22   ar
    32    37    38   ar
    33    37    34   ar
    34     3     9    1
    35     3     1   ar
    36    38    35   ar
    37    55    50    1
    38    50    48   ar
    39    20    34    1
    40    20    23   ar
    41    34    32   ar
    42    49    35    1
    43    49    47   ar
    44    35    33   ar
    45    32    33   ar
    46    32    40    1
    47    33    36    1
    48     2     1   ar
    49     2     5    1
    50     1    10    1
    51    40    41    3
    52    41    42    1
    53    10    11    3
    54    22    23   ar
    55    22    24    1
    56    48    47   ar
    57    48    51    1
    58    47    56    1
    59    23    28    1
    60    11    12    1
    61    56    57    3
    62    28    29    1
    63    28    30    1
    64    28    31    1
    65    57    58    1
