@<TRIPOS>MOLECULE
mol_data/opt/b3lyp/geoms/mol2/4ei4ei-4ei4ei.out
 62 65 0 0 0
SMALL
GASTEIGER

@<TRIPOS>ATOM
      1 C          -0.2362    0.3150   -0.9883 C.ar    1  LIG1        0.0253
      2 C           1.1674    0.3556   -0.9273 C.ar    1  LIG1       -0.0383
      3 C          -0.9677    1.1548   -0.1328 C.ar    1  LIG1       -0.0461
      4 C           1.8383    1.2109   -0.0484 C.ar    1  LIG1       -0.0126
      5 H           1.7427   -0.2865   -1.5862 H       1  LIG1        0.0636
      6 C          -0.3011    1.9955    0.7515 C.ar    1  LIG1       -0.0571
      7 C           1.0972    2.0459    0.8180 C.ar    1  LIG1       -0.0426
      8 H          -0.8802    2.6288    1.4185 H       1  LIG1        0.0621
      9 H          -2.0522    1.1359   -0.1631 H       1  LIG1        0.0630
     10 C          -0.8997   -0.5642   -1.8994 C.1     1  LIG1       -0.0696
     11 C          -1.4626   -1.3091   -2.6697 C.1     1  LIG1       -0.1139
     12 H          -1.9571   -1.9637   -3.3491 H       1  LIG1        0.1232
     13 C           1.7711    2.9639    1.8088 C.3     1  LIG1       -0.0391
     14 H           1.0512    3.3406    2.5404 H       1  LIG1        0.0278
     15 H           2.2219    3.8255    1.3046 H       1  LIG1        0.0278
     16 H           2.5728    2.4521    2.3501 H       1  LIG1        0.0278
     17 C           4.1267    2.2331   -0.5215 C.ar    1  LIG1        0.0330
     18 C           5.5265    2.1097   -0.4857 C.ar    1  LIG1       -0.0377
     19 C           3.3330    1.1722   -0.0281 C.ar    1  LIG1       -0.0019
     20 C           6.1603    0.9683    0.0096 C.ar    1  LIG1       -0.0126
     21 H           6.1292    2.9243   -0.8738 H       1  LIG1        0.0636
     22 C           3.9824    0.0378    0.4699 C.ar    1  LIG1       -0.0494
     23 C           5.3747   -0.0949    0.5064 C.ar    1  LIG1       -0.0421
     24 H           3.3709   -0.7718    0.8590 H       1  LIG1        0.0627
     25 C           3.5484    3.4153   -1.0809 C.1     1  LIG1       -0.0690
     26 C           3.0898    4.4276   -1.5609 C.1     1  LIG1       -0.1139
     27 H           2.6745    5.3081   -1.9934 H       1  LIG1        0.1232
     28 C           5.9948   -1.3436    1.0842 C.3     1  LIG1       -0.0391
     29 H           6.8126   -1.1044    1.7711 H       1  LIG1        0.0278
     30 H           6.4139   -1.9754    0.2940 H       1  LIG1        0.0278
     31 H           5.2506   -1.9315    1.6277 H       1  LIG1        0.0278
     32 C           8.4084    0.0919   -0.8150 C.ar    1  LIG1        0.0330
     33 C           9.8117    0.1382   -0.7481 C.ar    1  LIG1       -0.0377
     34 C           7.6544    0.9365    0.0321 C.ar    1  LIG1       -0.0019
     35 C          10.4871    0.9887    0.1294 C.ar    1  LIG1       -0.0126
     36 H          10.3837   -0.5123   -1.4016 H       1  LIG1        0.0636
     37 C           8.3457    1.8005    0.8877 C.ar    1  LIG1       -0.0494
     38 C           9.7418    1.8517    0.9621 C.ar    1  LIG1       -0.0421
     39 H           7.7650    2.4632    1.5238 H       1  LIG1        0.0627
     40 C           7.7880   -0.7827   -1.7611 C.1     1  LIG1       -0.0690
     41 C           7.2939   -1.5307   -2.5746 C.1     1  LIG1       -0.1139
     42 H           6.8482   -2.1782   -3.2937 H       1  LIG1        0.1232
     43 C          10.4077    2.8240    1.9049 C.3     1  LIG1       -0.0391
     44 H           9.6899    3.5614    2.2736 H       1  LIG1        0.0278
     45 H          11.2279    3.3585    1.4156 H       1  LIG1        0.0278
     46 H          10.8331    2.3043    2.7700 H       1  LIG1        0.0278
     47 C          12.7508    0.4733    1.1816 C.ar    1  LIG1        0.0324
     48 C          14.1555    0.4928    1.0850 C.ar    1  LIG1       -0.0455
     49 C          11.9821    0.9891    0.1110 C.ar    1  LIG1       -0.0020
     50 C          14.7886    1.0025   -0.0406 C.ar    1  LIG1       -0.0576
     51 H          14.7399    0.0956    1.9086 H       1  LIG1        0.0630
     52 C          12.6490    1.4872   -1.0154 C.ar    1  LIG1       -0.0499
     53 C          14.0440    1.5056   -1.1165 C.ar    1  LIG1       -0.0498
     54 H          12.0520    1.8798   -1.8343 H       1  LIG1        0.0627
     55 H          15.8746    1.0078   -0.0875 H       1  LIG1        0.0621
     56 C          12.1414   -0.0898    2.3462 C.1     1  LIG1       -0.0691
     57 C          11.6601   -0.5756    3.3452 C.1     1  LIG1       -0.1139
     58 H          11.2262   -1.0104    4.2156 H       1  LIG1        0.1232
     59 C          14.7293    2.0350   -2.3528 C.3     1  LIG1       -0.0397
     60 H          14.0364    2.5946   -2.9866 H       1  LIG1        0.0278
     61 H          15.1423    1.2173   -2.9560 H       1  LIG1        0.0278
     62 H          15.5630    2.6965   -2.0951 H       1  LIG1        0.0278
@<TRIPOS>BOND
     1    12    11    1
     2    42    41    1
     3    60    59    1
     4    61    59    1
     5    11    10    3
     6    41    40    3
     7    59    62    1
     8    59    53    1
     9    27    26    1
    10    10     1    1
    11    54    52    1
    12    40    32    1
    13     5     2    1
    14    26    25    3
    15    36    33    1
    16    53    52   ar
    17    53    50   ar
    18    25    17    1
    19    52    49   ar
    20     1     2   ar
    21     1     3   ar
    22     2     4   ar
    23    21    18    1
    24    32    33   ar
    25    32    34   ar
    26    33    35   ar
    27    17    18   ar
    28    17    19   ar
    29    18    20   ar
    30     9     3    1
    31     3     6   ar
    32    55    50    1
    33     4    19    1
    34     4     7   ar
    35    50    48   ar
    36    19    22   ar
    37    20    34    1
    38    20    23   ar
    39    34    37   ar
    40    49    35    1
    41    49    47   ar
    42    35    38   ar
    43    30    28    1
    44    22    23   ar
    45    22    24    1
    46    23    28    1
    47     6     7   ar
    48     6     8    1
    49     7    13    1
    50    37    38   ar
    51    37    39    1
    52    38    43    1
    53    28    31    1
    54    28    29    1
    55    48    47   ar
    56    48    51    1
    57    47    56    1
    58    15    13    1
    59    45    43    1
    60    13    16    1
    61    13    14    1
    62    43    44    1
    63    43    46    1
    64    56    57    3
    65    57    58    1
