@<TRIPOS>MOLECULE
mol_data/opt/b3lyp/geoms/mol2/4ei4ei4ei4ei.out
 62 65 0 0 0
SMALL
GASTEIGER

@<TRIPOS>ATOM
      1 C          -0.2467    2.0871   -0.4487 C.ar    1  LIG1        0.0253
      2 C           1.1577    2.0453   -0.4115 C.ar    1  LIG1       -0.0383
      3 C          -0.9595    0.9229   -0.1188 C.ar    1  LIG1       -0.0461
      4 C           1.8472    0.8797   -0.0653 C.ar    1  LIG1       -0.0126
      5 H           1.7185    2.9383   -0.6671 H       1  LIG1        0.0636
      6 C          -0.2744   -0.2329    0.2388 C.ar    1  LIG1       -0.0571
      7 C           1.1250   -0.2863    0.2753 C.ar    1  LIG1       -0.0426
      8 H          -0.8394   -1.1221    0.5058 H       1  LIG1        0.0621
      9 H          -2.0443    0.9360   -0.1388 H       1  LIG1        0.0630
     10 C          -0.9295    3.2894   -0.8113 C.1     1  LIG1       -0.0696
     11 C          -1.5089    4.3072   -1.1173 C.1     1  LIG1       -0.1139
     12 H          -2.0179    5.2028   -1.3882 H       1  LIG1        0.1232
     13 C           1.8203   -1.5616    0.6859 C.3     1  LIG1       -0.0391
     14 H           1.1124   -2.2615    1.1379 H       1  LIG1        0.0278
     15 H           2.6204   -1.3690    1.4073 H       1  LIG1        0.0278
     16 H           2.2786   -2.0557   -0.1776 H       1  LIG1        0.0278
     17 C           4.1491    0.2643   -0.9750 C.ar    1  LIG1        0.0330
     18 C           5.5467    0.3803   -0.8807 C.ar    1  LIG1       -0.0377
     19 C           3.3412    0.9278   -0.0232 C.ar    1  LIG1       -0.0019
     20 C           6.1650    1.1258    0.1251 C.ar    1  LIG1       -0.0126
     21 H           6.1605   -0.1306   -1.6153 H       1  LIG1        0.0636
     22 C           3.9745    1.6900    0.9639 C.ar    1  LIG1       -0.0494
     23 C           5.3648    1.8084    1.0673 C.ar    1  LIG1       -0.0421
     24 H           3.3513    2.2148    1.6830 H       1  LIG1        0.0627
     25 C           3.5867   -0.4949   -2.0485 C.1     1  LIG1       -0.0690
     26 C           3.1417   -1.1425   -2.9695 C.1     1  LIG1       -0.1139
     27 H           2.7381   -1.7011   -3.7818 H       1  LIG1        0.1232
     28 C           5.9672    2.6618    2.1564 C.3     1  LIG1       -0.0391
     29 H           5.2085    3.3029    2.6129 H       1  LIG1        0.0278
     30 H           6.7680    3.2989    1.7688 H       1  LIG1        0.0278
     31 H           6.4046    2.0409    2.9457 H       1  LIG1        0.0278
     32 C           8.4519    0.5944    1.1202 C.ar    1  LIG1        0.0330
     33 C           9.8507    0.7106    1.0418 C.ar    1  LIG1       -0.0377
     34 C           7.6568    1.2161    0.1302 C.ar    1  LIG1       -0.0019
     35 C          10.4816    1.4233    0.0203 C.ar    1  LIG1       -0.0126
     36 H          10.4548    0.2306    1.8048 H       1  LIG1        0.0636
     37 C           8.3045    1.9055   -0.9003 C.ar    1  LIG1       -0.0494
     38 C           9.6954    2.0288   -0.9842 C.ar    1  LIG1       -0.0421
     39 H           7.6924    2.3672   -1.6705 H       1  LIG1        0.0627
     40 C           7.8778   -0.1750    2.1801 C.1     1  LIG1       -0.0690
     41 C           7.4235   -0.8354    3.0873 C.1     1  LIG1       -0.1139
     42 H           7.0146   -1.4214    3.8774 H       1  LIG1        0.1232
     43 C          10.3140    2.7827   -2.1361 C.3     1  LIG1       -0.0391
     44 H           9.5740    2.9746   -2.9173 H       1  LIG1        0.0278
     45 H          11.1446    2.2252   -2.5802 H       1  LIG1        0.0278
     46 H          10.7141    3.7470   -1.8052 H       1  LIG1        0.0278
     47 C          12.6968    2.6552    0.2873 C.ar    1  LIG1        0.0324
     48 C          14.1042    2.6189    0.2683 C.ar    1  LIG1       -0.0455
     49 C          11.9759    1.4708    0.0027 C.ar    1  LIG1       -0.0020
     50 C          14.7861    1.4438   -0.0187 C.ar    1  LIG1       -0.0576
     51 H          14.6519    3.5297    0.4873 H       1  LIG1        0.0630
     52 C          12.6913    0.2993   -0.2741 C.ar    1  LIG1       -0.0499
     53 C          14.0896    0.2584   -0.2909 C.ar    1  LIG1       -0.0498
     54 H          12.1308   -0.6063   -0.4906 H       1  LIG1        0.0627
     55 H          15.8730    1.4448   -0.0295 H       1  LIG1        0.0621
     56 C          12.0360    3.8799    0.6162 C.1     1  LIG1       -0.0691
     57 C          11.5091    4.9323    0.9000 C.1     1  LIG1       -0.1139
     58 H          11.0356    5.8511    1.1581 H       1  LIG1        0.1232
     59 C          14.8279   -1.0274   -0.5737 C.3     1  LIG1       -0.0397
     60 H          14.1758   -1.7696   -1.0419 H       1  LIG1        0.0278
     61 H          15.2192   -1.4694    0.3509 H       1  LIG1        0.0278
     62 H          15.6829   -0.8595   -1.2366 H       1  LIG1        0.0278
@<TRIPOS>BOND
     1    27    26    1
     2    26    25    3
     3    44    43    1
     4    45    43    1
     5    43    46    1
     6    43    38    1
     7    25    17    1
     8    39    37    1
     9    21    18    1
    10    12    11    1
    11    62    59    1
    12    11    10    3
    13    60    59    1
    14    38    37   ar
    15    38    35   ar
    16    17    18   ar
    17    17    19   ar
    18    37    34   ar
    19    18    20   ar
    20    10     1    1
    21     5     2    1
    22    59    53    1
    23    59    61    1
    24    54    52    1
    25     1     2   ar
    26     1     3   ar
    27     2     4   ar
    28    53    52   ar
    29    53    50   ar
    30    52    49   ar
    31    16    13    1
    32     9     3    1
    33     3     6   ar
    34     4    19    1
    35     4     7   ar
    36    55    50    1
    37    19    22   ar
    38    50    48   ar
    39    49    35    1
    40    49    47   ar
    41    35    33   ar
    42    20    34    1
    43    20    23   ar
    44    34    32   ar
    45     6     7   ar
    46     6     8    1
    47    48    47   ar
    48    48    51    1
    49     7    13    1
    50    47    56    1
    51    56    57    3
    52    13    14    1
    53    13    15    1
    54    57    58    1
    55    22    23   ar
    56    22    24    1
    57    33    32   ar
    58    33    36    1
    59    23    28    1
    60    32    40    1
    61    30    28    1
    62    28    29    1
    63    28    31    1
    64    40    41    3
    65    41    42    1
