@<TRIPOS>MOLECULE
mol_data/opt/b3lyp/geoms/mol2/4el.out
 18 18 0 0 0
SMALL
GASTEIGER

@<TRIPOS>ATOM
      1 C           0.0504   -0.0370    0.0003 C.ar    1  LIG1        0.0249
      2 C           1.4532   -0.0896    0.0000 C.ar    1  LIG1       -0.0429
      3 C          -0.5705    1.2299    0.0002 C.ar    1  LIG1       -0.0429
      4 C           2.2207    1.0738   -0.0004 C.ar    1  LIG1       -0.0188
      5 H           1.9463   -1.0561    0.0001 H       1  LIG1        0.0631
      6 C           0.1850    2.3910   -0.0002 C.ar    1  LIG1       -0.0188
      7 C           1.5873    2.3232   -0.0006 C.ar    1  LIG1        0.1202
      8 H          -0.2855    3.3685   -0.0003 H       1  LIG1        0.0654
      9 H           3.3012    0.9954   -0.0007 H       1  LIG1        0.0654
     10 H          -1.6540    1.2886    0.0005 H       1  LIG1        0.0631
     11 C          -0.7289   -1.2345    0.0008 C.1     1  LIG1       -0.0697
     12 C          -1.3906   -2.2483    0.0012 C.1     1  LIG1       -0.1139
     13 H          -1.9725   -3.1404    0.0015 H       1  LIG1        0.1232
     14 O           2.2361    3.5214   -0.0010 O.3     1  LIG1       -0.4951
     15 C           3.6559    3.5194   -0.0014 C.3     1  LIG1        0.0788
     16 H           3.9576    4.5676   -0.0017 H       1  LIG1        0.0660
     17 H           4.0599    3.0277    0.8925 H       1  LIG1        0.0660
     18 H           4.0594    3.0273   -0.8953 H       1  LIG1        0.0660
@<TRIPOS>BOND
     1    18    15    1
     2    16    15    1
     3    15    14    1
     4    15    17    1
     5    14     7    1
     6     9     4    1
     7     7     4   ar
     8     7     6   ar
     9     4     2   ar
    10     8     6    1
    11     6     3   ar
    12     2     5    1
    13     2     1   ar
    14     3     1   ar
    15     3    10    1
    16     1    11    1
    17    11    12    3
    18    12    13    1
