@<TRIPOS>MOLECULE
mol_data/opt/b3lyp/geoms/mol2/4el13af-4ae6dd-.out
 50 53 0 0 0
SMALL
GASTEIGER

@<TRIPOS>ATOM
      1 C          -1.2382    0.8494   -0.0161 C.ar    1  LIG1        0.0255
      2 C           0.1093    0.4620   -0.0194 C.ar    1  LIG1       -0.0337
      3 C          -1.5435    2.2190   -0.0548 C.ar    1  LIG1       -0.0428
      4 C           1.1645    1.3849   -0.0605 C.ar    1  LIG1        0.0412
      5 H           0.3376   -0.5963    0.0130 H       1  LIG1        0.0637
      6 C          -0.5214    3.1610   -0.0960 C.ar    1  LIG1       -0.0181
      7 C           0.8183    2.7627   -0.0993 C.ar    1  LIG1        0.1292
      8 H          -0.7775    4.2123   -0.1262 H       1  LIG1        0.0655
      9 H          -2.5790    2.5408   -0.0523 H       1  LIG1        0.0631
     10 C          -2.2754   -0.1330    0.0270 C.1     1  LIG1       -0.0696
     11 C          -3.1554   -0.9629    0.0634 C.1     1  LIG1       -0.1139
     12 H          -3.9289   -1.6948    0.0950 H       1  LIG1        0.1232
     13 O           1.8530    3.6645   -0.1413 O.3     1  LIG1       -0.4945
     14 C           1.5587    5.0562   -0.2154 C.3     1  LIG1        0.0788
     15 H           2.5230    5.5637   -0.2558 H       1  LIG1        0.0660
     16 H           0.9859    5.2949   -1.1186 H       1  LIG1        0.0660
     17 H           1.0072    5.3948    0.6690 H       1  LIG1        0.0660
     18 C           2.5408    0.8859   -0.0659 C.ar    1  LIG1        0.0540
     19 C           3.0030   -0.4341   -0.0906 C.ar    1  LIG1        0.0059
     20 C           4.4070   -0.3861   -0.1232 C.ar    1  LIG1        0.1426
     21 C           4.8097    0.9556   -0.1161 C.ar    1  LIG1        0.0890
     22 N           3.6455    1.6983   -0.0521 N.ar    1  LIG1       -0.3511
     23 H           3.5732    2.6993   -0.1470 H       1  LIG1        0.1660
     24 H           2.4122   -1.3366   -0.0754 H       1  LIG1        0.0675
     25 O           5.2002   -1.4991   -0.1308 O.3     1  LIG1       -0.5046
     26 H           6.0680   -1.2652    0.2247 H       1  LIG1        0.2922
     27 C           7.2354    0.8882   -0.6950 C.ar    1  LIG1       -0.0519
     28 C           8.4941    1.4764   -0.7046 C.ar    1  LIG1       -0.0522
     29 C           6.1302    1.5554   -0.1229 C.ar    1  LIG1        0.0031
     30 C           8.7140    2.7539   -0.1730 C.ar    1  LIG1        0.0003
     31 H           9.3215    0.9524   -1.1744 H       1  LIG1        0.0624
     32 C           6.3566    2.8260    0.4385 C.ar    1  LIG1       -0.0365
     33 C           7.6180    3.4339    0.4188 C.ar    1  LIG1        0.0331
     34 H           5.5473    3.3488    0.9367 H       1  LIG1        0.0636
     35 H           7.0921   -0.0675   -1.1887 H       1  LIG1        0.0624
     36 C           7.7829    4.7043    1.0547 C.1     1  LIG1       -0.0690
     37 C           7.9054    5.7709    1.6123 C.1     1  LIG1       -0.1139
     38 H           8.0177    6.7178    2.0884 H       1  LIG1        0.1232
     39 C          10.3854    4.5359   -0.9082 C.ar    1  LIG1        0.1478
     40 C          10.0768    3.3407   -0.2167 C.ar    1  LIG1        0.0204
     41 C          11.1459    2.6952    0.4111 C.ar    1  LIG1       -0.0324
     42 C          12.4283    3.2534    0.3584 C.ar    1  LIG1        0.0705
     43 C          12.6036    4.4662   -0.3326 C.ar    1  LIG1        0.0464
     44 N          11.6099    5.0869   -0.9570 N.ar    1  LIG1       -0.2427
     45 H          10.9750    1.7710    0.9524 H       1  LIG1        0.0638
     46 H          13.5834    4.9337   -0.3808 H       1  LIG1        0.0843
     47 N           8.5768    5.7759   -2.3154 N.1     1  LIG1       -0.1893
     48 C           9.3739    5.2274   -1.6721 C.1     1  LIG1        0.1197
     49 N          14.4458    2.1028    1.5153 N.1     1  LIG1       -0.1908
     50 C          13.5395    2.6165    0.9983 C.1     1  LIG1        0.1007
@<TRIPOS>BOND
     1    47    48    3
     2    48    39    1
     3    35    27    1
     4    31    28    1
     5    16    14    1
     6    44    39   ar
     7    44    43   ar
     8    39    40   ar
     9    28    27   ar
    10    28    30   ar
    11    27    29   ar
    12    46    43    1
    13    43    42   ar
    14    15    14    1
    15    40    30    1
    16    40    41   ar
    17    14    13    1
    18    14    17    1
    19    30    33   ar
    20    23    22    1
    21    13     7    1
    22    25    20    1
    23    25    26    1
    24     8     6    1
    25    20    21   ar
    26    20    19   ar
    27    29    21    1
    28    29    32   ar
    29    21    22   ar
    30     7     6   ar
    31     7     4   ar
    32     6     3   ar
    33    19    24    1
    34    19    18   ar
    35    18     4    1
    36    18    22   ar
    37     4     2   ar
    38     3     9    1
    39     3     1   ar
    40     2     1   ar
    41     2     5    1
    42     1    10    1
    43    10    11    3
    44    11    12    1
    45    42    41   ar
    46    42    50    1
    47    41    45    1
    48    33    32   ar
    49    33    36    1
    50    32    34    1
    51    50    49    3
    52    36    37    3
    53    37    38    1
