@<TRIPOS>MOLECULE
mol_data/opt/b3lyp/geoms/mol2/4fa.out
 13 13 0 0 0
SMALL
GASTEIGER

@<TRIPOS>ATOM
      1 C           0.1080    0.0635    0.0004 C.ar    1  LIG1        0.1169
      2 C           1.5067    0.0496    0.0000 C.ar    1  LIG1       -0.0202
      3 C          -0.5806    1.2817    0.0003 C.ar    1  LIG1       -0.0202
      4 C           2.2114    1.2541   -0.0005 C.ar    1  LIG1       -0.0583
      5 H           2.0403   -0.8988    0.0001 H       1  LIG1        0.0654
      6 C           0.1350    2.4763   -0.0002 C.ar    1  LIG1       -0.0583
      7 C           1.5327    2.4726   -0.0006 C.ar    1  LIG1       -0.0615
      8 H          -0.4054    3.4187   -0.0002 H       1  LIG1        0.0619
      9 H           3.2977    1.2342   -0.0008 H       1  LIG1        0.0619
     10 H          -1.6649    1.2696    0.0006 H       1  LIG1        0.0654
     11 O          -0.6414   -1.0809    0.0009 O.3     1  LIG1       -0.5068
     12 H          -0.0497   -1.8446    0.0009 H       1  LIG1        0.2921
     13 H           2.0845    3.4075   -0.0009 H       1  LIG1        0.0618
@<TRIPOS>BOND
     1    13     7    1
     2     9     4    1
     3     7     4   ar
     4     7     6   ar
     5     4     2   ar
     6     8     6    1
     7     6     3   ar
     8     2     5    1
     9     2     1   ar
    10     3     1   ar
    11     3    10    1
    12     1    11    1
    13    11    12    1
