@<TRIPOS>MOLECULE
mol_data/opt/b3lyp/geoms/mol2/4fa13ee-13de-12hh-.out
 47 50 0 0 0
SMALL
GASTEIGER

@<TRIPOS>ATOM
      1 C          -0.0776    0.0147   -0.6491 C.ar    1  LIG1        0.1175
      2 C           1.2956   -0.0448   -0.4094 C.ar    1  LIG1       -0.0110
      3 C          -0.7396    1.2477   -0.6921 C.ar    1  LIG1       -0.0201
      4 C           2.0310    1.1329   -0.1946 C.ar    1  LIG1        0.0030
      5 H           1.8022   -1.0044   -0.3908 H       1  LIG1        0.0661
      6 C          -0.0110    2.4142   -0.4798 C.ar    1  LIG1       -0.0577
      7 C           1.3595    2.3690   -0.2286 C.ar    1  LIG1       -0.0524
      8 H          -0.5210    3.3728   -0.4989 H       1  LIG1        0.0619
      9 H          -1.8066    1.2682   -0.8845 H       1  LIG1        0.0654
     10 O          -0.8283   -1.1051   -0.8627 O.3     1  LIG1       -0.5067
     11 H          -0.2593   -1.8839   -0.8016 H       1  LIG1        0.2921
     12 H           1.8958    3.2892   -0.0188 H       1  LIG1        0.0624
     13 C           3.4736    1.0763    0.0400 C.ar    1  LIG1        0.0639
     14 C           4.3047    0.0762    0.5533 C.ar    1  LIG1        0.0659
     15 C           5.6574    0.5810    0.5426 C.ar    1  LIG1        0.0673
     16 C           5.6098    1.8687    0.0093 C.ar    1  LIG1        0.0814
     17 N           4.2824    2.1531   -0.2526 N.ar    1  LIG1       -0.3510
     18 H           3.9864    2.9121   -0.8480 H       1  LIG1        0.1660
     19 C           3.9236   -1.1890    1.0637 C.1     1  LIG1       -0.0663
     20 C           3.6305   -2.2785    1.5037 C.1     1  LIG1       -0.1138
     21 H           3.3842   -3.2326    1.9080 H       1  LIG1        0.1232
     22 C           6.7971   -0.0870    1.0475 C.1     1  LIG1       -0.0662
     23 C           7.7648   -0.6619    1.4905 C.1     1  LIG1       -0.1138
     24 H           8.6314   -1.1674    1.8484 H       1  LIG1        0.1232
     25 C           6.6338    2.8626   -0.2143 C.ar    1  LIG1        0.0834
     26 C           7.9333    2.7853   -0.7094 C.ar    1  LIG1        0.0945
     27 C           8.4737    4.1250   -0.7540 C.ar    1  LIG1        0.0710
     28 C           7.4784    4.9821   -0.2682 C.ar    1  LIG1        0.1013
     29 N           6.3828    4.1994    0.0230 N.ar    1  LIG1       -0.3485
     30 H           5.5807    4.5532    0.5219 H       1  LIG1        0.1661
     31 N           9.1575    0.7098   -1.6345 N.1     1  LIG1       -0.1908
     32 C           8.5924    1.6321   -1.2035 C.1     1  LIG1        0.1026
     33 C           9.7309    4.4775   -1.2951 C.1     1  LIG1       -0.0661
     34 C          10.8099    4.7510   -1.7772 C.1     1  LIG1       -0.1138
     35 H          11.7455    4.9590   -2.2426 H       1  LIG1        0.1232
     36 C           7.4306    6.3935   -0.0305 C.ar    1  LIG1        0.1745
     37 C           8.3682    7.3899    0.1707 C.ar    1  LIG1        0.0934
     38 C           7.6177    8.5973    0.4269 C.ar    1  LIG1        0.0845
     39 C           6.3000    8.2494    0.3999 C.ar    1  LIG1        0.1151
     40 O           6.1532    6.9229    0.1355 O.2     1  LIG1       -0.4576
     41 H           5.3908    8.8120    0.5475 H       1  LIG1        0.1049
     42 N           9.7345    7.3205    0.2480 N.pl3   1  LIG1       -0.3536
     43 H          10.2171    6.6055   -0.2793 H       1  LIG1        0.1425
     44 H          10.2056    8.2061    0.3532 H       1  LIG1        0.1425
     45 N           8.2447    9.8349    0.7068 N.pl3   1  LIG1       -0.3541
     46 H           8.5479   10.3072   -0.1416 H       1  LIG1        0.1425
     47 H           7.6365   10.4654    1.2175 H       1  LIG1        0.1425
@<TRIPOS>BOND
     1    35    34    1
     2    34    33    3
     3    31    32    3
     4    33    27    1
     5    32    26    1
     6     9     3    1
     7    10    11    1
     8    10     1    1
     9    18    17    1
    10    27    26   ar
    11    27    28   ar
    12    26    25   ar
    13     3     1   ar
    14     3     6   ar
    15     1     2   ar
    16     8     6    1
    17     6     7   ar
    18     2     5    1
    19     2     4   ar
    20    43    42    1
    21    28    36    1
    22    28    29   ar
    23    17    16   ar
    24    17    13   ar
    25     7     4   ar
    26     7    12    1
    27    25    16    1
    28    25    29   ar
    29     4    13    1
    30    46    45    1
    31    36    40   ar
    32    36    37   ar
    33    16    15   ar
    34    29    30    1
    35    13    14   ar
    36    40    39   ar
    37    37    42    1
    38    37    38   ar
    39    42    44    1
    40    39    38   ar
    41    39    41    1
    42    38    45    1
    43    15    14   ar
    44    15    22    1
    45    14    19    1
    46    45    47    1
    47    22    23    3
    48    19    20    3
    49    23    24    1
    50    20    21    1
