@<TRIPOS>MOLECULE
mol_data/opt/b3lyp/geoms/mol2/4fa4fa.out
 24 25 0 0 0
SMALL
GASTEIGER

@<TRIPOS>ATOM
      1 C          -0.0948    0.0977    0.0007 C.ar    1  LIG1        0.1174
      2 C           1.3005    0.0250    0.0010 C.ar    1  LIG1       -0.0124
      3 C          -0.7499    1.3288   -0.0005 C.ar    1  LIG1       -0.0201
      4 C           2.0986    1.1857    0.0001 C.ar    1  LIG1       -0.0110
      5 H           1.7648   -0.9504    0.0020 H       1  LIG1        0.0660
      6 C           0.0267    2.4837   -0.0014 C.ar    1  LIG1       -0.0577
      7 C           1.4173    2.4222   -0.0011 C.ar    1  LIG1       -0.0537
      8 H          -0.4601    3.4548   -0.0023 H       1  LIG1        0.0619
      9 H          -1.8337    1.3622   -0.0007 H       1  LIG1        0.0654
     10 O          -0.8709   -1.0302    0.0016 O.3     1  LIG1       -0.5067
     11 H          -0.2922   -1.8040    0.0023 H       1  LIG1        0.2921
     12 H           1.9592    3.3590   -0.0020 H       1  LIG1        0.0624
     13 C           4.3780   -0.0420    0.0002 C.ar    1  LIG1        0.1245
     14 C           5.7773    0.0063    0.0005 C.ar    1  LIG1       -0.0196
     15 C           3.5961    1.1430    0.0005 C.ar    1  LIG1        0.0237
     16 C           6.4595    1.2157    0.0012 C.ar    1  LIG1       -0.0583
     17 H           6.3302   -0.9318    0.0002 H       1  LIG1        0.0654
     18 C           4.3357    2.3450    0.0012 C.ar    1  LIG1       -0.0505
     19 C           5.7247    2.3992    0.0016 C.ar    1  LIG1       -0.0610
     20 H           3.8047    3.2873    0.0018 H       1  LIG1        0.0625
     21 H           7.5448    1.2289    0.0015 H       1  LIG1        0.0619
     22 O           3.7694   -1.2720   -0.0007 O.3     1  LIG1       -0.5062
     23 H           4.4557   -1.9518   -0.0012 H       1  LIG1        0.2922
     24 H           6.2256    3.3618    0.0022 H       1  LIG1        0.0618
@<TRIPOS>BOND
     1     8     6    1
     2    12     7    1
     3     6     7   ar
     4     6     3   ar
     5    23    22    1
     6     7     4   ar
     7     9     3    1
     8    22    13    1
     9     3     1   ar
    10     4    15    1
    11     4     2   ar
    12    13    15   ar
    13    13    14   ar
    14    17    14    1
    15    15    18   ar
    16    14    16   ar
    17     1     2   ar
    18     1    10    1
    19     2     5    1
    20    16    21    1
    21    16    19   ar
    22    18    19   ar
    23    18    20    1
    24    10    11    1
    25    19    24    1
