@<TRIPOS>MOLECULE
mol_data/opt/b3lyp/geoms/mol2/4fa4fa-.out
 24 25 0 0 0
SMALL
GASTEIGER

@<TRIPOS>ATOM
      1 C          -0.0191    0.1486    0.3791 C.ar    1  LIG1        0.1174
      2 C           1.3775    0.1325    0.3844 C.ar    1  LIG1       -0.0124
      3 C          -0.7110    1.2632   -0.1105 C.ar    1  LIG1       -0.0201
      4 C           2.1104    1.2236   -0.1097 C.ar    1  LIG1       -0.0110
      5 H           1.9083   -0.7257    0.7904 H       1  LIG1        0.0660
      6 C           0.0105    2.3467   -0.5989 C.ar    1  LIG1       -0.0577
      7 C           1.4083    2.3378   -0.6043 C.ar    1  LIG1       -0.0537
      8 H          -0.5215    3.2077   -0.9929 H       1  LIG1        0.0619
      9 H          -1.7954    1.2567   -0.1003 H       1  LIG1        0.0654
     10 O          -0.7655   -0.8921    0.8513 O.3     1  LIG1       -0.5067
     11 H          -0.1754   -1.5926    1.1598 H       1  LIG1        0.2921
     12 H           1.9533    3.1711   -1.0371 H       1  LIG1        0.0624
     13 C           4.3610    2.2446    0.4213 C.ar    1  LIG1        0.1245
     14 C           5.7584    2.1839    0.4189 C.ar    1  LIG1       -0.0196
     15 C           3.5979    1.1815   -0.1100 C.ar    1  LIG1        0.0237
     16 C           6.4107    1.0725   -0.1054 C.ar    1  LIG1       -0.0583
     17 H           6.3090    3.0177    0.8417 H       1  LIG1        0.0654
     18 C           4.2843    0.0682   -0.6205 C.ar    1  LIG1       -0.0505
     19 C           5.6751    0.0050   -0.6263 C.ar    1  LIG1       -0.0610
     20 H           3.7032   -0.7475   -1.0415 H       1  LIG1        0.0625
     21 H           7.4964    1.0397   -0.1046 H       1  LIG1        0.0619
     22 O           3.7966    3.3575    0.9742 O.3     1  LIG1       -0.5062
     23 H           2.8338    3.2451    0.9894 H       1  LIG1        0.2922
     24 H           6.1793   -0.8627   -1.0395 H       1  LIG1        0.0618
@<TRIPOS>BOND
     1    20    18    1
     2    24    19    1
     3    12     7    1
     4     8     6    1
     5    19    18   ar
     6    19    16   ar
     7    18    15   ar
     8     7     6   ar
     9     7     4   ar
    10     6     3   ar
    11     3     9    1
    12     3     1   ar
    13    15     4    1
    14    15    13   ar
    15     4     2   ar
    16    16    21    1
    17    16    14   ar
    18     1     2   ar
    19     1    10    1
    20     2     5    1
    21    14    13   ar
    22    14    17    1
    23    13    22    1
    24    10    11    1
    25    22    23    1
