@<TRIPOS>MOLECULE
mol_data/opt/b3lyp/geoms/mol2/4fa4fa-4fa-4fa-.out
 46 49 0 0 0
SMALL
GASTEIGER

@<TRIPOS>ATOM
      1 C          -0.2635    0.1385    0.4072 C.ar    1  LIG1        0.1174
      2 C           1.1332    0.1282    0.4164 C.ar    1  LIG1       -0.0124
      3 C          -0.9583    1.2524   -0.0811 C.ar    1  LIG1       -0.0201
      4 C           1.8617    1.2250   -0.0717 C.ar    1  LIG1       -0.0110
      5 H           1.6664   -0.7289    0.8214 H       1  LIG1        0.0660
      6 C          -0.2408    2.3408   -0.5636 C.ar    1  LIG1       -0.0577
      7 C           1.1571    2.3384   -0.5645 C.ar    1  LIG1       -0.0537
      8 H          -0.7754    3.2006   -0.9564 H       1  LIG1        0.0619
      9 H          -2.0426    1.2410   -0.0741 H       1  LIG1        0.0654
     10 O          -1.0076   -0.9051    0.8731 O.3     1  LIG1       -0.5067
     11 H          -0.4185   -1.6054    1.1838 H       1  LIG1        0.2921
     12 H           1.6986    3.1754   -0.9946 H       1  LIG1        0.0624
     13 C           4.1088    2.2584    0.4545 C.ar    1  LIG1        0.1251
     14 C           5.5065    2.2043    0.4580 C.ar    1  LIG1       -0.0117
     15 C           3.3482    1.1898   -0.0675 C.ar    1  LIG1        0.0237
     16 C           6.1922    1.0910   -0.0535 C.ar    1  LIG1       -0.0109
     17 H           6.0400    3.0248    0.9277 H       1  LIG1        0.0660
     18 C           4.0481    0.0767   -0.5582 C.ar    1  LIG1       -0.0500
     19 C           5.4369    0.0204   -0.5636 C.ar    1  LIG1       -0.0531
     20 H           3.4777   -0.7474   -0.9771 H       1  LIG1        0.0625
     21 O           3.5441    3.3693    1.0041 O.3     1  LIG1       -0.5061
     22 H           2.5813    3.2536    1.0267 H       1  LIG1        0.2922
     23 H           5.9440   -0.8402   -0.9868 H       1  LIG1        0.0624
     24 C           8.4645    2.1092   -0.5124 C.ar    1  LIG1        0.1251
     25 C           9.8609    2.0259   -0.5059 C.ar    1  LIG1       -0.0117
     26 C           7.6767    1.0333   -0.0489 C.ar    1  LIG1        0.0237
     27 C          10.5195    0.8760   -0.0433 C.ar    1  LIG1       -0.0109
     28 H          10.4162    2.8572   -0.9295 H       1  LIG1        0.0660
     29 C           8.3501   -0.1172    0.3919 C.ar    1  LIG1       -0.0500
     30 C           9.7370   -0.2021    0.4068 C.ar    1  LIG1       -0.0531
     31 H           7.7592   -0.9492    0.7639 H       1  LIG1        0.0625
     32 O           7.9304    3.2579   -1.0143 O.3     1  LIG1       -0.5061
     33 H           6.9664    3.1643   -1.0583 H       1  LIG1        0.2922
     34 H          10.2228   -1.0931    0.7903 H       1  LIG1        0.0624
     35 C          12.8042    1.8202    0.4997 C.ar    1  LIG1        0.1245
     36 C          14.1986    1.7081    0.5003 C.ar    1  LIG1       -0.0196
     37 C          12.0037    0.7876   -0.0377 C.ar    1  LIG1        0.0237
     38 C          14.8115    0.5757   -0.0260 C.ar    1  LIG1       -0.0583
     39 H          14.7778    2.5200    0.9275 H       1  LIG1        0.0654
     40 C          12.6513   -0.3490   -0.5485 C.ar    1  LIG1       -0.0505
     41 C          14.0386   -0.4629   -0.5513 C.ar    1  LIG1       -0.0610
     42 H          12.0417   -1.1424   -0.9715 H       1  LIG1        0.0625
     43 H          15.8953    0.5034   -0.0226 H       1  LIG1        0.0619
     44 O          12.2821    2.9515    1.0564 O.3     1  LIG1       -0.5062
     45 H          11.3160    2.8757    1.0749 H       1  LIG1        0.2922
     46 H          14.5116   -1.3479   -0.9650 H       1  LIG1        0.0618
@<TRIPOS>BOND
     1    33    32    1
     2    32    24    1
     3    12     7    1
     4    23    19    1
     5    20    18    1
     6    42    40    1
     7    46    41    1
     8     8     6    1
     9    28    25    1
    10     7     6   ar
    11     7     4   ar
    12     6     3   ar
    13    19    18   ar
    14    19    16   ar
    15    18    15   ar
    16    41    40   ar
    17    41    38   ar
    18    40    37   ar
    19    24    25   ar
    20    24    26   ar
    21    25    27   ar
    22     3     9    1
    23     3     1   ar
    24     4    15    1
    25     4     2   ar
    26    15    13   ar
    27    16    26    1
    28    16    14   ar
    29    26    29   ar
    30    27    37    1
    31    27    30   ar
    32    37    35   ar
    33    38    43    1
    34    38    36   ar
    35    29    30   ar
    36    29    31    1
    37    30    34    1
    38     1     2   ar
    39     1    10    1
    40     2     5    1
    41    13    14   ar
    42    13    21    1
    43    14    17    1
    44    35    36   ar
    45    35    44    1
    46    36    39    1
    47    10    11    1
    48    21    22    1
    49    44    45    1
