@<TRIPOS>MOLECULE
mol_data/opt/b3lyp/geoms/mol2/4fa4fa-4fa4fa-.out
 46 49 0 0 0
SMALL
GASTEIGER

@<TRIPOS>ATOM
      1 C          -0.2981    0.2283    0.3650 C.ar    1  LIG1        0.1174
      2 C           1.0972    0.1810    0.3998 C.ar    1  LIG1       -0.0124
      3 C          -0.9542    1.3304   -0.1972 C.ar    1  LIG1       -0.0201
      4 C           1.8653    1.2276   -0.1361 C.ar    1  LIG1       -0.0110
      5 H           1.5994   -0.6659    0.8619 H       1  LIG1        0.0660
      6 C          -0.1982    2.3697   -0.7274 C.ar    1  LIG1       -0.0577
      7 C           1.1988    2.3293   -0.7035 C.ar    1  LIG1       -0.0537
      8 H          -0.7020    3.2201   -1.1776 H       1  LIG1        0.0619
      9 H          -2.0385    1.3487   -0.2088 H       1  LIG1        0.0654
     10 O          -1.0777   -0.7685    0.8765 O.3     1  LIG1       -0.5067
     11 H          -0.5103   -1.4637    1.2350 H       1  LIG1        0.2921
     12 H           1.7708    3.1251   -1.1706 H       1  LIG1        0.0624
     13 C           4.1364    2.2276    0.3558 C.ar    1  LIG1        0.1251
     14 C           5.5287    2.1287    0.3837 C.ar    1  LIG1       -0.0117
     15 C           3.3495    1.1508   -0.1055 C.ar    1  LIG1        0.0237
     16 C           6.1862    0.9668   -0.0404 C.ar    1  LIG1       -0.0109
     17 H           6.0865    2.9722    0.7761 H       1  LIG1        0.0660
     18 C           4.0217   -0.0134   -0.5104 C.ar    1  LIG1       -0.0500
     19 C           5.4067   -0.1160   -0.4848 C.ar    1  LIG1       -0.0531
     20 H           3.4322   -0.8460   -0.8836 H       1  LIG1        0.0625
     21 O           3.5992    3.3944    0.8191 O.3     1  LIG1       -0.5061
     22 H           2.6340    3.3064    0.8400 H       1  LIG1        0.2922
     23 H           5.8870   -1.0263   -0.8201 H       1  LIG1        0.0624
     24 C           8.4183   -0.2008    0.3523 C.ar    1  LIG1        0.1251
     25 C           9.8140   -0.1801    0.3434 C.ar    1  LIG1       -0.0117
     26 C           7.6715    0.9298   -0.0509 C.ar    1  LIG1        0.0237
     27 C          10.5310    0.9499   -0.0748 C.ar    1  LIG1       -0.0109
     28 H          10.3594   -1.0548    0.6915 H       1  LIG1        0.0660
     29 C           8.4030    2.0524   -0.4642 C.ar    1  LIG1       -0.0500
     30 C           9.7962    2.0773   -0.4822 C.ar    1  LIG1       -0.0531
     31 H           7.8549    2.9216   -0.8138 H       1  LIG1        0.0625
     32 O           7.7383   -1.3062    0.7813 O.3     1  LIG1       -0.5061
     33 H           8.3770   -1.9756    1.0606 H       1  LIG1        0.2922
     34 H          10.3114    2.9510   -0.8697 H       1  LIG1        0.0624
     35 C          12.7724    1.9797    0.4761 C.ar    1  LIG1        0.1245
     36 C          14.1703    1.9416    0.4496 C.ar    1  LIG1       -0.0196
     37 C          12.0172    0.9312   -0.0950 C.ar    1  LIG1        0.0237
     38 C          14.8314    0.8674   -0.1372 C.ar    1  LIG1       -0.0583
     39 H          14.7146    2.7627    0.9042 H       1  LIG1        0.0654
     40 C          12.7131   -0.1456   -0.6678 C.ar    1  LIG1       -0.0505
     41 C          14.1043   -0.1861   -0.6971 C.ar    1  LIG1       -0.0610
     42 H          12.1382   -0.9490   -1.1200 H       1  LIG1        0.0625
     43 H          15.9173    0.8523   -0.1543 H       1  LIG1        0.0619
     44 O          12.2000    3.0551    1.0912 O.3     1  LIG1       -0.5062
     45 H          11.2404    2.9220    1.1256 H       1  LIG1        0.2922
     46 H          14.6154   -1.0249   -1.1588 H       1  LIG1        0.0618
@<TRIPOS>BOND
     1     8     6    1
     2    12     7    1
     3    46    41    1
     4    42    40    1
     5    20    18    1
     6    34    30    1
     7    23    19    1
     8    31    29    1
     9     6     7   ar
    10     6     3   ar
    11     7     4   ar
    12    41    40   ar
    13    41    38   ar
    14    40    37   ar
    15    18    19   ar
    16    18    15   ar
    17    19    16   ar
    18    30    29   ar
    19    30    27   ar
    20    29    26   ar
    21     9     3    1
    22     3     1   ar
    23    43    38    1
    24    38    36   ar
    25     4    15    1
    26     4     2   ar
    27    15    13   ar
    28    37    27    1
    29    37    35   ar
    30    27    25   ar
    31    26    16    1
    32    26    24   ar
    33    16    14   ar
    34    25    24   ar
    35    25    28    1
    36    24    32    1
    37    13    14   ar
    38    13    21    1
    39     1     2   ar
    40     1    10    1
    41    14    17    1
    42     2     5    1
    43    36    35   ar
    44    36    39    1
    45    35    44    1
    46    32    33    1
    47    21    22    1
    48    10    11    1
    49    44    45    1
