@<TRIPOS>MOLECULE
mol_data/opt/b3lyp/geoms/mol2/4fa4fa4fa-4fa.out
 46 49 0 0 0
SMALL
GASTEIGER

@<TRIPOS>ATOM
      1 C          -0.3219    0.1889   -0.3970 C.ar    1  LIG1        0.1174
      2 C           1.0704    0.0920   -0.3737 C.ar    1  LIG1       -0.0124
      3 C          -0.9567    1.3825   -0.0382 C.ar    1  LIG1       -0.0201
      4 C           1.8573    1.1895    0.0100 C.ar    1  LIG1       -0.0110
      5 H           1.5489   -0.8410   -0.6543 H       1  LIG1        0.0660
      6 C          -0.1792    2.4705    0.3468 C.ar    1  LIG1       -0.0577
      7 C           1.2128    2.3834    0.3738 C.ar    1  LIG1       -0.0537
      8 H          -0.6648    3.3975    0.6377 H       1  LIG1        0.0619
      9 H          -2.0398    1.4332   -0.0616 H       1  LIG1        0.0654
     10 O          -1.1189   -0.8582   -0.7714 O.3     1  LIG1       -0.5067
     11 H          -0.5595   -1.6192   -0.9752 H       1  LIG1        0.2921
     12 H           1.8017    3.2337    0.7015 H       1  LIG1        0.0624
     13 C           4.0758    0.0097    0.4597 C.ar    1  LIG1        0.1251
     14 C           5.4714    0.0138    0.4553 C.ar    1  LIG1       -0.0117
     15 C           3.3425    1.1262   -0.0026 C.ar    1  LIG1        0.0237
     16 C           6.2040    1.1120   -0.0181 C.ar    1  LIG1       -0.0109
     17 H           6.0053   -0.8480    0.8504 H       1  LIG1        0.0660
     18 C           4.0891    2.2156   -0.4744 C.ar    1  LIG1       -0.0500
     19 C           5.4823    2.2237   -0.4888 C.ar    1  LIG1       -0.0531
     20 H           3.5521    3.0709   -0.8722 H       1  LIG1        0.0625
     21 O           3.3829   -1.0680    0.9395 O.3     1  LIG1       -0.5061
     22 H           4.0146   -1.7193    1.2724 H       1  LIG1        0.2922
     23 H           6.0080    3.0695   -0.9213 H       1  LIG1        0.0624
     24 C           8.4594    2.1500    0.4630 C.ar    1  LIG1        0.1251
     25 C           9.8539    2.0887    0.4492 C.ar    1  LIG1       -0.0117
     26 C           7.6881    1.0754   -0.0291 C.ar    1  LIG1        0.0237
     27 C          10.5307    0.9674   -0.0472 C.ar    1  LIG1       -0.0109
     28 H          10.4004    2.9272    0.8671 H       1  LIG1        0.0660
     29 C           8.3803   -0.0494   -0.5070 C.ar    1  LIG1       -0.0500
     30 C           9.7675   -0.1141   -0.5226 C.ar    1  LIG1       -0.0531
     31 H           7.8035   -0.8793   -0.9055 H       1  LIG1        0.0625
     32 O           7.9046    3.2780    0.9979 O.3     1  LIG1       -0.5061
     33 H           6.9448    3.1561    1.0545 H       1  LIG1        0.2922
     34 H          10.2628   -0.9941   -0.9127 H       1  LIG1        0.0624
     35 C          12.7962   -0.1553    0.2500 C.ar    1  LIG1        0.1245
     36 C          14.1925   -0.0981    0.2037 C.ar    1  LIG1       -0.0196
     37 C          12.0169    0.9706   -0.0959 C.ar    1  LIG1        0.0237
     38 C          14.8429    1.0706   -0.1864 C.ar    1  LIG1       -0.0583
     39 H          14.7694   -0.9782    0.4821 H       1  LIG1        0.0654
     40 C          12.7040    2.1318   -0.4852 C.ar    1  LIG1       -0.0505
     41 C          14.0952    2.1943   -0.5344 C.ar    1  LIG1       -0.0610
     42 H          12.1191    2.9991   -0.7753 H       1  LIG1        0.0625
     43 H          15.9280    1.0961   -0.2193 H       1  LIG1        0.0619
     44 O          12.1513   -1.2956    0.6489 O.3     1  LIG1       -0.5062
     45 H          12.8137   -1.9559    0.8913 H       1  LIG1        0.2922
     46 H          14.5877    3.1089   -0.8485 H       1  LIG1        0.0618
@<TRIPOS>BOND
     1    11    10    1
     2    23    19    1
     3    34    30    1
     4    31    29    1
     5    20    18    1
     6    46    41    1
     7    42    40    1
     8    10     1    1
     9     5     2    1
    10    41    40   ar
    11    41    38   ar
    12    30    29   ar
    13    30    27   ar
    14    29    26   ar
    15    19    18   ar
    16    19    16   ar
    17    40    37   ar
    18    18    15   ar
    19     1     2   ar
    20     1     3   ar
    21     2     4   ar
    22    43    38    1
    23    38    36   ar
    24    37    27    1
    25    37    35   ar
    26     9     3    1
    27    27    25   ar
    28     3     6   ar
    29    26    16    1
    30    26    24   ar
    31    16    14   ar
    32    15     4    1
    33    15    13   ar
    34     4     7   ar
    35    36    35   ar
    36    36    39    1
    37    35    44    1
    38     6     7   ar
    39     6     8    1
    40     7    12    1
    41    25    24   ar
    42    25    28    1
    43    14    13   ar
    44    14    17    1
    45    13    21    1
    46    24    32    1
    47    44    45    1
    48    21    22    1
    49    32    33    1
