@<TRIPOS>MOLECULE
mol_data/opt/b3lyp/geoms/mol2/4fa4fa-4fa-4fa.out
 46 49 0 0 0
SMALL
GASTEIGER

@<TRIPOS>ATOM
      1 C          -0.2747    0.4580    0.7323 C.ar    1  LIG1        0.1174
      2 C           1.1218    0.4397    0.7523 C.ar    1  LIG1       -0.0124
      3 C          -0.9576    1.2522   -0.1975 C.ar    1  LIG1       -0.0201
      4 C           1.8628    1.2046   -0.1630 C.ar    1  LIG1       -0.0110
      5 H           1.6451   -0.1584    1.4948 H       1  LIG1        0.0660
      6 C          -0.2280    2.0124   -1.1043 C.ar    1  LIG1       -0.0577
      7 C           1.1699    1.9958   -1.0973 C.ar    1  LIG1       -0.0537
      8 H          -0.7531    2.6181   -1.8369 H       1  LIG1        0.0619
      9 H          -2.0420    1.2554   -0.1917 H       1  LIG1        0.0654
     10 O          -1.0297   -0.2698    1.6051 O.3     1  LIG1       -0.5067
     11 H          -0.4467   -0.7686    2.1927 H       1  LIG1        0.2921
     12 H           1.7213    2.5524   -1.8492 H       1  LIG1        0.0624
     13 C           4.1219    2.3416   -0.1250 C.ar    1  LIG1        0.1251
     14 C           5.5191    2.2793   -0.0948 C.ar    1  LIG1       -0.0117
     15 C           3.3489    1.1608   -0.1370 C.ar    1  LIG1        0.0237
     16 C           6.1928    1.0478   -0.0707 C.ar    1  LIG1       -0.0109
     17 H           6.0656    3.2163   -0.1364 H       1  LIG1        0.0660
     18 C           4.0361   -0.0626   -0.1047 C.ar    1  LIG1       -0.0500
     19 C           5.4237   -0.1299   -0.0710 C.ar    1  LIG1       -0.0531
     20 H           3.4557   -0.9807   -0.1207 H       1  LIG1        0.0625
     21 O           3.5704    3.5880   -0.1321 O.3     1  LIG1       -0.5061
     22 H           2.6052    3.5045   -0.0868 H       1  LIG1        0.2922
     23 H           5.9205   -1.0936   -0.0347 H       1  LIG1        0.0624
     24 C           8.4502    1.7601    0.8318 C.ar    1  LIG1        0.1251
     25 C           9.8431    1.6654    0.8311 C.ar    1  LIG1       -0.0117
     26 C           7.6765    0.9798   -0.0537 C.ar    1  LIG1        0.0237
     27 C          10.5156    0.7981   -0.0389 C.ar    1  LIG1       -0.0109
     28 H          10.3898    2.2645    1.5513 H       1  LIG1        0.0660
     29 C           8.3639    0.1008   -0.9068 C.ar    1  LIG1       -0.0500
     30 C           9.7492    0.0041   -0.9107 C.ar    1  LIG1       -0.0531
     31 H           7.7854   -0.4986   -1.6040 H       1  LIG1        0.0625
     32 O           7.9004    2.6155    1.7446 O.3     1  LIG1       -0.5061
     33 H           6.9367    2.5166    1.7258 H       1  LIG1        0.2922
     34 H          10.2409   -0.6770   -1.5936 H       1  LIG1        0.0624
     35 C          12.7466   -0.4244   -0.1330 C.ar    1  LIG1        0.1245
     36 C          14.1445   -0.3984   -0.1172 C.ar    1  LIG1       -0.0196
     37 C          12.0023    0.7726   -0.0441 C.ar    1  LIG1        0.0237
     38 C          14.8312    0.8096   -0.0153 C.ar    1  LIG1       -0.0583
     39 H          14.6937   -1.3361   -0.1800 H       1  LIG1        0.0654
     40 C          12.7255    1.9721    0.0567 C.ar    1  LIG1       -0.0505
     41 C          14.1186    2.0043    0.0717 C.ar    1  LIG1       -0.0610
     42 H          12.1681    2.9025    0.1042 H       1  LIG1        0.0625
     43 H          15.9171    0.8112   -0.0074 H       1  LIG1        0.0619
     44 O          12.0654   -1.6094   -0.2159 O.3     1  LIG1       -0.5062
     45 H          12.7054   -2.3332   -0.2264 H       1  LIG1        0.2922
     46 H          14.6399    2.9535    0.1430 H       1  LIG1        0.0618
@<TRIPOS>BOND
     1    12     7    1
     2     8     6    1
     3    31    29    1
     4    34    30    1
     5     6     7   ar
     6     6     3   ar
     7     7     4   ar
     8    30    29   ar
     9    30    27   ar
    10    29    26   ar
    11    45    44    1
    12    44    35    1
    13     3     9    1
    14     3     1   ar
    15    39    36    1
    16     4    15    1
    17     4     2   ar
    18    15    13   ar
    19    15    18   ar
    20    17    14    1
    21    35    36   ar
    22    35    37   ar
    23    21    13    1
    24    21    22    1
    25    13    14   ar
    26    20    18    1
    27    36    38   ar
    28    18    19   ar
    29    14    16   ar
    30    19    16   ar
    31    19    23    1
    32    16    26    1
    33    26    24   ar
    34    37    27    1
    35    37    40   ar
    36    27    25   ar
    37    38    43    1
    38    38    41   ar
    39    40    41   ar
    40    40    42    1
    41    41    46    1
    42     1     2   ar
    43     1    10    1
    44     2     5    1
    45    25    24   ar
    46    25    28    1
    47    24    32    1
    48    10    11    1
    49    33    32    1
