@<TRIPOS>MOLECULE
mol_data/opt/b3lyp/geoms/mol2/4fa4fa-4fa4fa.out
 46 49 0 0 0
SMALL
GASTEIGER

@<TRIPOS>ATOM
      1 C          -0.3139    0.2744    0.3248 C.ar    1  LIG1        0.1174
      2 C           1.0803    0.2075    0.3660 C.ar    1  LIG1       -0.0124
      3 C          -0.9524    1.4052   -0.1990 C.ar    1  LIG1       -0.0201
      4 C           1.8661    1.2628   -0.1256 C.ar    1  LIG1       -0.0110
      5 H           1.5687   -0.6626    0.7989 H       1  LIG1        0.0660
      6 C          -0.1792    2.4536   -0.6853 C.ar    1  LIG1       -0.0577
      7 C           1.2168    2.3936   -0.6551 C.ar    1  LIG1       -0.0537
      8 H          -0.6690    3.3269   -1.1061 H       1  LIG1        0.0619
      9 H          -2.0363    1.4385   -0.2161 H       1  LIG1        0.0654
     10 O          -1.1094   -0.7311    0.7944 O.3     1  LIG1       -0.5067
     11 H          -0.5520   -1.4460    1.1293 H       1  LIG1        0.2921
     12 H           1.8021    3.1989   -1.0885 H       1  LIG1        0.0624
     13 C           4.1487    2.2145    0.4099 C.ar    1  LIG1        0.1251
     14 C           5.5389    2.0942    0.4436 C.ar    1  LIG1       -0.0117
     15 C           3.3486    1.1647   -0.0888 C.ar    1  LIG1        0.0237
     16 C           6.1837    0.9367   -0.0120 C.ar    1  LIG1       -0.0109
     17 H           6.1065    2.9164    0.8657 H       1  LIG1        0.0660
     18 C           4.0071    0.0036   -0.5253 C.ar    1  LIG1       -0.0500
     19 C           5.3901   -0.1198   -0.4947 C.ar    1  LIG1       -0.0531
     20 H           3.4080   -0.8085   -0.9275 H       1  LIG1        0.0625
     21 O           3.6250    3.3750    0.9067 O.3     1  LIG1       -0.5061
     22 H           2.6590    3.2972    0.9249 H       1  LIG1        0.2922
     23 H           5.8597   -1.0266   -0.8536 H       1  LIG1        0.0624
     24 C           8.3944   -0.2791    0.3482 C.ar    1  LIG1        0.1251
     25 C           9.7897   -0.2840    0.3482 C.ar    1  LIG1       -0.0117
     26 C           7.6678    0.8767   -0.0109 C.ar    1  LIG1        0.0237
     27 C          10.5271    0.8527   -0.0103 C.ar    1  LIG1       -0.0109
     28 H          10.3115   -1.1910    0.6373 H       1  LIG1        0.0660
     29 C           8.4220    2.0043   -0.3718 C.ar    1  LIG1       -0.0500
     30 C           9.8123    2.0046   -0.3764 C.ar    1  LIG1       -0.0531
     31 H           7.8919    2.8976   -0.6869 H       1  LIG1        0.0625
     32 O           7.6960   -1.3964    0.7246 O.3     1  LIG1       -0.5061
     33 H           8.3294   -2.0868    0.9607 H       1  LIG1        0.2922
     34 H          10.3471    2.8921   -0.6980 H       1  LIG1        0.0624
     35 C          12.8102   -0.2041   -0.4192 C.ar    1  LIG1        0.1245
     36 C          14.2055   -0.1219   -0.3865 C.ar    1  LIG1       -0.0196
     37 C          12.0127    0.8737    0.0253 C.ar    1  LIG1        0.0237
     38 C          14.8388    1.0245    0.0882 C.ar    1  LIG1       -0.0583
     39 H          14.7953   -0.9652   -0.7417 H       1  LIG1        0.0654
     40 C          12.6837    2.0122    0.5014 C.ar    1  LIG1       -0.0505
     41 C          14.0739    2.0996    0.5374 C.ar    1  LIG1       -0.0610
     42 H          12.0870    2.8402    0.8709 H       1  LIG1        0.0625
     43 H          15.9235    1.0699    0.1086 H       1  LIG1        0.0619
     44 O          12.1845   -1.3261   -0.8969 O.3     1  LIG1       -0.5062
     45 H          12.8573   -1.9390   -1.2214 H       1  LIG1        0.2922
     46 H          14.5524    2.9954    0.9198 H       1  LIG1        0.0618
@<TRIPOS>BOND
     1    45    44    1
     2     8     6    1
     3    12     7    1
     4    20    18    1
     5    44    35    1
     6    23    19    1
     7    39    36    1
     8    34    30    1
     9    31    29    1
    10     6     7   ar
    11     6     3   ar
    12     7     4   ar
    13    18    19   ar
    14    18    15   ar
    15    19    16   ar
    16    35    36   ar
    17    35    37   ar
    18    36    38   ar
    19    30    29   ar
    20    30    27   ar
    21    29    26   ar
    22     9     3    1
    23     3     1   ar
    24     4    15    1
    25     4     2   ar
    26    15    13   ar
    27    16    26    1
    28    16    14   ar
    29    26    24   ar
    30    27    37    1
    31    27    25   ar
    32    37    40   ar
    33    38    43    1
    34    38    41   ar
    35     1     2   ar
    36     1    10    1
    37    24    25   ar
    38    24    32    1
    39    25    28    1
    40     2     5    1
    41    13    14   ar
    42    13    21    1
    43    14    17    1
    44    40    41   ar
    45    40    42    1
    46    41    46    1
    47    32    33    1
    48    10    11    1
    49    21    22    1
