@<TRIPOS>MOLECULE
mol_data/opt/b3lyp/geoms/mol2/4fa4fa-4fa.out
 35 37 0 0 0
SMALL
GASTEIGER

@<TRIPOS>ATOM
      1 C          -0.1673    0.1542    0.2131 C.ar    1  LIG1        0.1174
      2 C           1.2282    0.1138    0.2447 C.ar    1  LIG1       -0.0124
      3 C          -0.8323    1.3275   -0.1638 C.ar    1  LIG1       -0.0201
      4 C           1.9887    1.2399   -0.1108 C.ar    1  LIG1       -0.0110
      5 H           1.7372   -0.7926    0.5646 H       1  LIG1        0.0660
      6 C          -0.0841    2.4457   -0.5146 C.ar    1  LIG1       -0.0577
      7 C           1.3131    2.4136   -0.4931 C.ar    1  LIG1       -0.0537
      8 H          -0.5944    3.3540   -0.8216 H       1  LIG1        0.0619
      9 H          -1.9167    1.3385   -0.1760 H       1  LIG1        0.0654
     10 O          -0.9386   -0.9199    0.5526 O.3     1  LIG1       -0.5067
     11 H          -0.3645   -1.6595    0.7921 H       1  LIG1        0.2921
     12 H           1.8790    3.2800   -0.8215 H       1  LIG1        0.0624
     13 C           4.2508    2.1647    0.5438 C.ar    1  LIG1        0.1251
     14 C           5.6438    2.0733    0.5604 C.ar    1  LIG1       -0.0117
     15 C           3.4734    1.1711   -0.0880 C.ar    1  LIG1        0.0237
     16 C           6.3121    1.0010   -0.0441 C.ar    1  LIG1       -0.0109
     17 H           6.1944    2.8461    1.0858 H       1  LIG1        0.0660
     18 C           4.1560    0.0930   -0.6739 C.ar    1  LIG1       -0.0500
     19 C           5.5418   -0.0008   -0.6611 C.ar    1  LIG1       -0.0531
     20 H           3.5740   -0.6731   -1.1784 H       1  LIG1        0.0625
     21 O           3.7026    3.2376    1.1883 O.3     1  LIG1       -0.5061
     22 H           2.7385    3.1365    1.1953 H       1  LIG1        0.2922
     23 H           6.0305   -0.8413   -1.1371 H       1  LIG1        0.0624
     24 C           8.5460   -0.2003    0.1764 C.ar    1  LIG1        0.1245
     25 C           9.9439   -0.1700    0.1730 C.ar    1  LIG1       -0.0196
     26 C           7.7989    0.9760   -0.0538 C.ar    1  LIG1        0.0237
     27 C          10.6279    1.0214   -0.0589 C.ar    1  LIG1       -0.0583
     28 H          10.4953   -1.0898    0.3597 H       1  LIG1        0.0654
     29 C           8.5195    2.1588   -0.2849 C.ar    1  LIG1       -0.0505
     30 C           9.9125    2.1950   -0.2904 C.ar    1  LIG1       -0.0610
     31 H           7.9600    3.0675   -0.4848 H       1  LIG1        0.0625
     32 H          11.7137    1.0259   -0.0606 H       1  LIG1        0.0619
     33 O           7.8678   -1.3647    0.4207 O.3     1  LIG1       -0.5062
     34 H           8.5099   -2.0639    0.6009 H       1  LIG1        0.2922
     35 H          10.4314    3.1290   -0.4810 H       1  LIG1        0.0618
@<TRIPOS>BOND
     1    20    18    1
     2    23    19    1
     3     8     6    1
     4    12     7    1
     5    18    19   ar
     6    18    15   ar
     7    19    16   ar
     8     6     7   ar
     9     6     3   ar
    10     7     4   ar
    11    31    29    1
    12    35    30    1
    13    30    29   ar
    14    30    27   ar
    15    29    26   ar
    16     9     3    1
    17     3     1   ar
    18     4    15    1
    19     4     2   ar
    20    15    13   ar
    21    32    27    1
    22    27    25   ar
    23    26    16    1
    24    26    24   ar
    25    16    14   ar
    26    25    24   ar
    27    25    28    1
    28    24    33    1
    29     1     2   ar
    30     1    10    1
    31     2     5    1
    32    33    34    1
    33    13    14   ar
    34    13    21    1
    35    10    11    1
    36    14    17    1
    37    21    22    1
