@<TRIPOS>MOLECULE
mol_data/opt/b3lyp/geoms/mol2/4fa4fa4fa4fa-.out
 46 49 0 0 0
SMALL
GASTEIGER

@<TRIPOS>ATOM
      1 C          -0.3208    0.6879    0.8288 C.ar    1  LIG1        0.1174
      2 C           1.0708    0.5881    0.8724 C.ar    1  LIG1       -0.0124
      3 C          -0.9559    1.2961   -0.2586 C.ar    1  LIG1       -0.0201
      4 C           1.8579    1.0953   -0.1737 C.ar    1  LIG1       -0.0110
      5 H           1.5489    0.1119    1.7225 H       1  LIG1        0.0660
      6 C          -0.1784    1.7958   -1.2994 C.ar    1  LIG1       -0.0577
      7 C           1.2127    1.7002   -1.2654 C.ar    1  LIG1       -0.0537
      8 H          -0.6640    2.2593   -2.1533 H       1  LIG1        0.0619
      9 H          -2.0386    1.3598   -0.2714 H       1  LIG1        0.0654
     10 O          -1.1168    0.2089    1.8340 O.3     1  LIG1       -0.5067
     11 H          -0.5564   -0.1993    2.5069 H       1  LIG1        0.2921
     12 H           1.8008    2.0714   -2.0980 H       1  LIG1        0.0624
     13 C           4.0657   -0.0841    0.3223 C.ar    1  LIG1        0.1251
     14 C           5.4610   -0.0954    0.3203 C.ar    1  LIG1       -0.0117
     15 C           3.3427    1.0416   -0.1284 C.ar    1  LIG1        0.0237
     16 C           6.2018    1.0085   -0.1238 C.ar    1  LIG1       -0.0109
     17 H           5.9797   -0.9843    0.6655 H       1  LIG1        0.0660
     18 C           4.1011    2.1372   -0.5697 C.ar    1  LIG1       -0.0500
     19 C           5.4915    2.1334   -0.5723 C.ar    1  LIG1       -0.0531
     20 H           3.5742    3.0233   -0.9094 H       1  LIG1        0.0625
     21 O           3.3639   -1.1784    0.7572 O.3     1  LIG1       -0.5061
     22 H           3.9921   -1.8858    0.9541 H       1  LIG1        0.2922
     23 H           6.0286    3.0005   -0.9422 H       1  LIG1        0.0624
     24 C           8.4858   -0.0806   -0.4508 C.ar    1  LIG1        0.1251
     25 C           9.8791   -0.0035   -0.4202 C.ar    1  LIG1       -0.0117
     26 C           7.6866    1.0277   -0.0882 C.ar    1  LIG1        0.0237
     27 C          10.5435    1.1704   -0.0379 C.ar    1  LIG1       -0.0109
     28 H          10.4645   -0.8806   -0.6883 H       1  LIG1        0.0660
     29 C           8.3667    2.1923    0.2973 C.ar    1  LIG1       -0.0500
     30 C           9.7572    2.2775    0.3257 C.ar    1  LIG1       -0.0531
     31 H           7.7795    3.0566    0.5908 H       1  LIG1        0.0625
     32 O           7.8592   -1.2343   -0.8357 O.3     1  LIG1       -0.5061
     33 H           8.5290   -1.8760   -1.1072 H       1  LIG1        0.2922
     34 H          10.2312    3.2181    0.5890 H       1  LIG1        0.0624
     35 C          12.7416    1.7137    1.0855 C.ar    1  LIG1        0.1245
     36 C          14.1396    1.7533    1.0719 C.ar    1  LIG1       -0.0196
     37 C          12.0290    1.2248   -0.0319 C.ar    1  LIG1        0.0237
     38 C          14.8427    1.3079   -0.0429 C.ar    1  LIG1       -0.0583
     39 H          14.6509    2.1297    1.9517 H       1  LIG1        0.0654
     40 C          12.7669    0.7697   -1.1367 C.ar    1  LIG1       -0.0505
     41 C          14.1583    0.8094   -1.1543 C.ar    1  LIG1       -0.0610
     42 H          12.2243    0.4039   -2.0039 H       1  LIG1        0.0625
     43 H          15.9280    1.3479   -0.0418 H       1  LIG1        0.0619
     44 O          12.1274    2.1459    2.2253 O.3     1  LIG1       -0.5062
     45 H          11.1746    1.9857    2.1487 H       1  LIG1        0.2922
     46 H          14.7021    0.4637   -2.0275 H       1  LIG1        0.0618
@<TRIPOS>BOND
     1     8     6    1
     2    12     7    1
     3    46    41    1
     4    42    40    1
     5     6     7   ar
     6     6     3   ar
     7     7     4   ar
     8    41    40   ar
     9    41    38   ar
    10    40    37   ar
    11    33    32    1
    12    23    19    1
    13    20    18    1
    14    32    24    1
    15    28    25    1
    16    19    18   ar
    17    19    16   ar
    18    18    15   ar
    19    24    25   ar
    20    24    26   ar
    21    25    27   ar
    22     9     3    1
    23     3     1   ar
    24     4    15    1
    25     4     2   ar
    26    15    13   ar
    27    16    26    1
    28    16    14   ar
    29    26    29   ar
    30    38    43    1
    31    38    36   ar
    32    27    37    1
    33    27    30   ar
    34    37    35   ar
    35    29    30   ar
    36    29    31    1
    37    14    13   ar
    38    14    17    1
    39    13    21    1
    40    30    34    1
    41    21    22    1
    42     1     2   ar
    43     1    10    1
    44     2     5    1
    45    36    35   ar
    46    36    39    1
    47    35    44    1
    48    10    11    1
    49    45    44    1
