@<TRIPOS>MOLECULE
mol_data/opt/b3lyp/geoms/mol2/4fa4fa4fa.out
 35 37 0 0 0
SMALL
GASTEIGER

@<TRIPOS>ATOM
      1 C          -0.2096    0.3769    0.6071 C.ar    1  LIG1        0.1174
      2 C           1.1819    0.2762    0.6459 C.ar    1  LIG1       -0.0124
      3 C          -0.8304    1.3353   -0.2002 C.ar    1  LIG1       -0.0201
      4 C           1.9841    1.1333   -0.1246 C.ar    1  LIG1       -0.0110
      5 H           1.6493   -0.4733    1.2766 H       1  LIG1        0.0660
      6 C          -0.0383    2.1834   -0.9689 C.ar    1  LIG1       -0.0577
      7 C           1.3530    2.0898   -0.9377 C.ar    1  LIG1       -0.0537
      8 H          -0.5124    2.9229   -1.6079 H       1  LIG1        0.0619
      9 H          -1.9134    1.3934   -0.2157 H       1  LIG1        0.0654
     10 O          -1.0197   -0.4392    1.3500 O.3     1  LIG1       -0.5067
     11 H          -0.4672   -1.0604    1.8425 H       1  LIG1        0.2921
     12 H           1.9531    2.7413   -1.5641 H       1  LIG1        0.0624
     13 C           4.1969   -0.1336   -0.0289 C.ar    1  LIG1        0.1251
     14 C           5.5916   -0.1363    0.0068 C.ar    1  LIG1       -0.0117
     15 C           3.4681    1.0748   -0.0631 C.ar    1  LIG1        0.0237
     16 C           6.3275    1.0565    0.0121 C.ar    1  LIG1       -0.0109
     17 H           6.1150   -1.0874    0.0241 H       1  LIG1        0.0660
     18 C           4.2211    2.2594   -0.0590 C.ar    1  LIG1       -0.0500
     19 C           5.6111    2.2634   -0.0230 C.ar    1  LIG1       -0.0531
     20 H           3.6898    3.2059   -0.0712 H       1  LIG1        0.0625
     21 O           3.5016   -1.3158   -0.0391 O.3     1  LIG1       -0.5061
     22 H           4.1371   -2.0418   -0.0923 H       1  LIG1        0.2922
     23 H           6.1448    3.2079   -0.0396 H       1  LIG1        0.0624
     24 C           8.6333    0.1672   -0.6106 C.ar    1  LIG1        0.1245
     25 C          10.0259    0.2379   -0.5099 C.ar    1  LIG1       -0.0196
     26 C           7.8110    1.0685    0.1013 C.ar    1  LIG1        0.0237
     27 C          10.6319    1.1977    0.2977 C.ar    1  LIG1       -0.0583
     28 H          10.6353   -0.4652   -1.0748 H       1  LIG1        0.0654
     29 C           8.4548    2.0203    0.9093 C.ar    1  LIG1       -0.0505
     30 C           9.8421    2.0949    1.0146 C.ar    1  LIG1       -0.0610
     31 H           7.8383    2.7046    1.4838 H       1  LIG1        0.0625
     32 H          11.7149    1.2365    0.3660 H       1  LIG1        0.0619
     33 O           8.0338   -0.7688   -1.4126 O.3     1  LIG1       -0.5062
     34 H           8.7221   -1.2618   -1.8783 H       1  LIG1        0.2922
     35 H          10.2992    2.8414    1.6562 H       1  LIG1        0.0618
@<TRIPOS>BOND
     1    34    33    1
     2     8     6    1
     3    12     7    1
     4    33    24    1
     5    28    25    1
     6     6     7   ar
     7     6     3   ar
     8     7     4   ar
     9    24    25   ar
    10    24    26   ar
    11    25    27   ar
    12     9     3    1
    13     3     1   ar
    14     4    15    1
    15     4     2   ar
    16    22    21    1
    17    20    18    1
    18    15    18   ar
    19    15    13   ar
    20    18    19   ar
    21    23    19    1
    22    21    13    1
    23    13    14   ar
    24    19    16   ar
    25    14    16   ar
    26    14    17    1
    27    16    26    1
    28    26    29   ar
    29    27    32    1
    30    27    30   ar
    31     1     2   ar
    32     1    10    1
    33     2     5    1
    34    29    30   ar
    35    29    31    1
    36    30    35    1
    37    10    11    1
