@<TRIPOS>MOLECULE
mol_data/opt/b3lyp/geoms/mol2/4fa4fa4fa-4fa-.out
 46 49 0 0 0
SMALL
GASTEIGER

@<TRIPOS>ATOM
      1 C          -0.3020    0.0307    0.0022 C.ar    1  LIG1        0.1174
      2 C           1.0920   -0.0236    0.0520 C.ar    1  LIG1       -0.0124
      3 C          -0.9596    1.2564   -0.1460 C.ar    1  LIG1       -0.0201
      4 C           1.8566    1.1496   -0.0460 C.ar    1  LIG1       -0.0110
      5 H           1.5886   -0.9817    0.1677 H       1  LIG1        0.0660
      6 C          -0.2038    2.4211   -0.2385 C.ar    1  LIG1       -0.0577
      7 C           1.1896    2.3773   -0.1900 C.ar    1  LIG1       -0.0537
      8 H          -0.7076    3.3777   -0.3427 H       1  LIG1        0.0619
      9 H          -2.0435    1.2741   -0.1796 H       1  LIG1        0.0654
     10 O          -1.0788   -1.0917    0.0877 O.3     1  LIG1       -0.5067
     11 H          -0.5060   -1.8612    0.2032 H       1  LIG1        0.2921
     12 H           1.7620    3.2978   -0.2384 H       1  LIG1        0.0624
     13 C           4.0986    0.2917    0.8224 C.ar    1  LIG1        0.1251
     14 C           5.4941    0.3154    0.8009 C.ar    1  LIG1       -0.0117
     15 C           3.3428    1.1129   -0.0455 C.ar    1  LIG1        0.0237
     16 C           6.2024    1.1395   -0.0852 C.ar    1  LIG1       -0.0109
     17 H           6.0453   -0.3054    1.5043 H       1  LIG1        0.0660
     18 C           4.0664    1.9296   -0.9260 C.ar    1  LIG1       -0.0500
     19 C           5.4595    1.9540   -0.9576 C.ar    1  LIG1       -0.0531
     20 H           3.5120    2.5415   -1.6305 H       1  LIG1        0.0625
     21 O           3.4277   -0.5095    1.7040 O.3     1  LIG1       -0.5061
     22 H           4.0707   -0.9610    2.2669 H       1  LIG1        0.2922
     23 H           5.9672    2.5591   -1.7028 H       1  LIG1        0.0624
     24 C           8.4368    2.3217   -0.0599 C.ar    1  LIG1        0.1251
     25 C           9.8353    2.2881   -0.0671 C.ar    1  LIG1       -0.0117
     26 C           7.6878    1.1259   -0.0975 C.ar    1  LIG1        0.0237
     27 C          10.5330    1.0710   -0.1064 C.ar    1  LIG1       -0.0109
     28 H          10.3622    3.2371   -0.0835 H       1  LIG1        0.0660
     29 C           8.4002   -0.0833   -0.1279 C.ar    1  LIG1       -0.0500
     30 C           9.7893   -0.1220   -0.1314 C.ar    1  LIG1       -0.0531
     31 H           7.8384   -1.0123   -0.1651 H       1  LIG1        0.0625
     32 O           7.8600    3.5550   -0.0049 O.3     1  LIG1       -0.5061
     33 H           6.8992    3.4493    0.0725 H       1  LIG1        0.2922
     34 H          10.3073   -1.0752   -0.1453 H       1  LIG1        0.0624
     35 C          12.7907    1.7730    0.7973 C.ar    1  LIG1        0.1245
     36 C          14.1878    1.7131    0.7621 C.ar    1  LIG1       -0.0196
     37 C          12.0197    1.0347   -0.1275 C.ar    1  LIG1        0.0237
     38 C          14.8320    0.9225   -0.1842 C.ar    1  LIG1       -0.0583
     39 H          14.7445    2.2898    1.4933 H       1  LIG1        0.0654
     40 C          12.6984    0.2351   -1.0615 C.ar    1  LIG1       -0.0505
     41 C          14.0885    0.1751   -1.1010 C.ar    1  LIG1       -0.0610
     42 H          12.1109   -0.3274   -1.7815 H       1  LIG1        0.0625
     43 H          15.9175    0.8882   -0.2029 H       1  LIG1        0.0619
     44 O          12.2365    2.5528    1.7711 O.3     1  LIG1       -0.5062
     45 H          11.2735    2.4470    1.7484 H       1  LIG1        0.2922
     46 H          14.5862   -0.4415   -1.8425 H       1  LIG1        0.0618
@<TRIPOS>BOND
     1    46    41    1
     2    42    40    1
     3    23    19    1
     4    20    18    1
     5    41    40   ar
     6    41    38   ar
     7    40    37   ar
     8    19    18   ar
     9    19    16   ar
    10    18    15   ar
    11     8     6    1
    12     6     7   ar
    13     6     3   ar
    14    12     7    1
    15    43    38    1
    16     7     4   ar
    17    38    36   ar
    18     9     3    1
    19    31    29    1
    20     3     1   ar
    21    34    30    1
    22    30    29   ar
    23    30    27   ar
    24    29    26   ar
    25    37    27    1
    26    37    35   ar
    27    27    25   ar
    28    26    16    1
    29    26    24   ar
    30    16    14   ar
    31    28    25    1
    32    25    24   ar
    33    24    32    1
    34     4    15    1
    35     4     2   ar
    36    15    13   ar
    37    32    33    1
    38     1     2   ar
    39     1    10    1
    40     2     5    1
    41    10    11    1
    42    36    35   ar
    43    36    39    1
    44    35    44    1
    45    14    13   ar
    46    14    17    1
    47    13    21    1
    48    21    22    1
    49    45    44    1
