@<TRIPOS>MOLECULE
mol_data/opt/b3lyp/geoms/mol2/4fa4fa4fa4fa.out
 46 49 0 0 0
SMALL
GASTEIGER

@<TRIPOS>ATOM
      1 C          -0.3414    0.7318    0.7916 C.ar    1  LIG1        0.1174
      2 C           1.0471    0.6024    0.8501 C.ar    1  LIG1       -0.0124
      3 C          -0.9502    1.3788   -0.2883 C.ar    1  LIG1       -0.0201
      4 C           1.8587    1.1176   -0.1732 C.ar    1  LIG1       -0.0110
      5 H           1.5043    0.0960    1.6943 H       1  LIG1        0.0660
      6 C          -0.1488    1.8866   -1.3071 C.ar    1  LIG1       -0.0577
      7 C           1.2393    1.7612   -1.2582 C.ar    1  LIG1       -0.0537
      8 H          -0.6137    2.3803   -2.1557 H       1  LIG1        0.0619
      9 H          -2.0312    1.4653   -0.3132 H       1  LIG1        0.0654
     10 O          -1.1595    0.2450    1.7757 O.3     1  LIG1       -0.5067
     11 H          -0.6148   -0.1913    2.4439 H       1  LIG1        0.2921
     12 H           1.8458    2.1395   -2.0743 H       1  LIG1        0.0624
     13 C           4.0354   -0.1162    0.3277 C.ar    1  LIG1        0.1251
     14 C           5.4299   -0.1558    0.3454 C.ar    1  LIG1       -0.0117
     15 C           3.3412    1.0322   -0.1099 C.ar    1  LIG1        0.0237
     16 C           6.2006    0.9407   -0.0651 C.ar    1  LIG1       -0.0109
     17 H           5.9257   -1.0619    0.6796 H       1  LIG1        0.0660
     18 C           4.1284    2.1205   -0.5186 C.ar    1  LIG1       -0.0500
     19 C           5.5181    2.0882   -0.5013 C.ar    1  LIG1       -0.0531
     20 H           3.6246    3.0239   -0.8480 H       1  LIG1        0.0625
     21 O           3.3064   -1.2060    0.7311 O.3     1  LIG1       -0.5061
     22 H           3.9202   -1.9275    0.9220 H       1  LIG1        0.2922
     23 H           6.0781    2.9513   -0.8459 H       1  LIG1        0.0624
     24 C           8.4669   -0.1911   -0.3631 C.ar    1  LIG1        0.1251
     25 C           9.8604   -0.1429   -0.3185 C.ar    1  LIG1       -0.0117
     26 C           7.6841    0.9284   -0.0063 C.ar    1  LIG1        0.0237
     27 C          10.5417    1.0131    0.0857 C.ar    1  LIG1       -0.0109
     28 H          10.4263   -1.0221   -0.6111 H       1  LIG1        0.0660
     29 C           8.3833    2.0777    0.3960 C.ar    1  LIG1       -0.0500
     30 C           9.7715    2.1307    0.4453 C.ar    1  LIG1       -0.0531
     31 H           7.8104    2.9511    0.6912 H       1  LIG1        0.0625
     32 O           7.8255   -1.3345   -0.7661 O.3     1  LIG1       -0.5061
     33 H           8.4922   -1.9728   -1.0522 H       1  LIG1        0.2922
     34 H          10.2626    3.0498    0.7471 H       1  LIG1        0.0624
     35 C          12.8784    0.4928   -0.7858 C.ar    1  LIG1        0.1245
     36 C          14.2673    0.5917   -0.6605 C.ar    1  LIG1       -0.0196
     37 C          12.0237    1.0624    0.1837 C.ar    1  LIG1        0.0237
     38 C          14.8371    1.2510    0.4264 C.ar    1  LIG1       -0.0583
     39 H          14.9022    0.1498   -1.4263 H       1  LIG1        0.0654
     40 C          12.6313    1.7163    1.2683 C.ar    1  LIG1       -0.0505
     41 C          14.0148    1.8161    1.3998 C.ar    1  LIG1       -0.0610
     42 H          11.9900    2.1385    2.0356 H       1  LIG1        0.0625
     43 H          15.9179    1.3159    0.5093 H       1  LIG1        0.0619
     44 O          12.3133   -0.1460   -1.8587 O.3     1  LIG1       -0.5062
     45 H          13.0175   -0.4165   -2.4625 H       1  LIG1        0.2922
     46 H          14.4442    2.3240    2.2575 H       1  LIG1        0.0618
@<TRIPOS>BOND
     1    45    44    1
     2     8     6    1
     3    12     7    1
     4    44    35    1
     5    39    36    1
     6     6     7   ar
     7     6     3   ar
     8     7     4   ar
     9    33    32    1
    10    20    18    1
    11    23    19    1
    12    35    36   ar
    13    35    37   ar
    14    32    24    1
    15    36    38   ar
    16    28    25    1
    17    18    19   ar
    18    18    15   ar
    19    19    16   ar
    20    24    25   ar
    21    24    26   ar
    22    25    27   ar
    23     9     3    1
    24     3     1   ar
    25     4    15    1
    26     4     2   ar
    27    15    13   ar
    28    16    26    1
    29    16    14   ar
    30    26    29   ar
    31    27    37    1
    32    27    30   ar
    33    37    40   ar
    34    13    14   ar
    35    13    21    1
    36    14    17    1
    37    29    30   ar
    38    29    31    1
    39    38    43    1
    40    38    41   ar
    41    30    34    1
    42    21    22    1
    43     1     2   ar
    44     1    10    1
    45     2     5    1
    46    40    41   ar
    47    40    42    1
    48    41    46    1
    49    10    11    1
