@<TRIPOS>MOLECULE
mol_data/opt/b3lyp/geoms/mol2/4fd12id-13lh-4lf-.out
 54 57 0 0 0
SMALL
GASTEIGER

@<TRIPOS>ATOM
      1 C          -0.2873    0.3081    0.8132 C.ar    1  LIG1        0.1176
      2 C           1.0975    0.1736    0.7196 C.ar    1  LIG1       -0.0083
      3 C          -0.9068    1.5273    0.5031 C.ar    1  LIG1       -0.0189
      4 C           1.9173    1.2375    0.3006 C.ar    1  LIG1        0.0384
      5 H           1.5525   -0.7673    1.0061 H       1  LIG1        0.0661
      6 C          -0.1187    2.5910    0.1047 C.ar    1  LIG1       -0.0402
      7 C           1.2818    2.4771   -0.0076 C.ar    1  LIG1        0.0626
      8 H          -0.5803    3.5430   -0.1350 H       1  LIG1        0.0632
      9 H          -1.9834    1.6163    0.5880 H       1  LIG1        0.0654
     10 O          -1.0921   -0.7079    1.2177 O.3     1  LIG1       -0.5067
     11 H          -0.5602   -1.4927    1.4071 H       1  LIG1        0.2921
     12 N           2.4522    4.6443   -0.8200 N.1     1  LIG1       -0.1908
     13 C           1.9742    3.6467   -0.4528 C.1     1  LIG1        0.0999
     14 C           3.3518    1.0430    0.2047 C.ar    1  LIG1        0.1413
     15 C           4.1825   -0.0542    0.1394 C.ar    1  LIG1        0.0134
     16 C           5.5213    0.4643    0.0235 C.ar    1  LIG1        0.1025
     17 C           5.4287    1.8554    0.0158 C.ar    1  LIG1        0.1730
     18 O           4.1159    2.1884    0.1333 O.2     1  LIG1       -0.4516
     19 C           3.8455   -1.5147    0.1398 C.3     1  LIG1       -0.0349
     20 H           4.6889   -2.0959   -0.2400 H       1  LIG1        0.0279
     21 H           2.9751   -1.7273   -0.4879 H       1  LIG1        0.0279
     22 H           3.6311   -1.8823    1.1508 H       1  LIG1        0.0279
     23 N           7.5543   -1.1026   -0.2292 N.1     1  LIG1       -0.1907
     24 C           6.6699   -0.3534   -0.1069 C.1     1  LIG1        0.1033
     25 C           6.3127    2.9649   -0.1041 C.ar    1  LIG1        0.1279
     26 C           7.7079    3.0931   -0.1505 C.ar    1  LIG1        0.1695
     27 C           8.0320    4.4717   -0.2107 C.ar    1  LIG1        0.0933
     28 C           6.8098    5.1829   -0.2201 C.ar    1  LIG1        0.0752
     29 N           5.8024    4.2402   -0.1475 N.ar    1  LIG1       -0.3472
     30 H           4.8182    4.4529   -0.0676 H       1  LIG1        0.1662
     31 O           8.6146    2.0714   -0.1152 O.3     1  LIG1       -0.4910
     32 C           9.0888    1.6376   -1.3977 C.3     1  LIG1        0.0790
     33 H           9.7360    0.7805   -1.2109 H       1  LIG1        0.0660
     34 H           8.2603    1.3265   -2.0425 H       1  LIG1        0.0660
     35 H           9.6551    2.4297   -1.9052 H       1  LIG1        0.0660
     36 N           9.3284    4.9521   -0.2067 N.pl3   1  LIG1       -0.3535
     37 H          10.0277    4.3347   -0.5878 H       1  LIG1        0.1425
     38 H           9.4421    5.9367   -0.3977 H       1  LIG1        0.1425
     39 C           7.2520    7.6919   -0.0564 C.ar    1  LIG1        0.1295
     40 C           6.8022    8.9974   -0.2578 C.ar    1  LIG1       -0.0159
     41 C           6.4393    6.5896   -0.3992 C.ar    1  LIG1        0.0453
     42 C           5.5373    9.2607   -0.7732 C.ar    1  LIG1       -0.0167
     43 H           7.4701    9.8099    0.0105 H       1  LIG1        0.0655
     44 C           5.1664    6.8765   -0.9371 C.ar    1  LIG1       -0.0075
     45 C           4.7090    8.1817   -1.1000 C.ar    1  LIG1        0.1177
     46 H           4.5197    6.0682   -1.2606 H       1  LIG1        0.0662
     47 H           5.1832   10.2748   -0.9213 H       1  LIG1        0.0655
     48 O           8.5252    7.5212    0.4699 O.3     1  LIG1       -0.4944
     49 C           8.5558    7.3158    1.8877 C.3     1  LIG1        0.0788
     50 H           9.6047    7.1900    2.1607 H       1  LIG1        0.0660
     51 H           8.1374    8.1840    2.4113 H       1  LIG1        0.0660
     52 H           7.9997    6.4156    2.1707 H       1  LIG1        0.0660
     53 O           3.4656    8.4498   -1.5970 O.3     1  LIG1       -0.5067
     54 H           2.9810    7.6162   -1.6835 H       1  LIG1        0.2921
@<TRIPOS>BOND
     1    34    32    1
     2    35    32    1
     3    54    53    1
     4    53    45    1
     5    32    33    1
     6    32    31    1
     7    46    44    1
     8    45    44   ar
     9    45    42   ar
    10    44    41   ar
    11    47    42    1
    12    12    13    3
    13    42    40   ar
    14    37    36    1
    15    21    19    1
    16    13     7    1
    17    41    28    1
    18    41    39   ar
    19    38    36    1
    20    40    39   ar
    21    40    43    1
    22    20    19    1
    23    23    24    3
    24    28    27   ar
    25    28    29   ar
    26    27    36    1
    27    27    26   ar
    28    26    31    1
    29    26    25   ar
    30    29    25   ar
    31    29    30    1
    32     8     6    1
    33    24    16    1
    34    25    17    1
    35    39    48    1
    36     7     6   ar
    37     7     4   ar
    38    17    16   ar
    39    17    18   ar
    40    16    15   ar
    41     6     3   ar
    42    18    14   ar
    43    15    19    1
    44    15    14   ar
    45    19    22    1
    46    14     4    1
    47     4     2   ar
    48    48    49    1
    49     3     9    1
    50     3     1   ar
    51     2     1   ar
    52     2     5    1
    53     1    10    1
    54    10    11    1
    55    49    50    1
    56    49    52    1
    57    49    51    1
