@<TRIPOS>MOLECULE
mol_data/opt/b3lyp/geoms/mol2/4fd12ei6ff6ii-.out
 52 55 0 0 0
SMALL
GASTEIGER

@<TRIPOS>ATOM
      1 C          -0.0201   -0.4041    0.6037 C.ar    1  LIG1        0.1176
      2 C           1.3532   -0.2289    0.4407 C.ar    1  LIG1       -0.0082
      3 C          -0.8989    0.6763    0.4457 C.ar    1  LIG1       -0.0189
      4 C           1.8985    1.0219    0.1043 C.ar    1  LIG1        0.0393
      5 H           2.0174   -1.0740    0.5823 H       1  LIG1        0.0661
      6 C          -0.3799    1.9165    0.1200 C.ar    1  LIG1       -0.0402
      7 C           1.0027    2.1156   -0.0586 C.ar    1  LIG1        0.0627
      8 H          -1.0443    2.7641   -0.0082 H       1  LIG1        0.0632
      9 H          -1.9632    0.5236    0.5818 H       1  LIG1        0.0654
     10 O          -0.5655   -1.6049    0.9296 O.3     1  LIG1       -0.5067
     11 H           0.1339   -2.2672    1.0122 H       1  LIG1        0.2921
     12 N           1.7063    4.5262   -0.7053 N.1     1  LIG1       -0.1908
     13 C           1.4216    3.4336   -0.4186 C.1     1  LIG1        0.0999
     14 C           3.3398    1.1403   -0.0564 C.ar    1  LIG1        0.1526
     15 C           4.3683    0.2181   -0.1933 C.ar    1  LIG1        0.0739
     16 C           5.5983    0.9599   -0.3048 C.ar    1  LIG1        0.0115
     17 C           5.2488    2.2899   -0.2418 C.ar    1  LIG1        0.1450
     18 O           3.8850    2.3907   -0.0864 O.2     1  LIG1       -0.4531
     19 C           4.2959   -1.1971   -0.2327 C.1     1  LIG1       -0.0656
     20 C           4.3022   -2.4079   -0.2719 C.1     1  LIG1       -0.1138
     21 H           4.3043   -3.4725   -0.3216 H       1  LIG1        0.1232
     22 C           6.9570    0.3405   -0.4213 C.3     1  LIG1       -0.0349
     23 H           7.7109    0.9303    0.1066 H       1  LIG1        0.0279
     24 H           7.2783    0.2480   -1.4658 H       1  LIG1        0.0279
     25 H           6.9471   -0.6671    0.0020 H       1  LIG1        0.0279
     26 C           5.6027    4.7437    0.3362 C.ar    1  LIG1        0.2240
     27 C           6.0194    3.5257   -0.2802 C.ar    1  LIG1        0.0823
     28 C           7.2725    3.5426   -0.9084 C.ar    1  LIG1       -0.0022
     29 C           8.0838    4.6703   -0.8491 C.ar    1  LIG1        0.1437
     30 C           7.6173    5.7912   -0.1359 C.ar    1  LIG1        0.1178
     31 N           6.3932    5.8040    0.4088 N.ar    1  LIG1       -0.2087
     32 H           7.6273    2.6854   -1.4666 H       1  LIG1        0.0663
     33 O           4.4029    4.9106    0.9317 O.3     1  LIG1       -0.4919
     34 H           3.7481    4.2908    0.5771 H       1  LIG1        0.2938
     35 O           9.2877    4.6237   -1.4969 O.3     1  LIG1       -0.5046
     36 H           9.6809    5.5087   -1.4766 H       1  LIG1        0.2922
     37 C           7.9942    8.3086   -0.2903 C.ar    1  LIG1        0.0475
     38 C           8.4632    7.0076    0.0280 C.ar    1  LIG1        0.0253
     39 C           9.7655    6.8828    0.5270 C.ar    1  LIG1       -0.0464
     40 C          10.5761    8.0077    0.7129 C.ar    1  LIG1       -0.0317
     41 C          10.0075    9.2346    0.3685 C.ar    1  LIG1        0.0308
     42 N           8.7699    9.3868   -0.1167 N.ar    1  LIG1       -0.2592
     43 H          10.1398    5.8982    0.8005 H       1  LIG1        0.0628
     44 H          10.5844   10.1512    0.4906 H       1  LIG1        0.0832
     45 C           6.6172    8.5616   -0.8480 C.3     1  LIG1       -0.0217
     46 H           5.8480    8.3361   -0.1046 H       1  LIG1        0.0293
     47 H           6.4097    7.9225   -1.7127 H       1  LIG1        0.0293
     48 H           6.5448    9.6083   -1.1462 H       1  LIG1        0.0293
     49 C          11.9748    7.9045    1.2662 C.3     1  LIG1       -0.0383
     50 H          12.4485    8.8883    1.3245 H       1  LIG1        0.0278
     51 H          12.6092    7.2650    0.6419 H       1  LIG1        0.0278
     52 H          11.9750    7.4740    2.2739 H       1  LIG1        0.0278
@<TRIPOS>BOND
     1    47    45    1
     2    35    36    1
     3    35    29    1
     4    32    28    1
     5    24    22    1
     6    48    45    1
     7    28    29   ar
     8    28    27   ar
     9    29    30   ar
    10    45    37    1
    11    45    46    1
    12    12    13    3
    13    22    16    1
    14    22    25    1
    15    22    23    1
    16    13     7    1
    17    21    20    1
    18    16    17   ar
    19    16    15   ar
    20    37    42   ar
    21    37    38   ar
    22    27    17    1
    23    27    26   ar
    24    20    19    3
    25    17    18   ar
    26    19    15    1
    27    15    14   ar
    28    30    38    1
    29    30    31   ar
    30    42    41   ar
    31    18    14   ar
    32     7     4   ar
    33     7     6   ar
    34    14     4    1
    35     8     6    1
    36    38    39   ar
    37     4     2   ar
    38     6     3   ar
    39    26    31   ar
    40    26    33    1
    41    41    44    1
    42    41    40   ar
    43     2     5    1
    44     2     1   ar
    45     3     9    1
    46     3     1   ar
    47    39    40   ar
    48    39    43    1
    49    34    33    1
    50     1    10    1
    51    51    49    1
    52    40    49    1
    53    10    11    1
    54    49    50    1
    55    49    52    1
