@<TRIPOS>MOLECULE
mol_data/opt/b3lyp/geoms/mol2/4fd4af4da6ei-13hl13ef13ia-6li-.out
 102 109 0 0 0
SMALL
GASTEIGER

@<TRIPOS>ATOM
      1 C          -0.7117    0.1191   -0.4144 C.ar    1  LIG1        0.1175
      2 C           0.6842    0.1787   -0.3804 C.ar    1  LIG1       -0.0112
      3 C          -1.4697    0.8213    0.5315 C.ar    1  LIG1       -0.0189
      4 C           1.3624    0.9310    0.5863 C.ar    1  LIG1        0.0030
      5 H           1.2636   -0.3920   -1.1013 H       1  LIG1        0.0660
      6 C          -0.8165    1.5717    1.4945 C.ar    1  LIG1       -0.0403
      7 C           0.5896    1.6403    1.5396 C.ar    1  LIG1        0.0597
      8 H          -1.3905    2.1272    2.2284 H       1  LIG1        0.0632
      9 H          -2.5515    0.7641    0.4946 H       1  LIG1        0.0654
     10 O          -1.3889   -0.6128   -1.3368 O.3     1  LIG1       -0.5067
     11 H          -0.7620   -1.0528   -1.9268 H       1  LIG1        0.2921
     12 N           1.6272    3.1374    3.3893 N.1     1  LIG1       -0.1909
     13 C           1.1851    2.4648    2.5477 C.1     1  LIG1        0.0998
     14 C           3.5310    1.0950   -0.6557 C.ar    1  LIG1       -0.0532
     15 C           4.9209    1.0845   -0.6852 C.ar    1  LIG1       -0.0499
     16 C           2.8481    0.9567    0.5620 C.ar    1  LIG1       -0.0131
     17 C           5.6890    0.9414    0.4791 C.ar    1  LIG1        0.0248
     18 H           5.4299    1.2100   -1.6347 H       1  LIG1        0.0625
     19 C           3.5999    0.8133    1.7346 C.ar    1  LIG1       -0.0118
     20 C           4.9952    0.8155    1.7016 C.ar    1  LIG1        0.1251
     21 H           3.0992    0.6824    2.6891 H       1  LIG1        0.0660
     22 H           2.9749    1.2415   -1.5753 H       1  LIG1        0.0624
     23 O           5.7290    0.6667    2.8431 O.3     1  LIG1       -0.5061
     24 H           5.1303    0.6341    3.6014 H       1  LIG1        0.2922
     25 C           7.8886    0.1235   -0.4865 C.ar    1  LIG1        0.0601
     26 C           9.2899    0.1773   -0.5528 C.ar    1  LIG1       -0.0360
     27 C           7.1732    0.9421    0.4202 C.ar    1  LIG1        0.0030
     28 C          10.0265    1.0340    0.2719 C.ar    1  LIG1       -0.0140
     29 H           9.8011   -0.4553   -1.2705 H       1  LIG1        0.0637
     30 C           7.9272    1.7849    1.2501 C.ar    1  LIG1       -0.0521
     31 C           9.3143    1.8356    1.1807 C.ar    1  LIG1       -0.0533
     32 H           7.4077    2.4090    1.9674 H       1  LIG1        0.0624
     33 N           6.7296   -1.5841   -2.0663 N.1     1  LIG1       -0.1908
     34 C           7.2232   -0.8102   -1.3509 C.1     1  LIG1        0.0998
     35 H           9.8538    2.5009    1.8443 H       1  LIG1        0.0624
     36 C          12.3069    2.2012    0.1782 C.ar    1  LIG1        0.1216
     37 C          11.5075    1.0323    0.1951 C.ar    1  LIG1        0.0163
     38 C          12.2030   -0.1844    0.1527 C.ar    1  LIG1       -0.0464
     39 C          13.5903   -0.2570    0.0607 C.ar    1  LIG1       -0.0223
     40 C          14.2820    0.9795   -0.0664 C.ar    1  LIG1        0.0933
     41 N          13.6404    2.1612    0.0411 N.ar    1  LIG1       -0.2360
     42 H          11.6389   -1.1078    0.2546 H       1  LIG1        0.0628
     43 C          11.7432    3.5214    0.2558 C.1     1  LIG1       -0.0492
     44 C          11.3007    4.6457    0.3131 C.1     1  LIG1       -0.1124
     45 H          10.9062    5.6346    0.3581 H       1  LIG1        0.1232
     46 C          14.2895   -1.5801    0.2364 C.3     1  LIG1       -0.0376
     47 H          14.9936   -1.5235    1.0747 H       1  LIG1        0.0278
     48 H          14.8863   -1.8833   -0.6278 H       1  LIG1        0.0278
     49 H          13.5639   -2.3683    0.4530 H       1  LIG1        0.0278
     50 C          15.7240    1.0998   -0.2407 C.ar    1  LIG1        0.0903
     51 C          16.6994    0.3667   -0.9259 C.ar    1  LIG1        0.0947
     52 C          17.9422    1.0300   -0.7355 C.ar    1  LIG1        0.1679
     53 C          17.7174    2.1836    0.0162 C.ar    1  LIG1        0.1088
     54 N          16.3652    2.2194    0.2676 N.ar    1  LIG1       -0.3474
     55 H          15.8963    2.8568    0.8922 H       1  LIG1        0.1662
     56 N          16.5520   -0.7544   -1.7603 N.pl3   1  LIG1       -0.3534
     57 H          15.6990   -0.7164   -2.3076 H       1  LIG1        0.1425
     58 H          17.3432   -0.8128   -2.3949 H       1  LIG1        0.1425
     59 O          19.1047    0.6618   -1.3578 O.3     1  LIG1       -0.4911
     60 C          19.7387   -0.4951   -0.7896 C.3     1  LIG1        0.0790
     61 H          20.6266   -0.6840   -1.3962 H       1  LIG1        0.0660
     62 H          20.0369   -0.3019    0.2442 H       1  LIG1        0.0660
     63 H          19.0773   -1.3695   -0.8259 H       1  LIG1        0.0660
     64 C          18.5617    3.2989    0.3874 C.ar    1  LIG1        0.0863
     65 C          19.8742    3.3889    0.8804 C.ar    1  LIG1        0.0935
     66 C          20.1334    4.7782    1.0918 C.ar    1  LIG1        0.1595
     67 C          19.0031    5.5069    0.7553 C.ar    1  LIG1        0.1069
     68 N          18.0599    4.5769    0.3308 N.ar    1  LIG1       -0.3479
     69 H          17.1532    4.8104   -0.0429 H       1  LIG1        0.1661
     70 C          20.7808    2.3450    1.1816 C.1     1  LIG1       -0.0638
     71 C          21.5931    1.4969    1.4790 C.1     1  LIG1       -0.1137
     72 H          22.3171    0.7591    1.7341 H       1  LIG1        0.1232
     73 O          21.3235    5.2569    1.5407 O.3     1  LIG1       -0.5034
     74 H          21.3026    6.2218    1.4620 H       1  LIG1        0.2923
     75 C          18.7862    6.9409    0.7584 C.ar    1  LIG1        0.0699
     76 C          19.0458    7.8990    1.7441 C.ar    1  LIG1       -0.0231
     77 C          18.6471    9.1497    1.2121 C.ar    1  LIG1       -0.0327
     78 C          18.1437    8.9498   -0.0716 C.ar    1  LIG1        0.0523
     79 N          18.2376    7.5987   -0.3214 N.ar    1  LIG1       -0.3526
     80 H          18.0085    7.1991   -1.2194 H       1  LIG1        0.1660
     81 C          19.5785    7.6420    3.1256 C.3     1  LIG1       -0.0376
     82 H          18.9868    8.1745    3.8779 H       1  LIG1        0.0278
     83 H          20.6158    7.9807    3.2460 H       1  LIG1        0.0278
     84 H          19.5493    6.5770    3.3702 H       1  LIG1        0.0278
     85 H          18.6992   10.0958    1.7329 H       1  LIG1        0.0642
     86 C          17.0915    9.5664   -2.3126 C.ar    1  LIG1        0.2238
     87 C          17.6096    9.9108   -1.0319 C.ar    1  LIG1        0.0600
     88 C          17.5795   11.2780   -0.7345 C.ar    1  LIG1       -0.0432
     89 C          17.0699   12.2237   -1.6318 C.ar    1  LIG1       -0.0315
     90 C          16.5930   11.7366   -2.8457 C.ar    1  LIG1        0.0343
     91 N          16.6058   10.4363   -3.1774 N.ar    1  LIG1       -0.2205
     92 H          17.9660   11.6136    0.2233 H       1  LIG1        0.0629
     93 H          16.1822   12.4148   -3.5914 H       1  LIG1        0.0833
     94 O          17.0999    8.2458   -2.6677 O.3     1  LIG1       -0.4792
     95 C          16.5790    7.9158   -3.9617 C.3     1  LIG1        0.0804
     96 H          16.6758    6.8324   -4.0435 H       1  LIG1        0.0660
     97 H          15.5314    8.2139   -4.0486 H       1  LIG1        0.0660
     98 H          17.1497    8.4110   -4.7512 H       1  LIG1        0.0660
     99 C          17.0412   13.6951   -1.3011 C.3     1  LIG1       -0.0383
    100 H          16.6022   14.2739   -2.1184 H       1  LIG1        0.0278
    101 H          18.0490   14.0859   -1.1208 H       1  LIG1        0.0278
    102 H          16.4513   13.8927   -0.3990 H       1  LIG1        0.0278
@<TRIPOS>BOND
     1    98    95    1
     2    97    95    1
     3    96    95    1
     4    95    94    1
     5    93    90    1
     6    91    90   ar
     7    91    86   ar
     8    90    89   ar
     9    94    86    1
    10    58    56    1
    11    86    87   ar
    12    57    56    1
    13   100    99    1
    14    33    34    3
    15    11    10    1
    16    56    51    1
    17    18    15    1
    18    89    99    1
    19    89    88   ar
    20    22    14    1
    21    61    60    1
    22    59    60    1
    23    59    52    1
    24    34    25    1
    25    10     1    1
    26    99   101    1
    27    99   102    1
    28    29    26    1
    29    80    79    1
    30     5     2    1
    31    87    88   ar
    32    87    78    1
    33    51    52   ar
    34    51    50   ar
    35    63    60    1
    36    60    62    1
    37    52    53   ar
    38    88    92    1
    39    15    14   ar
    40    15    17   ar
    41    14    16   ar
    42    48    46    1
    43    26    25   ar
    44    26    28   ar
    45    25    27   ar
    46     1     2   ar
    47     1     3   ar
    48     2     4   ar
    49    79    78   ar
    50    79    75   ar
    51    50    40    1
    52    50    54   ar
    53    78    77   ar
    54    40    41   ar
    55    40    39   ar
    56    69    68    1
    57    53    54   ar
    58    53    64    1
    59    41    36   ar
    60    39    38   ar
    61    39    46    1
    62    38    37   ar
    63    38    42    1
    64    36    37   ar
    65    36    43    1
    66    37    28    1
    67    46    49    1
    68    46    47    1
    69    43    44    3
    70    54    55    1
    71    28    31   ar
    72    44    45    1
    73    68    64   ar
    74    68    67   ar
    75    64    65   ar
    76    27    17    1
    77    27    30   ar
    78    17    20   ar
    79     9     3    1
    80     3     6   ar
    81    16     4    1
    82    16    19   ar
    83     4     7   ar
    84    67    75    1
    85    67    66   ar
    86    75    76   ar
    87    65    66   ar
    88    65    70    1
    89    66    73    1
    90    31    30   ar
    91    31    35    1
    92    70    71    3
    93    77    85    1
    94    77    76   ar
    95    30    32    1
    96    74    73    1
    97    71    72    1
    98     6     7   ar
    99     6     8    1
   100     7    13    1
   101    20    19   ar
   102    20    23    1
   103    19    21    1
   104    76    81    1
   105    13    12    3
   106    23    24    1
   107    81    83    1
   108    81    84    1
   109    81    82    1
