@<TRIPOS>MOLECULE
mol_data/opt/b3lyp/geoms/mol2/4fd4ih12ei-13il-.out
 56 59 0 0 0
SMALL
GASTEIGER

@<TRIPOS>ATOM
      1 C          -0.1739    0.3087   -1.1005 C.ar    1  LIG1        0.1175
      2 C           1.2172    0.2942   -0.9626 C.ar    1  LIG1       -0.0112
      3 C          -0.9438    1.2276   -0.3760 C.ar    1  LIG1       -0.0189
      4 C           1.8748    1.1854   -0.1085 C.ar    1  LIG1        0.0032
      5 H           1.8080   -0.4088   -1.5444 H       1  LIG1        0.0660
      6 C          -0.3091    2.1176    0.4744 C.ar    1  LIG1       -0.0403
      7 C           1.0919    2.1120    0.6202 C.ar    1  LIG1        0.0597
      8 H          -0.8933    2.8314    1.0453 H       1  LIG1        0.0632
      9 H          -2.0215    1.2266   -0.4937 H       1  LIG1        0.0654
     10 O          -0.8353   -0.5414   -1.9312 O.3     1  LIG1       -0.5067
     11 H          -0.1999   -1.1222   -2.3709 H       1  LIG1        0.2921
     12 N           2.1104    3.8224    2.2870 N.1     1  LIG1       -0.1909
     13 C           1.6827    3.0452    1.5334 C.1     1  LIG1        0.0998
     14 C           4.0596    0.0161    0.4533 C.ar    1  LIG1       -0.0419
     15 C           5.4481    0.0797    0.4827 C.ar    1  LIG1       -0.0458
     16 C           3.3633    1.1573   -0.0097 C.ar    1  LIG1       -0.0119
     17 C           6.1957    1.2020    0.0727 C.ar    1  LIG1        0.0394
     18 H           5.9913   -0.7820    0.8521 H       1  LIG1        0.0628
     19 C           4.0782    2.2885   -0.3966 C.ar    1  LIG1       -0.0323
     20 C           5.4821    2.3551   -0.3662 C.ar    1  LIG1        0.0360
     21 H           3.5336    3.1640   -0.7398 H       1  LIG1        0.0642
     22 C           3.3569   -1.2279    0.9509 C.3     1  LIG1       -0.0391
     23 H           4.0428   -1.8399    1.5425 H       1  LIG1        0.0278
     24 H           2.9865   -1.8580    0.1331 H       1  LIG1        0.0278
     25 H           2.4953   -0.9853    1.5805 H       1  LIG1        0.0278
     26 N           6.0907    3.5428   -0.7294 N.pl3   1  LIG1       -0.3574
     27 H           7.0739    3.5221   -0.9465 H       1  LIG1        0.1423
     28 H           5.5357    4.1719   -1.2890 H       1  LIG1        0.1423
     29 C           7.6492    1.1256    0.1125 C.ar    1  LIG1        0.1531
     30 C           8.5614    0.0842    0.2287 C.ar    1  LIG1        0.0740
     31 C           9.8847    0.6679    0.2438 C.ar    1  LIG1        0.0128
     32 C           9.7093    2.0171    0.1015 C.ar    1  LIG1        0.1562
     33 O           8.3556    2.2976    0.0277 O.2     1  LIG1       -0.4518
     34 C           8.3196   -1.3086    0.3227 C.1     1  LIG1       -0.0656
     35 C           8.1853   -2.5102    0.4059 C.1     1  LIG1       -0.1138
     36 H           8.0512   -3.5650    0.4699 H       1  LIG1        0.1232
     37 C          11.1606   -0.0858    0.4509 C.3     1  LIG1       -0.0349
     38 H          11.9539    0.5804    0.7972 H       1  LIG1        0.0279
     39 H          11.5057   -0.5727   -0.4687 H       1  LIG1        0.0279
     40 H          11.0189   -0.8745    1.1959 H       1  LIG1        0.0279
     41 C          10.5790    3.1704    0.0529 C.ar    1  LIG1        0.0889
     42 C          11.8237    3.3797   -0.5393 C.ar    1  LIG1        0.0195
     43 C          12.1604    4.7409   -0.2764 C.ar    1  LIG1        0.1409
     44 C          11.1357    5.3253    0.4427 C.ar    1  LIG1        0.0447
     45 N          10.1792    4.3626    0.6310 N.ar    1  LIG1       -0.3550
     46 H           9.3117    4.4801    1.1298 H       1  LIG1        0.1655
     47 H          11.0182    6.3355    0.8022 H       1  LIG1        0.0844
     48 C          12.6199    2.4377   -1.3914 C.3     1  LIG1       -0.0341
     49 H          13.3672    1.8713   -0.8215 H       1  LIG1        0.0279
     50 H          13.1592    3.0000   -2.1600 H       1  LIG1        0.0279
     51 H          11.9723    1.7110   -1.8903 H       1  LIG1        0.0279
     52 O          13.2761    5.3937   -0.7406 O.3     1  LIG1       -0.4933
     53 C          14.4519    5.1698    0.0349 C.3     1  LIG1        0.0789
     54 H          15.2545    5.7376   -0.4415 H       1  LIG1        0.0660
     55 H          14.3208    5.5206    1.0669 H       1  LIG1        0.0660
     56 H          14.7283    4.1077    0.0582 H       1  LIG1        0.0660
@<TRIPOS>BOND
     1    11    10    1
     2    50    48    1
     3    10     1    1
     4    51    48    1
     5     5     2    1
     6    48    49    1
     7    48    42    1
     8    28    26    1
     9     1     2   ar
    10     1     3   ar
    11     2     4   ar
    12    27    26    1
    13    52    43    1
    14    52    53    1
    15    21    19    1
    16    26    20    1
    17    42    43   ar
    18    42    41   ar
    19     9     3    1
    20    39    37    1
    21    54    53    1
    22    19    20   ar
    23    19    16   ar
    24     3     6   ar
    25    20    17   ar
    26    43    44   ar
    27     4    16    1
    28     4     7   ar
    29    16    14   ar
    30    33    32   ar
    31    33    29   ar
    32    53    56    1
    33    53    55    1
    34    41    32    1
    35    41    45   ar
    36    17    29    1
    37    17    15   ar
    38    32    31   ar
    39    29    30   ar
    40    24    22    1
    41    30    31   ar
    42    30    34    1
    43    31    37    1
    44    34    35    3
    45    35    36    1
    46    44    45   ar
    47    44    47    1
    48    37    38    1
    49    37    40    1
    50    14    15   ar
    51    14    22    1
    52     6     7   ar
    53     6     8    1
    54    15    18    1
    55     7    13    1
    56    45    46    1
    57    22    23    1
    58    22    25    1
    59    13    12    3
