@<TRIPOS>MOLECULE
mol_data/opt/b3lyp/geoms/mol2/4fd6hl12il6lh-.out
 58 61 0 0 0
SMALL
GASTEIGER

@<TRIPOS>ATOM
      1 C          -0.3508    1.0635   -0.8843 C.ar    1  LIG1        0.1175
      2 C           1.0479    1.0701   -0.8544 C.ar    1  LIG1       -0.0111
      3 C          -1.0793    1.2106    0.3025 C.ar    1  LIG1       -0.0189
      4 C           1.7500    1.2163    0.3476 C.ar    1  LIG1        0.0063
      5 H           1.6103    0.9739   -1.7803 H       1  LIG1        0.0660
      6 C          -0.3991    1.3504    1.5021 C.ar    1  LIG1       -0.0403
      7 C           1.0078    1.3527    1.5457 C.ar    1  LIG1        0.0598
      8 H          -0.9527    1.4500    2.4297 H       1  LIG1        0.0632
      9 H          -2.1627    1.2083    0.2632 H       1  LIG1        0.0654
     10 O          -1.0575    0.9270   -2.0383 O.3     1  LIG1       -0.5067
     11 H          -0.4472    0.8380   -2.7828 H       1  LIG1        0.2921
     12 N           2.1300    1.4807    3.8826 N.1     1  LIG1       -0.1909
     13 C           1.6541    1.4358    2.8218 C.1     1  LIG1        0.0998
     14 C           4.0042    2.3574    0.6506 C.ar    1  LIG1        0.1250
     15 C           3.2380    1.2095    0.3326 C.ar    1  LIG1        0.0265
     16 C           3.9358    0.0637   -0.0590 C.ar    1  LIG1       -0.0067
     17 C           5.3303    0.0522   -0.0807 C.ar    1  LIG1        0.1497
     18 C           6.0083    1.2299    0.3093 C.ar    1  LIG1        0.1499
     19 N           5.3386    2.3448    0.6351 N.ar    1  LIG1       -0.2250
     20 H           3.3698   -0.8183   -0.3353 H       1  LIG1        0.0662
     21 N           3.4135    3.5500    1.0276 N.pl3   1  LIG1       -0.3426
     22 H           4.0545    4.3305    1.0373 H       1  LIG1        0.1437
     23 H           2.4928    3.7513    0.6685 H       1  LIG1        0.1437
     24 O           6.0883   -1.0124   -0.4904 O.3     1  LIG1       -0.4928
     25 C           5.4160   -2.1893   -0.9041 C.3     1  LIG1        0.0789
     26 H           6.1953   -2.8962   -1.1923 H       1  LIG1        0.0660
     27 H           4.8178   -2.6245   -0.0927 H       1  LIG1        0.0660
     28 H           4.7642   -2.0024   -1.7680 H       1  LIG1        0.0660
     29 C           7.4703    1.3198    0.3419 C.ar    1  LIG1        0.1640
     30 C           8.4771    0.4767    0.7583 C.ar    1  LIG1        0.0393
     31 C           9.6778    1.2360    0.6050 C.ar    1  LIG1        0.1693
     32 C           9.3450    2.4816    0.1125 C.ar    1  LIG1        0.1825
     33 O           7.9920    2.5280   -0.0376 O.2     1  LIG1       -0.4489
     34 C           8.4052   -0.8949    1.3549 C.3     1  LIG1       -0.0325
     35 H           9.2624   -1.0499    2.0168 H       1  LIG1        0.0280
     36 H           8.4188   -1.6769    0.5883 H       1  LIG1        0.0280
     37 H           7.4907   -1.0304    1.9371 H       1  LIG1        0.0280
     38 O          10.9363    0.8083    0.9485 O.3     1  LIG1       -0.4910
     39 C          11.5633   -0.0126   -0.0410 C.3     1  LIG1        0.0790
     40 H          12.5352   -0.3022    0.3645 H       1  LIG1        0.0660
     41 H          10.9740   -0.9146   -0.2448 H       1  LIG1        0.0660
     42 H          11.7054    0.5392   -0.9780 H       1  LIG1        0.0660
     43 C           9.7849    4.6458   -1.1499 C.ar    1  LIG1        0.2256
     44 C          10.1568    3.6500   -0.2042 C.ar    1  LIG1        0.0841
     45 C          11.3927    3.8223    0.4270 C.ar    1  LIG1       -0.0236
     46 C          12.2081    4.9243    0.1326 C.ar    1  LIG1        0.0438
     47 C          11.7220    5.8358   -0.8073 C.ar    1  LIG1        0.0520
     48 N          10.5433    5.6937   -1.4283 N.ar    1  LIG1       -0.2189
     49 H          11.7126    3.0886    1.1594 H       1  LIG1        0.0645
     50 H          12.3037    6.7184   -1.0716 H       1  LIG1        0.0849
     51 O           8.6077    4.4922   -1.8048 O.3     1  LIG1       -0.4792
     52 C           8.2587    5.5047   -2.7455 C.3     1  LIG1        0.0804
     53 H           7.2916    5.2008   -3.1494 H       1  LIG1        0.0660
     54 H           8.1775    6.4844   -2.2646 H       1  LIG1        0.0660
     55 H           8.9995    5.5780   -3.5481 H       1  LIG1        0.0660
     56 N          13.4173    5.1391    0.8105 N.pl3   1  LIG1       -0.3568
     57 H          13.8681    4.2916    1.1302 H       1  LIG1        0.1424
     58 H          14.0716    5.7261    0.3095 H       1  LIG1        0.1424
@<TRIPOS>BOND
     1    55    52    1
     2    53    52    1
     3    11    10    1
     4    52    54    1
     5    52    51    1
     6    10     1    1
     7    51    43    1
     8     5     2    1
     9    28    25    1
    10    48    43   ar
    11    48    47   ar
    12    26    25    1
    13    43    44   ar
    14    50    47    1
    15    42    39    1
    16    25    24    1
    17    25    27    1
    18     1     2   ar
    19     1     3   ar
    20     2     4   ar
    21    47    46   ar
    22    24    17    1
    23    20    16    1
    24    41    39    1
    25    44    32    1
    26    44    45   ar
    27    17    16   ar
    28    17    18   ar
    29    16    15   ar
    30    39    40    1
    31    39    38    1
    32    33    32   ar
    33    33    29   ar
    34    32    31   ar
    35    46    45   ar
    36    46    56    1
    37     9     3    1
    38     3     6   ar
    39    18    29    1
    40    18    19   ar
    41    58    56    1
    42    15     4    1
    43    15    14   ar
    44    29    30   ar
    45     4     7   ar
    46    45    49    1
    47    36    34    1
    48    31    30   ar
    49    31    38    1
    50    19    14   ar
    51    14    21    1
    52    23    21    1
    53    30    34    1
    54    56    57    1
    55    21    22    1
    56    34    37    1
    57    34    35    1
    58     6     7   ar
    59     6     8    1
    60     7    13    1
    61    13    12    3
