@<TRIPOS>MOLECULE
mol_data/opt/b3lyp/geoms/mol2/4fe.out
 15 15 0 0 0
SMALL
GASTEIGER

@<TRIPOS>ATOM
      1 C           0.0831    0.0205    0.0004 C.ar    1  LIG1        0.1169
      2 C           1.4826    0.0056    0.0000 C.ar    1  LIG1       -0.0190
      3 C          -0.6016    1.2420    0.0003 C.ar    1  LIG1       -0.0190
      4 C           2.1912    1.2024   -0.0005 C.ar    1  LIG1       -0.0429
      5 H           2.0166   -0.9421    0.0001 H       1  LIG1        0.0654
      6 C           0.1102    2.4334   -0.0002 C.ar    1  LIG1       -0.0429
      7 C           1.5196    2.4381   -0.0006 C.ar    1  LIG1        0.0249
      8 H          -0.4209    3.3795   -0.0003 H       1  LIG1        0.0631
      9 H           3.2761    1.1882   -0.0008 H       1  LIG1        0.0631
     10 H          -1.6869    1.2347    0.0007 H       1  LIG1        0.0654
     11 O          -0.6672   -1.1190    0.0009 O.3     1  LIG1       -0.5068
     12 H          -0.0799   -1.8864    0.0010 H       1  LIG1        0.2921
     13 C           2.2483    3.6665   -0.0011 C.1     1  LIG1       -0.0697
     14 C           2.8664    4.7075   -0.0016 C.1     1  LIG1       -0.1139
     15 H           3.4094    5.6239   -0.0018 H       1  LIG1        0.1232
@<TRIPOS>BOND
     1    15    14    1
     2    14    13    3
     3    13     7    1
     4     9     4    1
     5     7     4   ar
     6     7     6   ar
     7     4     2   ar
     8     8     6    1
     9     6     3   ar
    10     2     5    1
    11     2     1   ar
    12     3     1   ar
    13     3    10    1
    14     1    11    1
    15    11    12    1
