@<TRIPOS>MOLECULE
mol_data/opt/b3lyp/geoms/mol2/4fe12ll13if-6aa.out
 51 54 0 0 0
SMALL
GASTEIGER

@<TRIPOS>ATOM
      1 C          -0.3509    0.2171   -0.4940 C.ar    1  LIG1        0.1176
      2 C           1.0323    0.1792   -0.3548 C.ar    1  LIG1       -0.0082
      3 C          -1.0246    1.4451   -0.5183 C.ar    1  LIG1       -0.0190
      4 C           1.7941    1.3586   -0.2316 C.ar    1  LIG1        0.0399
      5 H           1.5491   -0.7748   -0.3484 H       1  LIG1        0.0661
      6 C          -0.2882    2.6111   -0.4064 C.ar    1  LIG1       -0.0422
      7 C           1.1169    2.6121   -0.2636 C.ar    1  LIG1        0.0357
      8 H          -0.7956    3.5696   -0.4289 H       1  LIG1        0.0631
      9 H          -2.1030    1.4627   -0.6286 H       1  LIG1        0.0654
     10 O          -1.1037   -0.9139   -0.6157 O.3     1  LIG1       -0.5067
     11 H          -0.5207   -1.6846   -0.5982 H       1  LIG1        0.2921
     12 C           1.7305    3.9010   -0.1690 C.1     1  LIG1       -0.0689
     13 C           2.0960    5.0562   -0.1068 C.1     1  LIG1       -0.1139
     14 H           2.3982    6.0779   -0.0630 H       1  LIG1        0.1232
     15 C           3.2312    1.2227   -0.0800 C.ar    1  LIG1        0.1823
     16 C           4.0848    0.1428    0.0407 C.ar    1  LIG1        0.2086
     17 C           5.4188    0.6536    0.1277 C.ar    1  LIG1        0.2100
     18 C           5.3238    2.0286    0.0689 C.ar    1  LIG1        0.1973
     19 O           3.9987    2.3579   -0.0603 O.2     1  LIG1       -0.4457
     20 O           3.7416   -1.1810    0.0457 O.3     1  LIG1       -0.4884
     21 C           4.0550   -1.8632    1.2737 C.3     1  LIG1        0.0791
     22 H           3.7848   -2.9090    1.1176 H       1  LIG1        0.0660
     23 H           5.1209   -1.7842    1.5043 H       1  LIG1        0.0660
     24 H           3.4697   -1.4503    2.1031 H       1  LIG1        0.0660
     25 O           6.5479   -0.0988    0.2935 O.3     1  LIG1       -0.4884
     26 C           6.9100   -0.8708   -0.8631 C.3     1  LIG1        0.0791
     27 H           7.7906   -1.4500   -0.5801 H       1  LIG1        0.0660
     28 H           6.0992   -1.5465   -1.1542 H       1  LIG1        0.0660
     29 H           7.1577   -0.2138   -1.7045 H       1  LIG1        0.0660
     30 C           6.2081    3.1623    0.1263 C.ar    1  LIG1        0.0929
     31 C           7.6020    3.3099    0.1640 C.ar    1  LIG1        0.0200
     32 C           7.8373    4.7036    0.1538 C.ar    1  LIG1        0.1456
     33 C           6.6208    5.3894    0.1179 C.ar    1  LIG1        0.0907
     34 N           5.6417    4.4178    0.1274 N.ar    1  LIG1       -0.3485
     35 H           4.6500    4.5727   -0.0002 H       1  LIG1        0.1661
     36 C           8.6793    2.2690    0.2104 C.3     1  LIG1       -0.0341
     37 H           9.5890    2.7022    0.6349 H       1  LIG1        0.0279
     38 H           8.9359    1.9031   -0.7928 H       1  LIG1        0.0279
     39 H           8.3827    1.4052    0.8067 H       1  LIG1        0.0279
     40 O           9.0972    5.2431    0.2016 O.3     1  LIG1       -0.5044
     41 H           9.0471    6.1079    0.6311 H       1  LIG1        0.2922
     42 C           5.1454    7.3196    0.7062 C.ar    1  LIG1        0.0368
     43 C           6.3334    6.8135    0.1356 C.ar    1  LIG1        0.0200
     44 C           7.2173    7.7621   -0.4142 C.ar    1  LIG1       -0.0496
     45 C           6.8816    9.1114   -0.3727 C.ar    1  LIG1       -0.0430
     46 C           5.6646    9.4881    0.1970 C.ar    1  LIG1        0.0276
     47 N           4.8044    8.6083    0.7292 N.ar    1  LIG1       -0.2626
     48 H           8.1322    7.4357   -0.8998 H       1  LIG1        0.0625
     49 H           5.3671   10.5340    0.2302 H       1  LIG1        0.0829
     50 H           4.4471    6.6343    1.1843 H       1  LIG1        0.0836
     51 H           7.5436    9.8610   -0.7953 H       1  LIG1        0.0633
@<TRIPOS>BOND
     1    29    26    1
     2    28    26    1
     3    48    44    1
     4    26    27    1
     5    26    25    1
     6    51    45    1
     7    38    36    1
     8     9     3    1
     9    10    11    1
    10    10     1    1
    11     3     1   ar
    12     3     6   ar
    13     1     2   ar
    14     8     6    1
    15    44    45   ar
    16    44    43   ar
    17     6     7   ar
    18    45    46   ar
    19     2     5    1
    20     2     4   ar
    21     7     4   ar
    22     7    12    1
    23     4    15    1
    24    12    13    3
    25    13    14    1
    26    15    19   ar
    27    15    16   ar
    28    19    18   ar
    29    35    34    1
    30    16    20    1
    31    16    17   ar
    32    20    21    1
    33    18    30    1
    34    18    17   ar
    35    33    34   ar
    36    33    43    1
    37    33    32   ar
    38    30    34   ar
    39    30    31   ar
    40    17    25    1
    41    43    42   ar
    42    32    31   ar
    43    32    40    1
    44    31    36    1
    45    46    49    1
    46    46    47   ar
    47    40    41    1
    48    36    37    1
    49    36    39    1
    50    42    47   ar
    51    42    50    1
    52    22    21    1
    53    21    23    1
    54    21    24    1
