@<TRIPOS>MOLECULE
mol_data/opt/b3lyp/geoms/mol2/4fe4fe4fe.out
 41 43 0 0 0
SMALL
GASTEIGER

@<TRIPOS>ATOM
      1 C           0.0015    0.4852    1.3231 C.ar    1  LIG1        0.1175
      2 C           1.3863    0.4836    1.1523 C.ar    1  LIG1       -0.0112
      3 C          -0.8052    1.2704    0.4923 C.ar    1  LIG1       -0.0190
      4 C           2.0005    1.2536    0.1574 C.ar    1  LIG1        0.0045
      5 H           2.0060   -0.1300    1.7998 H       1  LIG1        0.0660
      6 C          -0.2111    2.0330   -0.5004 C.ar    1  LIG1       -0.0423
      7 C           1.1857    2.0433   -0.6938 C.ar    1  LIG1        0.0327
      8 H          -0.8277    2.6376   -1.1572 H       1  LIG1        0.0631
      9 H          -1.8801    1.2653    0.6359 H       1  LIG1        0.0654
     10 O          -0.6186   -0.2539    2.2883 O.3     1  LIG1       -0.5067
     11 H           0.0465   -0.7561    2.7776 H       1  LIG1        0.2921
     12 C           1.7178    2.8278   -1.7638 C.1     1  LIG1       -0.0690
     13 C           2.1142    3.5037   -2.6868 C.1     1  LIG1       -0.1139
     14 H           2.4860    4.0927   -3.4926 H       1  LIG1        0.1232
     15 C           4.2217    0.0479   -0.0538 C.ar    1  LIG1        0.1252
     16 C           5.6134    0.0750   -0.1440 C.ar    1  LIG1       -0.0106
     17 C           3.4849    1.2466    0.0407 C.ar    1  LIG1        0.0260
     18 C           6.3345    1.2719   -0.1415 C.ar    1  LIG1        0.0045
     19 H           6.1547   -0.8635   -0.2243 H       1  LIG1        0.0661
     20 C           4.2078    2.4403    0.0370 C.ar    1  LIG1       -0.0345
     21 C           5.6104    2.4871   -0.0513 C.ar    1  LIG1        0.0333
     22 H           3.6681    3.3773    0.1021 H       1  LIG1        0.0637
     23 O           3.5381   -1.1361   -0.0548 O.3     1  LIG1       -0.5061
     24 H           4.1671   -1.8558   -0.1976 H       1  LIG1        0.2922
     25 C           6.2455    3.7682   -0.0731 C.1     1  LIG1       -0.0690
     26 C           6.7362    4.8747   -0.0931 C.1     1  LIG1       -0.1139
     27 H           7.1848    5.8405   -0.1111 H       1  LIG1        0.1232
     28 C           8.5109    0.5159   -1.1949 C.ar    1  LIG1        0.1246
     29 C           9.9097    0.4925   -1.2163 C.ar    1  LIG1       -0.0184
     30 C           7.8222    1.2383   -0.1967 C.ar    1  LIG1        0.0260
     31 C          10.6447    1.1720   -0.2540 C.ar    1  LIG1       -0.0429
     32 H          10.4227   -0.0642   -1.9978 H       1  LIG1        0.0654
     33 C           8.5825    1.9148    0.7616 C.ar    1  LIG1       -0.0351
     34 C           9.9878    1.8950    0.7564 C.ar    1  LIG1        0.0255
     35 H           8.0708    2.4719    1.5371 H       1  LIG1        0.0637
     36 H          11.7289    1.1461   -0.2771 H       1  LIG1        0.0631
     37 O           7.7752   -0.1481   -2.1358 O.3     1  LIG1       -0.5062
     38 H           8.3765   -0.5372   -2.7847 H       1  LIG1        0.2922
     39 C          10.7302    2.5913    1.7591 C.1     1  LIG1       -0.0696
     40 C          11.3626    3.1789    2.6076 C.1     1  LIG1       -0.1139
     41 H          11.9157    3.6978    3.3555 H       1  LIG1        0.1232
@<TRIPOS>BOND
     1    14    13    1
     2    38    37    1
     3    13    12    3
     4    37    28    1
     5    32    29    1
     6    12     7    1
     7    29    28   ar
     8    29    31   ar
     9    28    30   ar
    10     8     6    1
    11     7     6   ar
    12     7     4   ar
    13     6     3   ar
    14    36    31    1
    15    31    34   ar
    16    19    16    1
    17    24    23    1
    18    30    18    1
    19    30    33   ar
    20    16    18   ar
    21    16    15   ar
    22    18    21   ar
    23    27    26    1
    24    26    25    3
    25    25    21    1
    26    23    15    1
    27    15    17   ar
    28    21    20   ar
    29    20    17   ar
    30    20    22    1
    31    17     4    1
    32     4     2   ar
    33     3     9    1
    34     3     1   ar
    35    34    33   ar
    36    34    39    1
    37    33    35    1
    38     2     1   ar
    39     2     5    1
    40     1    10    1
    41    39    40    3
    42    10    11    1
    43    40    41    1
