@<TRIPOS>MOLECULE
mol_data/opt/b3lyp/geoms/mol2/4fe4fe.out
 28 29 0 0 0
SMALL
GASTEIGER

@<TRIPOS>ATOM
      1 C           0.0441    0.1473    0.7156 C.ar    1  LIG1        0.1175
      2 C           1.4329    0.1472    0.5801 C.ar    1  LIG1       -0.0112
      3 C          -0.7003    1.2533    0.2907 C.ar    1  LIG1       -0.0190
      4 C           2.1116    1.2358    0.0205 C.ar    1  LIG1        0.0045
      5 H           2.0042   -0.7155    0.9111 H       1  LIG1        0.0660
      6 C          -0.0415    2.3355   -0.2701 C.ar    1  LIG1       -0.0423
      7 C           1.3606    2.3549   -0.4206 C.ar    1  LIG1        0.0327
      8 H          -0.6095    3.1940   -0.6126 H       1  LIG1        0.0631
      9 H          -1.7788    1.2428    0.4032 H       1  LIG1        0.0654
     10 O          -0.6391   -0.8999    1.2621 O.3     1  LIG1       -0.5067
     11 H          -0.0125   -1.5957    1.5014 H       1  LIG1        0.2921
     12 C           1.9633    3.4926   -1.0416 C.1     1  LIG1       -0.0690
     13 C           2.4221    4.4761   -1.5786 C.1     1  LIG1       -0.1139
     14 H           2.8459    5.3331   -2.0480 H       1  LIG1        0.1232
     15 C           4.2827    0.1304   -0.6753 C.ar    1  LIG1        0.1246
     16 C           5.6807    0.1207   -0.7331 C.ar    1  LIG1       -0.0184
     17 C           3.5989    1.2048   -0.0670 C.ar    1  LIG1        0.0260
     18 C           6.4196    1.1626   -0.1885 C.ar    1  LIG1       -0.0429
     19 H           6.1899   -0.7131   -1.2121 H       1  LIG1        0.0654
     20 C           4.3629    2.2425    0.4741 C.ar    1  LIG1       -0.0351
     21 C           5.7677    2.2439    0.4286 C.ar    1  LIG1        0.0255
     22 H           3.8546    3.0738    0.9480 H       1  LIG1        0.0637
     23 H           7.5031    1.1453   -0.2359 H       1  LIG1        0.0631
     24 O           3.5429   -0.8875   -1.2082 O.3     1  LIG1       -0.5062
     25 H           4.1395   -1.5150   -1.6374 H       1  LIG1        0.2922
     26 C           6.5144    3.3190    1.0012 C.1     1  LIG1       -0.0696
     27 C           7.1504    4.2276    1.4861 C.1     1  LIG1       -0.1139
     28 H           7.7067    5.0289    1.9138 H       1  LIG1        0.1232
@<TRIPOS>BOND
     1    14    13    1
     2    25    24    1
     3    13    12    3
     4    19    16    1
     5    24    15    1
     6    12     7    1
     7    16    15   ar
     8    16    18   ar
     9    15    17   ar
    10     8     6    1
    11     7     6   ar
    12     7     4   ar
    13     6     3   ar
    14    23    18    1
    15    18    21   ar
    16    17     4    1
    17    17    20   ar
    18     4     2   ar
    19     3     9    1
    20     3     1   ar
    21    21    20   ar
    22    21    26    1
    23    20    22    1
    24     2     1   ar
    25     2     5    1
    26     1    10    1
    27    26    27    3
    28    10    11    1
    29    27    28    1
