@<TRIPOS>MOLECULE
mol_data/opt/b3lyp/geoms/mol2/4fe4fe4fe-4fe.out
 54 57 0 0 0
SMALL
GASTEIGER

@<TRIPOS>ATOM
      1 C          -0.0621    1.1264    1.7781 C.ar    1  LIG1        0.1175
      2 C           1.3227    1.1402    1.6058 C.ar    1  LIG1       -0.0112
      3 C          -0.9058    1.3030    0.6758 C.ar    1  LIG1       -0.0190
      4 C           1.8982    1.3258    0.3435 C.ar    1  LIG1        0.0045
      5 H           1.9719    1.0015    2.4655 H       1  LIG1        0.0660
      6 C          -0.3488    1.4818   -0.5802 C.ar    1  LIG1       -0.0423
      7 C           1.0473    1.4958   -0.7782 C.ar    1  LIG1        0.0327
      8 H          -0.9941    1.6091   -1.4429 H       1  LIG1        0.0631
      9 H          -1.9803    1.2922    0.8223 H       1  LIG1        0.0654
     10 O          -0.6475    0.9526    2.9976 O.3     1  LIG1       -0.5067
     11 H           0.0404    0.8295    3.6652 H       1  LIG1        0.2921
     12 C           1.5464    1.6500   -2.1088 C.1     1  LIG1       -0.0690
     13 C           1.9183    1.7777   -3.2539 C.1     1  LIG1       -0.1139
     14 H           2.2637    1.8868   -4.2556 H       1  LIG1        0.1232
     15 C           4.2106    0.3537    0.7305 C.ar    1  LIG1        0.1252
     16 C           5.5986    0.4367    0.6075 C.ar    1  LIG1       -0.0106
     17 C           3.3810    1.3724    0.2154 C.ar    1  LIG1        0.0260
     18 C           6.2317    1.5163   -0.0189 C.ar    1  LIG1        0.0045
     19 H           6.2139   -0.3544    1.0288 H       1  LIG1        0.0661
     20 C           4.0108    2.4487   -0.4082 C.ar    1  LIG1       -0.0345
     21 C           5.4079    2.5461   -0.5387 C.ar    1  LIG1        0.0333
     22 H           3.4006    3.2452   -0.8170 H       1  LIG1        0.0637
     23 O           3.6193   -0.7072    1.3514 O.3     1  LIG1       -0.5061
     24 H           4.3015   -1.3448    1.6017 H       1  LIG1        0.2922
     25 C           5.9539    3.6855   -1.2060 C.1     1  LIG1       -0.0690
     26 C           6.4109    4.6747   -1.7368 C.1     1  LIG1       -0.1139
     27 H           6.8202    5.5270   -2.2284 H       1  LIG1        0.1232
     28 C           8.5611    2.5280    0.3466 C.ar    1  LIG1        0.1252
     29 C           9.9504    2.3579    0.3257 C.ar    1  LIG1       -0.0106
     30 C           7.7184    1.4939   -0.1214 C.ar    1  LIG1        0.0260
     31 C          10.5535    1.2025   -0.1653 C.ar    1  LIG1        0.0045
     32 H          10.5598    3.1756    0.6949 H       1  LIG1        0.0661
     33 C           8.3336    0.3356   -0.6154 C.ar    1  LIG1       -0.0345
     34 C           9.7240    0.1610   -0.6534 C.ar    1  LIG1        0.0333
     35 H           7.7059   -0.4681   -0.9859 H       1  LIG1        0.0637
     36 O           8.1137    3.6918    0.8914 O.3     1  LIG1       -0.5061
     37 H           7.2815    3.9580    0.4700 H       1  LIG1        0.2922
     38 C          10.2536   -1.0761   -1.1339 C.1     1  LIG1       -0.0690
     39 C          10.6635   -2.1457   -1.5253 C.1     1  LIG1       -0.1139
     40 H          11.0365   -3.0814   -1.8710 H       1  LIG1        0.1232
     41 C          12.8006    0.9705   -1.3116 C.ar    1  LIG1        0.1246
     42 C          14.1944    0.8693   -1.2441 C.ar    1  LIG1       -0.0184
     43 C          12.0387    1.0868   -0.1308 C.ar    1  LIG1        0.0260
     44 C          14.8473    0.8944   -0.0180 C.ar    1  LIG1       -0.0429
     45 H          14.7695    0.7818   -2.1635 H       1  LIG1        0.0654
     46 C          12.7140    1.1266    1.0900 C.ar    1  LIG1       -0.0351
     47 C          14.1152    1.0293    1.1738 C.ar    1  LIG1        0.0255
     48 H          12.1366    1.2200    2.0037 H       1  LIG1        0.0637
     49 H          15.9284    0.8156    0.0241 H       1  LIG1        0.0631
     50 O          12.1346    0.9930   -2.4986 O.3     1  LIG1       -0.5062
     51 H          12.7607    0.8416   -3.2187 H       1  LIG1        0.2922
     52 C          14.7746    1.0638    2.4404 C.1     1  LIG1       -0.0696
     53 C          15.3352    1.0941    3.5130 C.1     1  LIG1       -0.1139
     54 H          15.8264    1.1211    4.4577 H       1  LIG1        0.1232
@<TRIPOS>BOND
     1    14    13    1
     2    13    12    3
     3    51    50    1
     4    50    41    1
     5    27    26    1
     6    45    42    1
     7    12     7    1
     8    40    39    1
     9    26    25    3
    10    39    38    3
    11     8     6    1
    12    41    42   ar
    13    41    43   ar
    14    42    44   ar
    15    25    21    1
    16    38    34    1
    17    35    33    1
    18    22    20    1
    19     7     6   ar
    20     7     4   ar
    21    34    33   ar
    22    34    31   ar
    23    33    30   ar
    24     6     3   ar
    25    21    20   ar
    26    21    18   ar
    27    20    17   ar
    28    31    43    1
    29    31    29   ar
    30    43    46   ar
    31    30    18    1
    32    30    28   ar
    33    18    16   ar
    34    44    49    1
    35    44    47   ar
    36    17     4    1
    37    17    15   ar
    38    29    28   ar
    39    29    32    1
    40     4     2   ar
    41    28    36    1
    42    37    36    1
    43    16    15   ar
    44    16    19    1
    45     3     9    1
    46     3     1   ar
    47    15    23    1
    48    46    47   ar
    49    46    48    1
    50    47    52    1
    51    23    24    1
    52     2     1   ar
    53     2     5    1
    54     1    10    1
    55    52    53    3
    56    10    11    1
    57    53    54    1
