@<TRIPOS>MOLECULE
mol_data/opt/b3lyp/geoms/mol2/4fe4fe-4fe-4fe.out
 54 57 0 0 0
SMALL
GASTEIGER

@<TRIPOS>ATOM
      1 C          -0.0079    1.3351    1.7116 C.ar    1  LIG1        0.1175
      2 C           1.3646    1.2841    1.4588 C.ar    1  LIG1       -0.0112
      3 C          -0.9060    1.5517    0.6592 C.ar    1  LIG1       -0.0190
      4 C           1.8802    1.4410    0.1648 C.ar    1  LIG1        0.0045
      5 H           2.0574    1.1382    2.2837 H       1  LIG1        0.0660
      6 C          -0.4140    1.7109   -0.6249 C.ar    1  LIG1       -0.0423
      7 C           0.9686    1.6570   -0.9000 C.ar    1  LIG1        0.0327
      8 H          -1.0998    1.8741   -1.4494 H       1  LIG1        0.0631
      9 H          -1.9691    1.5928    0.8682 H       1  LIG1        0.0654
     10 O          -0.5296    1.1915    2.9600 O.3     1  LIG1       -0.5067
     11 H           0.1857    1.0499    3.5947 H       1  LIG1        0.2921
     12 C           1.4081    1.8097   -2.2506 C.1     1  LIG1       -0.0690
     13 C           1.7721    1.9809   -3.3941 C.1     1  LIG1       -0.1139
     14 H           2.1011    2.1021   -4.4006 H       1  LIG1        0.1232
     15 C           4.1566    2.3360   -0.6143 C.ar    1  LIG1        0.1252
     16 C           5.5512    2.2065   -0.6157 C.ar    1  LIG1       -0.0106
     17 C           3.3576    1.3379   -0.0112 C.ar    1  LIG1        0.0260
     18 C           6.2074    1.1073   -0.0524 C.ar    1  LIG1        0.0045
     19 H           6.1191    2.9848   -1.1159 H       1  LIG1        0.0661
     20 C           4.0194    0.2331    0.5394 C.ar    1  LIG1       -0.0345
     21 C           5.4150    0.0872    0.5379 C.ar    1  LIG1        0.0333
     22 H           3.4254   -0.5516    0.9959 H       1  LIG1        0.0637
     23 O           3.6695    3.4779   -1.1653 O.3     1  LIG1       -0.5061
     24 H           2.7848    3.3226   -1.5313 H       1  LIG1        0.2922
     25 C           5.9848   -1.0684    1.1564 C.1     1  LIG1       -0.0690
     26 C           6.4231   -2.0583    1.6976 C.1     1  LIG1       -0.1139
     27 H           6.8331   -2.9239    2.1640 H       1  LIG1        0.1232
     28 C           8.4781    2.0909    0.4286 C.ar    1  LIG1        0.1252
     29 C           9.8731    2.0266    0.3662 C.ar    1  LIG1       -0.0106
     30 C           7.6938    1.0405   -0.0930 C.ar    1  LIG1        0.0260
     31 C          10.5289    0.9409   -0.2111 C.ar    1  LIG1        0.0045
     32 H          10.4419    2.8566    0.7709 H       1  LIG1        0.0661
     33 C           8.3573   -0.0547   -0.6529 C.ar    1  LIG1       -0.0345
     34 C           9.7560   -0.1317   -0.7264 C.ar    1  LIG1        0.0333
     35 H           7.7725   -0.8783   -1.0459 H       1  LIG1        0.0637
     36 O           7.9444    3.1960    1.0186 O.3     1  LIG1       -0.5061
     37 H           6.9790    3.1110    1.0328 H       1  LIG1        0.2922
     38 C          10.3573   -1.3034   -1.2806 C.1     1  LIG1       -0.0690
     39 C          10.8333   -2.3184   -1.7372 C.1     1  LIG1       -0.1139
     40 H          11.2611   -3.2075   -2.1380 H       1  LIG1        0.1232
     41 C          12.7459    0.9250   -1.4352 C.ar    1  LIG1        0.1246
     42 C          14.1448    0.9147   -1.4165 C.ar    1  LIG1       -0.0184
     43 C          12.0191    0.9221   -0.2269 C.ar    1  LIG1        0.0260
     44 C          14.8366    0.9129   -0.2116 C.ar    1  LIG1       -0.0429
     45 H          14.6925    0.9192   -2.3566 H       1  LIG1        0.0654
     46 C          12.7319    0.9357    0.9728 C.ar    1  LIG1       -0.0351
     47 C          14.1387    0.9285    1.0078 C.ar    1  LIG1        0.0255
     48 H          12.1813    0.9357    1.9076 H       1  LIG1        0.0637
     49 H          15.9214    0.9047   -0.2073 H       1  LIG1        0.0631
     50 O          12.0396    0.9698   -2.5981 O.3     1  LIG1       -0.5062
     51 H          12.6492    0.8963   -3.3440 H       1  LIG1        0.2922
     52 C          14.8377    0.9329    2.2535 C.1     1  LIG1       -0.0696
     53 C          15.4317    0.9376    3.3084 C.1     1  LIG1       -0.1139
     54 H          15.9522    0.9412    4.2376 H       1  LIG1        0.1232
@<TRIPOS>BOND
     1    14    13    1
     2    13    12    3
     3    51    50    1
     4    50    41    1
     5    45    42    1
     6    12     7    1
     7    40    39    1
     8    39    38    3
     9    24    23    1
    10     8     6    1
    11    41    42   ar
    12    41    43   ar
    13    42    44   ar
    14    38    34    1
    15    23    15    1
    16    19    16    1
    17    35    33    1
    18     7     6   ar
    19     7     4   ar
    20    34    33   ar
    21    34    31   ar
    22    33    30   ar
    23     6     3   ar
    24    16    15   ar
    25    16    18   ar
    26    15    17   ar
    27    43    31    1
    28    43    46   ar
    29    44    49    1
    30    44    47   ar
    31    31    29   ar
    32    30    18    1
    33    30    28   ar
    34    18    21   ar
    35    17     4    1
    36    17    20   ar
    37     4     2   ar
    38    29    28   ar
    39    29    32    1
    40    28    36    1
    41    21    20   ar
    42    21    25    1
    43    20    22    1
    44     3     9    1
    45     3     1   ar
    46    46    47   ar
    47    46    48    1
    48    47    52    1
    49    36    37    1
    50    25    26    3
    51     2     1   ar
    52     2     5    1
    53    26    27    1
    54     1    10    1
    55    52    53    3
    56    10    11    1
    57    53    54    1
