@<TRIPOS>MOLECULE
mol_data/opt/b3lyp/geoms/mol2/4fe4fe-4fe4fe-.out
 54 57 0 0 0
SMALL
GASTEIGER

@<TRIPOS>ATOM
      1 C          -0.0970    1.4803    1.3758 C.ar    1  LIG1        0.1175
      2 C           1.2866    1.3852    1.2122 C.ar    1  LIG1       -0.0112
      3 C          -0.9215    1.6800    0.2618 C.ar    1  LIG1       -0.0190
      4 C           1.8863    1.4799   -0.0512 C.ar    1  LIG1        0.0045
      5 H           1.9229    1.2531    2.0837 H       1  LIG1        0.0660
      6 C          -0.3460    1.7783   -0.9935 C.ar    1  LIG1       -0.0423
      7 C           1.0489    1.6788   -1.1787 C.ar    1  LIG1        0.0327
      8 H          -0.9745    1.9277   -1.8651 H       1  LIG1        0.0631
      9 H          -1.9941    1.7559    0.4014 H       1  LIG1        0.0654
     10 O          -0.6986    1.3968    2.5939 O.3     1  LIG1       -0.5067
     11 H          -0.0267    1.2627    3.2759 H       1  LIG1        0.2921
     12 C           1.5751    1.7689   -2.5039 C.1     1  LIG1       -0.0690
     13 C           2.0116    1.8866   -3.6284 C.1     1  LIG1       -0.1139
     14 H           2.4056    1.9628   -4.6157 H       1  LIG1        0.1232
     15 C           4.2275    2.2936   -0.7104 C.ar    1  LIG1        0.1252
     16 C           5.6153    2.1277   -0.6298 C.ar    1  LIG1       -0.0106
     17 C           3.3685    1.3325   -0.1309 C.ar    1  LIG1        0.0260
     18 C           6.1973    1.0253   -0.0092 C.ar    1  LIG1        0.0045
     19 H           6.2384    2.8878   -1.0885 H       1  LIG1        0.0661
     20 C           3.9633    0.2273    0.4914 C.ar    1  LIG1       -0.0345
     21 C           5.3513    0.0444    0.5674 C.ar    1  LIG1        0.0333
     22 H           3.3217   -0.5248    0.9384 H       1  LIG1        0.0637
     23 O           3.8018    3.4356   -1.3126 O.3     1  LIG1       -0.5061
     24 H           2.9239    3.3001   -1.6999 H       1  LIG1        0.2922
     25 C           5.8657   -1.0926    1.2630 C.1     1  LIG1       -0.0690
     26 C           6.2682   -2.0537    1.8791 C.1     1  LIG1       -0.1139
     27 H           6.6314   -2.8999    2.4144 H       1  LIG1        0.1232
     28 C           8.3912   -0.1166   -0.5720 C.ar    1  LIG1        0.1252
     29 C           9.7832   -0.1772   -0.4822 C.ar    1  LIG1       -0.0106
     30 C           7.6822    0.9278    0.0574 C.ar    1  LIG1        0.0260
     31 C          10.5250    0.7892    0.2061 C.ar    1  LIG1        0.0045
     32 H          10.3124   -0.9997   -0.9576 H       1  LIG1        0.0661
     33 C           8.4213    1.9007    0.7255 C.ar    1  LIG1       -0.0345
     34 C           9.8271    1.8628    0.8156 C.ar    1  LIG1        0.0333
     35 H           7.8947    2.7212    1.2012 H       1  LIG1        0.0637
     36 O           7.6749   -1.0339   -1.2728 O.3     1  LIG1       -0.5061
     37 H           8.2688   -1.7203   -1.6047 H       1  LIG1        0.2922
     38 C          10.5069    2.9230    1.4925 C.1     1  LIG1       -0.0690
     39 C          11.0582    3.8253    2.0818 C.1     1  LIG1       -0.1139
     40 H          11.5586    4.6152    2.5923 H       1  LIG1        0.1232
     41 C          12.7221    0.5234    1.4537 C.ar    1  LIG1        0.1246
     42 C          14.1105    0.3400    1.4350 C.ar    1  LIG1       -0.0184
     43 C          12.0101    0.6613    0.2414 C.ar    1  LIG1        0.0260
     44 C          14.8017    0.2934    0.2346 C.ar    1  LIG1       -0.0429
     45 H          14.6248    0.2316    2.3839 H       1  LIG1        0.0654
     46 C          12.7264    0.6050   -0.9591 C.ar    1  LIG1       -0.0351
     47 C          14.1187    0.4271   -0.9899 C.ar    1  LIG1        0.0255
     48 H          12.1886    0.7158   -1.8950 H       1  LIG1        0.0637
     49 H          15.8776    0.1540    0.2315 H       1  LIG1        0.0631
     50 O          12.1278    0.5190    2.6750 O.3     1  LIG1       -0.5062
     51 H          11.1967    0.7672    2.5863 H       1  LIG1        0.2922
     52 C          14.8208    0.3830   -2.2330 C.1     1  LIG1       -0.0696
     53 C          15.4171    0.3429   -3.2860 C.1     1  LIG1       -0.1139
     54 H          15.9425    0.3114   -4.2119 H       1  LIG1        0.1232
@<TRIPOS>BOND
     1    14    13    1
     2    54    53    1
     3    13    12    3
     4    53    52    3
     5    12     7    1
     6    52    47    1
     7    48    46    1
     8     8     6    1
     9    24    23    1
    10    37    36    1
    11    23    15    1
    12    36    28    1
    13     7     6   ar
    14     7     4   ar
    15    19    16    1
    16     6     3   ar
    17    47    46   ar
    18    47    44   ar
    19    46    43   ar
    20    32    29    1
    21    15    16   ar
    22    15    17   ar
    23    16    18   ar
    24    28    29   ar
    25    28    30   ar
    26    29    31   ar
    27    17     4    1
    28    17    20   ar
    29     4     2   ar
    30    18    30    1
    31    18    21   ar
    32    30    33   ar
    33    31    43    1
    34    31    34   ar
    35    49    44    1
    36    44    42   ar
    37    43    41   ar
    38     3     9    1
    39     3     1   ar
    40    20    21   ar
    41    20    22    1
    42    21    25    1
    43    33    34   ar
    44    33    35    1
    45    34    38    1
    46     2     1   ar
    47     2     5    1
    48    25    26    3
    49     1    10    1
    50    42    41   ar
    51    42    45    1
    52    41    50    1
    53    38    39    3
    54    26    27    1
    55    39    40    1
    56    51    50    1
    57    10    11    1
