@<TRIPOS>MOLECULE
mol_data/opt/b3lyp/geoms/mol2/4fe4fe4fe4fe.out
 54 57 0 0 0
SMALL
GASTEIGER

@<TRIPOS>ATOM
      1 C          -0.0678    0.9861    1.7270 C.ar    1  LIG1        0.1175
      2 C           1.3148    0.9669    1.5394 C.ar    1  LIG1       -0.0112
      3 C          -0.9140    1.3119    0.6614 C.ar    1  LIG1       -0.0190
      4 C           1.8880    1.2651    0.2975 C.ar    1  LIG1        0.0045
      5 H           1.9655    0.7115    2.3708 H       1  LIG1        0.0660
      6 C          -0.3606    1.6034   -0.5750 C.ar    1  LIG1       -0.0423
      7 C           1.0332    1.5856   -0.7884 C.ar    1  LIG1        0.0327
      8 H          -1.0076    1.8465   -1.4112 H       1  LIG1        0.0631
      9 H          -1.9868    1.3257    0.8195 H       1  LIG1        0.0654
     10 O          -0.6480    0.7032    2.9294 O.3     1  LIG1       -0.5067
     11 H           0.0426    0.4839    3.5689 H       1  LIG1        0.2921
     12 C           1.5233    1.8609   -2.1027 C.1     1  LIG1       -0.0690
     13 C           1.8840    2.0945   -3.2347 C.1     1  LIG1       -0.1139
     14 H           2.2253    2.2985   -4.2227 H       1  LIG1        0.1232
     15 C           4.1626    0.1757    0.5678 C.ar    1  LIG1        0.1252
     16 C           5.5509    0.2184    0.4415 C.ar    1  LIG1       -0.0106
     17 C           3.3704    1.2685    0.1594 C.ar    1  LIG1        0.0260
     18 C           6.2158    1.3300   -0.0838 C.ar    1  LIG1        0.0045
     19 H           6.1352   -0.6419    0.7553 H       1  LIG1        0.0661
     20 C           4.0367    2.3744   -0.3705 C.ar    1  LIG1       -0.0345
     21 C           5.4351    2.4365   -0.5041 C.ar    1  LIG1        0.0333
     22 H           3.4537    3.2262   -0.6993 H       1  LIG1        0.0637
     23 O           3.5355   -0.9222    1.0884 O.3     1  LIG1       -0.5061
     24 H           4.1975   -1.6071    1.2516 H       1  LIG1        0.2922
     25 C           6.0065    3.6097   -1.0886 C.1     1  LIG1       -0.0690
     26 C           6.4410    4.6204   -1.5938 C.1     1  LIG1       -0.1139
     27 H           6.8426    5.5025   -2.0354 H       1  LIG1        0.1232
     28 C           8.4270    0.2707   -0.7321 C.ar    1  LIG1        0.1252
     29 C           9.8211    0.2963   -0.7644 C.ar    1  LIG1       -0.0106
     30 C           7.7020    1.3335   -0.1533 C.ar    1  LIG1        0.0260
     31 C          10.5573    1.3569   -0.2298 C.ar    1  LIG1        0.0045
     32 H          10.3524   -0.5321   -1.2246 H       1  LIG1        0.0661
     33 C           8.4407    2.3938    0.3745 C.ar    1  LIG1       -0.0345
     34 C           9.8459    2.4358    0.3527 C.ar    1  LIG1        0.0333
     35 H           7.9118    3.2274    0.8201 H       1  LIG1        0.0637
     36 O           7.7293   -0.7808   -1.2581 O.3     1  LIG1       -0.5061
     37 H           8.3532   -1.3845   -1.6828 H       1  LIG1        0.2922
     38 C          10.4972    3.5856    0.8991 C.1     1  LIG1       -0.0690
     39 C          11.0015    4.5812    1.3681 C.1     1  LIG1       -0.1139
     40 H          11.4619    5.4501    1.7773 H       1  LIG1        0.1232
     41 C          12.7609    1.0601   -1.4440 C.ar    1  LIG1        0.1246
     42 C          14.1592    1.0102   -1.4345 C.ar    1  LIG1       -0.0184
     43 C          12.0454    1.3093   -0.2530 C.ar    1  LIG1        0.0260
     44 C          14.8671    1.1974   -0.2549 C.ar    1  LIG1       -0.0429
     45 H          14.6932    0.8237   -2.3640 H       1  LIG1        0.0654
     46 C          12.7789    1.4946    0.9225 C.ar    1  LIG1       -0.0351
     47 C          14.1831    1.4411    0.9483 C.ar    1  LIG1        0.0255
     48 H          12.2464    1.6837    1.8469 H       1  LIG1        0.0637
     49 H          15.9510    1.1547   -0.2570 H       1  LIG1        0.0631
     50 O          12.0520    0.8780   -2.5981 O.3     1  LIG1       -0.5062
     51 H          12.6717    0.7875   -3.3341 H       1  LIG1        0.2922
     52 C          14.8971    1.6268    2.1719 C.1     1  LIG1       -0.0696
     53 C          15.5055    1.7826    3.2067 C.1     1  LIG1       -0.1139
     54 H          16.0376    1.9210    4.1189 H       1  LIG1        0.1232
@<TRIPOS>BOND
     1    14    13    1
     2    51    50    1
     3    13    12    3
     4    50    41    1
     5    45    42    1
     6    12     7    1
     7    27    26    1
     8    37    36    1
     9    26    25    3
    10    41    42   ar
    11    41    43   ar
    12    42    44   ar
    13     8     6    1
    14    36    28    1
    15    32    29    1
    16    25    21    1
    17     7     6   ar
    18     7     4   ar
    19    29    28   ar
    20    29    31   ar
    21    28    30   ar
    22    22    20    1
    23     6     3   ar
    24    21    20   ar
    25    21    18   ar
    26    20    17   ar
    27    49    44    1
    28    44    47   ar
    29    43    31    1
    30    43    46   ar
    31    31    34   ar
    32    30    18    1
    33    30    33   ar
    34    18    16   ar
    35    17     4    1
    36    17    15   ar
    37     4     2   ar
    38    34    33   ar
    39    34    38    1
    40    33    35    1
    41    16    15   ar
    42    16    19    1
    43    15    23    1
    44     3     9    1
    45     3     1   ar
    46    38    39    3
    47    46    47   ar
    48    46    48    1
    49    47    52    1
    50    23    24    1
    51    39    40    1
    52     2     1   ar
    53     2     5    1
    54     1    10    1
    55    52    53    3
    56    10    11    1
    57    53    54    1
