@<TRIPOS>MOLECULE
mol_data/opt/b3lyp/geoms/mol2/4fe4fe-4fe4fe.out
 54 57 0 0 0
SMALL
GASTEIGER

@<TRIPOS>ATOM
      1 C           0.0068    1.2088    1.6391 C.ar    1  LIG1        0.1175
      2 C           1.3782    1.1975    1.3766 C.ar    1  LIG1       -0.0112
      3 C          -0.9058    1.3784    0.5907 C.ar    1  LIG1       -0.0190
      4 C           1.8802    1.3486    0.0766 C.ar    1  LIG1        0.0045
      5 H           2.0815    1.0882    2.1984 H       1  LIG1        0.0660
      6 C          -0.4281    1.5315   -0.6996 C.ar    1  LIG1       -0.0423
      7 C           0.9535    1.5171   -0.9843 C.ar    1  LIG1        0.0327
      8 H          -1.1246    1.6586   -1.5216 H       1  LIG1        0.0631
      9 H          -1.9682    1.3890    0.8073 H       1  LIG1        0.0654
     10 O          -0.5002    1.0700    2.8949 O.3     1  LIG1       -0.5067
     11 H           0.2259    0.9661    3.5246 H       1  LIG1        0.2921
     12 C           1.3775    1.6610   -2.3410 C.1     1  LIG1       -0.0690
     13 C           1.7260    1.8240   -3.4903 C.1     1  LIG1       -0.1139
     14 H           2.0452    1.9397   -4.5004 H       1  LIG1        0.1232
     15 C           4.1196    2.3059   -0.7298 C.ar    1  LIG1        0.1252
     16 C           5.5165    2.2193   -0.7476 C.ar    1  LIG1       -0.0106
     17 C           3.3588    1.2891   -0.1097 C.ar    1  LIG1        0.0260
     18 C           6.2040    1.1447   -0.1883 C.ar    1  LIG1        0.0045
     19 H           6.0619    3.0204   -1.2346 H       1  LIG1        0.0661
     20 C           4.0581    0.2122    0.4509 C.ar    1  LIG1       -0.0345
     21 C           5.4561    0.1089    0.4275 C.ar    1  LIG1        0.0333
     22 H           3.4932   -0.5814    0.9285 H       1  LIG1        0.0637
     23 O           3.5881    3.4303   -1.2813 O.3     1  LIG1       -0.5061
     24 H           2.7013    3.2445   -1.6251 H       1  LIG1        0.2922
     25 C           6.0784   -1.0063    1.0683 C.1     1  LIG1       -0.0690
     26 C           6.5696   -1.9523    1.6420 C.1     1  LIG1       -0.1139
     27 H           7.0151   -2.7823    2.1389 H       1  LIG1        0.1232
     28 C           8.4176    0.1390   -0.9099 C.ar    1  LIG1        0.1252
     29 C           9.8123    0.1665   -0.9239 C.ar    1  LIG1       -0.0106
     30 C           7.6926    1.1352   -0.2265 C.ar    1  LIG1        0.0260
     31 C          10.5398    1.1742   -0.2837 C.ar    1  LIG1        0.0045
     32 H          10.3506   -0.6093   -1.4610 H       1  LIG1        0.0661
     33 C           8.4180    2.1522    0.3910 C.ar    1  LIG1       -0.0345
     34 C           9.8248    2.1999    0.3829 C.ar    1  LIG1        0.0333
     35 H           7.8778    2.9368    0.9101 H       1  LIG1        0.0637
     36 O           7.7116   -0.8224   -1.5661 O.3     1  LIG1       -0.5061
     37 H           8.3266   -1.4626   -1.9475 H       1  LIG1        0.2922
     38 C          10.4716    3.2997    1.0277 C.1     1  LIG1       -0.0690
     39 C          10.9720    4.2533    1.5809 C.1     1  LIG1       -0.1139
     40 H          11.4300    5.0847    2.0640 H       1  LIG1        0.1232
     41 C          12.7577    1.0108   -1.4975 C.ar    1  LIG1        0.1246
     42 C          14.1559    0.9607   -1.4777 C.ar    1  LIG1       -0.0184
     43 C          12.0286    1.1305   -0.2951 C.ar    1  LIG1        0.0260
     44 C          14.8501    1.0210   -0.2767 C.ar    1  LIG1       -0.0429
     45 H          14.7007    0.8751   -2.4157 H       1  LIG1        0.0654
     46 C          12.7481    1.1902    0.9018 C.ar    1  LIG1       -0.0351
     47 C          14.1521    1.1349    0.9377 C.ar    1  LIG1        0.0255
     48 H          12.2044    1.2789    1.8348 H       1  LIG1        0.0637
     49 H          15.9340    0.9789   -0.2709 H       1  LIG1        0.0631
     50 O          12.0615    0.9538   -2.6721 O.3     1  LIG1       -0.5062
     51 H          12.6896    0.9322   -3.4062 H       1  LIG1        0.2922
     52 C          14.8522    1.1893    2.1820 C.1     1  LIG1       -0.0696
     53 C          15.4487    1.2344    3.2344 C.1     1  LIG1       -0.1139
     54 H          15.9700    1.2747    4.1623 H       1  LIG1        0.1232
@<TRIPOS>BOND
     1    14    13    1
     2    13    12    3
     3    51    50    1
     4    50    41    1
     5    45    42    1
     6    12     7    1
     7    37    36    1
     8    24    23    1
     9    36    28    1
    10     8     6    1
    11    41    42   ar
    12    41    43   ar
    13    42    44   ar
    14    32    29    1
    15    23    15    1
    16    19    16    1
    17     7     6   ar
    18     7     4   ar
    19    29    28   ar
    20    29    31   ar
    21    28    30   ar
    22    16    15   ar
    23    16    18   ar
    24    15    17   ar
    25     6     3   ar
    26    43    31    1
    27    43    46   ar
    28    31    34   ar
    29    44    49    1
    30    44    47   ar
    31    30    18    1
    32    30    33   ar
    33    18    21   ar
    34    17     4    1
    35    17    20   ar
    36     4     2   ar
    37    34    33   ar
    38    34    38    1
    39    33    35    1
    40    21    20   ar
    41    21    25    1
    42    20    22    1
    43     3     9    1
    44     3     1   ar
    45    46    47   ar
    46    46    48    1
    47    47    52    1
    48    38    39    3
    49    25    26    3
    50     2     1   ar
    51     2     5    1
    52    39    40    1
    53     1    10    1
    54    26    27    1
    55    52    53    3
    56    10    11    1
    57    53    54    1
