@<TRIPOS>MOLECULE
mol_data/opt/b3lyp/geoms/mol2/4fe4ia13ef-4hd-.out
 52 55 0 0 0
SMALL
GASTEIGER

@<TRIPOS>ATOM
      1 C           0.0591    0.8983   -1.7825 C.ar    1  LIG1        0.1175
      2 C           1.4327    0.8519   -1.5292 C.ar    1  LIG1       -0.0113
      3 C          -0.8139    1.3904   -0.8056 C.ar    1  LIG1       -0.0190
      4 C           1.9606    1.2909   -0.3105 C.ar    1  LIG1        0.0012
      5 H           2.1110    0.4808   -2.2948 H       1  LIG1        0.0660
      6 C          -0.3016    1.8285    0.4055 C.ar    1  LIG1       -0.0423
      7 C           1.0812    1.7903    0.6797 C.ar    1  LIG1        0.0326
      8 H          -0.9721    2.2105    1.1682 H       1  LIG1        0.0631
      9 H          -1.8777    1.4222   -1.0144 H       1  LIG1        0.0654
     10 O          -0.4858    0.4840   -2.9622 O.3     1  LIG1       -0.5067
     11 H           0.2181    0.1731   -3.5469 H       1  LIG1        0.2921
     12 C           1.5598    2.2414    1.9487 C.1     1  LIG1       -0.0690
     13 C           1.9326    2.6272    3.0338 C.1     1  LIG1       -0.1139
     14 H           2.2759    2.9623    3.9848 H       1  LIG1        0.1232
     15 C           4.1073    0.0271    0.1749 C.ar    1  LIG1       -0.0421
     16 C           5.4939    0.0409    0.3415 C.ar    1  LIG1       -0.0491
     17 C           3.4388    1.2421   -0.0904 C.ar    1  LIG1       -0.0137
     18 C           6.2445    1.2260    0.2632 C.ar    1  LIG1       -0.0001
     19 H           6.0079   -0.8927    0.5407 H       1  LIG1        0.0627
     20 C           4.1807    2.4284   -0.1550 C.ar    1  LIG1       -0.0531
     21 C           5.5593    2.4292    0.0205 C.ar    1  LIG1       -0.0520
     22 H           3.6616    3.3650   -0.3341 H       1  LIG1        0.0624
     23 C           3.3524   -1.2770    0.2974 C.3     1  LIG1       -0.0391
     24 H           4.0168   -2.0801    0.6254 H       1  LIG1        0.0278
     25 H           2.9022   -1.5811   -0.6538 H       1  LIG1        0.0278
     26 H           2.5346   -1.1935    1.0203 H       1  LIG1        0.0278
     27 H           6.0955    3.3737    0.0062 H       1  LIG1        0.0624
     28 C           7.6987    1.2129    0.4159 C.ar    1  LIG1        0.0661
     29 C           8.5648    0.3183    1.0640 C.ar    1  LIG1        0.0919
     30 C           9.8980    0.7975    0.8552 C.ar    1  LIG1        0.1581
     31 C           9.8331    1.9582    0.0799 C.ar    1  LIG1        0.0920
     32 N           8.4761    2.1986   -0.1348 N.ar    1  LIG1       -0.3502
     33 H           8.1367    2.8225   -0.8506 H       1  LIG1        0.1660
     34 C           8.2339   -0.8148    1.8465 C.1     1  LIG1       -0.0639
     35 C           7.9814   -1.7941    2.5129 C.1     1  LIG1       -0.1137
     36 H           7.7629   -2.6422    3.1187 H       1  LIG1        0.1232
     37 O          10.9721    0.2089    1.4195 O.3     1  LIG1       -0.5035
     38 H          11.7751    0.5056    0.9399 H       1  LIG1        0.2923
     39 C          12.1578    2.5096   -0.7071 C.ar    1  LIG1        0.0340
     40 C          13.1268    3.4613   -1.0414 C.ar    1  LIG1       -0.0392
     41 C          10.8500    2.9193   -0.3332 C.ar    1  LIG1        0.0238
     42 C          12.8259    4.8171   -1.0610 C.ar    1  LIG1       -0.0426
     43 H          14.1248    3.1283   -1.3144 H       1  LIG1        0.0636
     44 C          10.5584    4.2908   -0.3771 C.ar    1  LIG1       -0.0334
     45 C          11.5247    5.2378   -0.7433 C.ar    1  LIG1        0.0525
     46 H           9.5740    4.6332   -0.0774 H       1  LIG1        0.0637
     47 H          13.5817    5.5455   -1.3321 H       1  LIG1        0.0631
     48 N          12.4710    1.1323   -0.7018 N.pl3   1  LIG1       -0.3575
     49 H          11.7561    0.5739   -1.1645 H       1  LIG1        0.1423
     50 H          13.3821    0.9279   -1.0967 H       1  LIG1        0.1423
     51 N          10.9108    7.7600   -0.8002 N.1     1  LIG1       -0.1909
     52 C          11.1871    6.6298   -0.7711 C.1     1  LIG1        0.0992
@<TRIPOS>BOND
     1    11    10    1
     2    10     1    1
     3     5     2    1
     4     1     2   ar
     5     1     3   ar
     6     2     4   ar
     7    47    42    1
     8    43    40    1
     9    49    48    1
    10    50    48    1
    11    42    40   ar
    12    42    45   ar
    13    40    39   ar
    14     9     3    1
    15    33    32    1
    16     3     6   ar
    17    51    52    3
    18    52    45    1
    19    45    44   ar
    20    39    48    1
    21    39    41   ar
    22    25    23    1
    23    44    41   ar
    24    44    46    1
    25    22    20    1
    26    41    31    1
    27     4    17    1
    28     4     7   ar
    29    20    17   ar
    30    20    21   ar
    31    32    31   ar
    32    32    28   ar
    33    17    15   ar
    34    27    21    1
    35    21    18   ar
    36    31    30   ar
    37    15    23    1
    38    15    16   ar
    39    18    16   ar
    40    18    28    1
    41    23    24    1
    42    23    26    1
    43    16    19    1
    44     6     7   ar
    45     6     8    1
    46    28    29   ar
    47     7    12    1
    48    30    29   ar
    49    30    37    1
    50    38    37    1
    51    29    34    1
    52    34    35    3
    53    12    13    3
    54    35    36    1
    55    13    14    1
