@<TRIPOS>MOLECULE
mol_data/opt/b3lyp/geoms/mol2/4fe4fe4fe-4fe-.out
 54 57 0 0 0
SMALL
GASTEIGER

@<TRIPOS>ATOM
      1 C          -0.2233    0.0506    0.0794 C.ar    1  LIG1        0.1175
      2 C           1.1718    0.0911    0.0885 C.ar    1  LIG1       -0.0112
      3 C          -0.9575    1.2417    0.1068 C.ar    1  LIG1       -0.0190
      4 C           1.8645    1.3066    0.1268 C.ar    1  LIG1        0.0045
      5 H           1.7358   -0.8370    0.0677 H       1  LIG1        0.0660
      6 C          -0.2835    2.4513    0.1513 C.ar    1  LIG1       -0.0423
      7 C           1.1252    2.5160    0.1644 C.ar    1  LIG1        0.0327
      8 H          -0.8436    3.3797    0.1838 H       1  LIG1        0.0631
      9 H          -2.0410    1.1975    0.0979 H       1  LIG1        0.0654
     10 O          -0.9230   -1.1188    0.0369 O.3     1  LIG1       -0.5067
     11 H          -0.3035   -1.8606    0.0351 H       1  LIG1        0.2921
     12 C           1.7488    3.7996    0.2474 C.1     1  LIG1       -0.0690
     13 C           2.2266    4.9095    0.3246 C.1     1  LIG1       -0.1139
     14 H           2.6603    5.8798    0.3959 H       1  LIG1        0.1232
     15 C           4.1199    0.5425    1.0042 C.ar    1  LIG1        0.1252
     16 C           5.5147    0.5584    0.9443 C.ar    1  LIG1       -0.0106
     17 C           3.3530    1.3019    0.0946 C.ar    1  LIG1        0.0260
     18 C           6.2128    1.3055   -0.0111 C.ar    1  LIG1        0.0045
     19 H           6.0812   -0.0118    1.6766 H       1  LIG1        0.0661
     20 C           4.0487    2.0461   -0.8571 C.ar    1  LIG1       -0.0345
     21 C           5.4529    2.0631   -0.9372 C.ar    1  LIG1        0.0333
     22 H           3.4870    2.6307   -1.5757 H       1  LIG1        0.0637
     23 O           3.4613   -0.1867    1.9492 O.3     1  LIG1       -0.5061
     24 H           4.1080   -0.6040    2.5342 H       1  LIG1        0.2922
     25 C           6.0708    2.8344   -1.9695 C.1     1  LIG1       -0.0690
     26 C           6.5874    3.5216   -2.8236 C.1     1  LIG1       -0.1139
     27 H           7.0492    4.1028   -3.5883 H       1  LIG1        0.1232
     28 C           8.5528    2.3545    0.0587 C.ar    1  LIG1        0.1252
     29 C           9.9380    2.1756    0.1660 C.ar    1  LIG1       -0.0106
     30 C           7.7011    1.2283   -0.0144 C.ar    1  LIG1        0.0260
     31 C          10.5349    0.9113    0.1896 C.ar    1  LIG1        0.0045
     32 H          10.5515    3.0708    0.1881 H       1  LIG1        0.0661
     33 C           8.3056   -0.0350    0.0026 C.ar    1  LIG1       -0.0345
     34 C           9.6918   -0.2281    0.1030 C.ar    1  LIG1        0.0333
     35 H           7.6718   -0.9130   -0.0639 H       1  LIG1        0.0637
     36 O           8.1213    3.6412    0.0863 O.3     1  LIG1       -0.5061
     37 H           7.2822    3.7253   -0.3924 H       1  LIG1        0.2922
     38 C          10.1985   -1.5640    0.1392 C.1     1  LIG1       -0.0690
     39 C          10.5819   -2.7114    0.1743 C.1     1  LIG1       -0.1139
     40 H          10.9442   -3.7129    0.2022 H       1  LIG1        0.1232
     41 C          12.7113    1.4132    1.3587 C.ar    1  LIG1        0.1246
     42 C          14.1060    1.3220    1.4376 C.ar    1  LIG1       -0.0184
     43 C          12.0168    0.8005    0.2922 C.ar    1  LIG1        0.0260
     44 C          14.8198    0.6333    0.4693 C.ar    1  LIG1       -0.0429
     45 H          14.6065    1.7995    2.2731 H       1  LIG1        0.0654
     46 C          12.7549    0.1024   -0.6687 C.ar    1  LIG1       -0.0351
     47 C          14.1538    0.0088   -0.6037 C.ar    1  LIG1        0.0255
     48 H          12.2330   -0.3722   -1.4917 H       1  LIG1        0.0637
     49 H          15.9008    0.5690    0.5337 H       1  LIG1        0.0631
     50 O          12.0850    2.0972    2.3553 O.3     1  LIG1       -0.5062
     51 H          11.1273    2.0608    2.2103 H       1  LIG1        0.2922
     52 C          14.8839   -0.7002   -1.6064 C.1     1  LIG1       -0.0696
     53 C          15.5061   -1.3000   -2.4543 C.1     1  LIG1       -0.1139
     54 H          16.0521   -1.8267   -3.2017 H       1  LIG1        0.1232
@<TRIPOS>BOND
     1    27    26    1
     2    54    53    1
     3    26    25    3
     4    53    52    3
     5    25    21    1
     6    52    47    1
     7    22    20    1
     8    48    46    1
     9    21    20   ar
    10    21    18   ar
    11    20    17   ar
    12    46    47   ar
    13    46    43   ar
    14    47    44   ar
    15    37    36    1
    16    35    33    1
    17    30    18    1
    18    30    33   ar
    19    30    28   ar
    20    18    16   ar
    21    33    34   ar
    22    11    10    1
    23    10     1    1
    24    28    36    1
    25    28    29   ar
    26     5     2    1
    27     1     2   ar
    28     1     3   ar
    29     2     4   ar
    30    17     4    1
    31    17    15   ar
    32     9     3    1
    33    34    38    1
    34    34    31   ar
    35     3     6   ar
    36     4     7   ar
    37    38    39    3
    38     6     7   ar
    39     6     8    1
    40     7    12    1
    41    29    32    1
    42    29    31   ar
    43    39    40    1
    44    31    43    1
    45    12    13    3
    46    43    41   ar
    47    13    14    1
    48    44    49    1
    49    44    42   ar
    50    16    15   ar
    51    16    19    1
    52    15    23    1
    53    41    42   ar
    54    41    50    1
    55    42    45    1
    56    23    24    1
    57    51    50    1
