@<TRIPOS>MOLECULE
mol_data/opt/b3lyp/geoms/mol2/4fe4fe4fe4fe-.out
 54 57 0 0 0
SMALL
GASTEIGER

@<TRIPOS>ATOM
      1 C          -0.2417    0.1568    0.5722 C.ar    1  LIG1        0.1175
      2 C           1.1536    0.1673    0.5545 C.ar    1  LIG1       -0.0112
      3 C          -0.9565    1.2254    0.0199 C.ar    1  LIG1       -0.0190
      4 C           1.8681    1.2304   -0.0102 C.ar    1  LIG1        0.0045
      5 H           1.7022   -0.6662    0.9835 H       1  LIG1        0.0660
      6 C          -0.2618    2.2811   -0.5480 C.ar    1  LIG1       -0.0423
      7 C           1.1477    2.3110   -0.5803 C.ar    1  LIG1        0.0327
      8 H          -0.8060    3.1096   -0.9888 H       1  LIG1        0.0631
      9 H          -2.0406    1.2069    0.0412 H       1  LIG1        0.0654
     10 O          -0.9600   -0.8650    1.1212 O.3     1  LIG1       -0.5067
     11 H          -0.3505   -1.5378    1.4525 H       1  LIG1        0.2921
     12 C           1.7906    3.4176   -1.2171 C.1     1  LIG1       -0.0690
     13 C           2.2830    4.3734   -1.7739 C.1     1  LIG1       -0.1139
     14 H           2.7351    5.2069   -2.2591 H       1  LIG1        0.1232
     15 C           4.1063    0.1125   -0.4294 C.ar    1  LIG1        0.1252
     16 C           5.4999    0.1274   -0.3702 C.ar    1  LIG1       -0.0106
     17 C           3.3563    1.2150    0.0304 C.ar    1  LIG1        0.0260
     18 C           6.2082    1.2147    0.1481 C.ar    1  LIG1        0.0045
     19 H           6.0521   -0.7329   -0.7378 H       1  LIG1        0.0661
     20 C           4.0673    2.2955    0.5541 C.ar    1  LIG1       -0.0345
     21 C           5.4709    2.3252    0.6302 C.ar    1  LIG1        0.0333
     22 H           3.5167    3.1499    0.9290 H       1  LIG1        0.0637
     23 O           3.4336   -0.9582   -0.9470 O.3     1  LIG1       -0.5061
     24 H           4.0772   -1.6073   -1.2608 H       1  LIG1        0.2922
     25 C           6.0935    3.4653    1.2282 C.1     1  LIG1       -0.0690
     26 C           6.5723    4.4480    1.7485 C.1     1  LIG1       -0.1139
     27 H           7.0032    5.3082    2.2057 H       1  LIG1        0.1232
     28 C           8.4291    0.1140    0.6900 C.ar    1  LIG1        0.1252
     29 C           9.8250    0.1296    0.6802 C.ar    1  LIG1       -0.0106
     30 C           7.6957    1.1940    0.1525 C.ar    1  LIG1        0.0260
     31 C          10.5531    1.1903    0.1319 C.ar    1  LIG1        0.0045
     32 H          10.3691   -0.6993    1.1270 H       1  LIG1        0.0661
     33 C           8.4239    2.2490   -0.3979 C.ar    1  LIG1       -0.0345
     34 C           9.8305    2.2735   -0.4310 C.ar    1  LIG1        0.0333
     35 H           7.8866    3.0827   -0.8335 H       1  LIG1        0.0637
     36 O           7.7383   -0.9288    1.2353 O.3     1  LIG1       -0.5061
     37 H           8.3676   -1.5588    1.6118 H       1  LIG1        0.2922
     38 C          10.4879    3.3734   -1.0661 C.1     1  LIG1       -0.0690
     39 C          11.0235    4.3211   -1.5955 C.1     1  LIG1       -0.1139
     40 H          11.5085    5.1456   -2.0645 H       1  LIG1        0.1232
     41 C          12.8368    2.0892    0.7948 C.ar    1  LIG1        0.1246
     42 C          14.2292    1.9409    0.8368 C.ar    1  LIG1       -0.0184
     43 C          12.0417    1.1191    0.1442 C.ar    1  LIG1        0.0260
     44 C          14.8432    0.8490    0.2443 C.ar    1  LIG1       -0.0429
     45 H          14.8084    2.7012    1.3497 H       1  LIG1        0.0654
     46 C          12.6821    0.0213   -0.4421 C.ar    1  LIG1       -0.0351
     47 C          14.0766   -0.1348   -0.4104 C.ar    1  LIG1        0.0255
     48 H          12.0800   -0.7256   -0.9491 H       1  LIG1        0.0637
     49 H          15.9226    0.7458    0.2807 H       1  LIG1        0.0631
     50 O          12.3264    3.1706    1.4380 O.3     1  LIG1       -0.5062
     51 H          11.3816    3.2523    1.2458 H       1  LIG1        0.2922
     52 C          14.6985   -1.2633   -1.0268 C.1     1  LIG1       -0.0696
     53 C          15.2274   -2.2204   -1.5464 C.1     1  LIG1       -0.1139
     54 H          15.6943   -3.0599   -2.0066 H       1  LIG1        0.1232
@<TRIPOS>BOND
     1    14    13    1
     2    40    39    1
     3    54    53    1
     4    13    12    3
     5    39    38    3
     6    53    52    3
     7    24    23    1
     8    12     7    1
     9    38    34    1
    10    52    47    1
    11     8     6    1
    12    48    46    1
    13    23    15    1
    14    35    33    1
    15    19    16    1
    16     7     6   ar
    17     7     4   ar
    18     6     3   ar
    19    46    47   ar
    20    46    43   ar
    21    34    33   ar
    22    34    31   ar
    23    15    16   ar
    24    15    17   ar
    25    47    44   ar
    26    33    30   ar
    27    16    18   ar
    28     4    17    1
    29     4     2   ar
    30     3     9    1
    31     3     1   ar
    32    17    20   ar
    33    31    43    1
    34    31    29   ar
    35    43    41   ar
    36    18    30    1
    37    18    21   ar
    38    30    28   ar
    39    44    49    1
    40    44    42   ar
    41    20    21   ar
    42    20    22    1
    43     2     1   ar
    44     2     5    1
    45     1    10    1
    46    21    25    1
    47    29    28   ar
    48    29    32    1
    49    28    36    1
    50    41    42   ar
    51    41    50    1
    52    42    45    1
    53    10    11    1
    54    25    26    3
    55    36    37    1
    56    51    50    1
    57    26    27    1
