@<TRIPOS>MOLECULE
mol_data/opt/b3lyp/geoms/mol2/4fe4fe-4fe.out
 41 43 0 0 0
SMALL
GASTEIGER

@<TRIPOS>ATOM
      1 C          -0.0505   -0.0143    0.4879 C.ar    1  LIG1        0.1175
      2 C           1.3422    0.0860    0.4720 C.ar    1  LIG1       -0.0112
      3 C          -0.8365    1.0992    0.1667 C.ar    1  LIG1       -0.0190
      4 C           1.9894    1.2827    0.1347 C.ar    1  LIG1        0.0045
      5 H           1.9470   -0.7754    0.7438 H       1  LIG1        0.0660
      6 C          -0.2140    2.2897   -0.1676 C.ar    1  LIG1       -0.0423
      7 C           1.1915    2.4084   -0.1954 C.ar    1  LIG1        0.0327
      8 H          -0.8118    3.1578   -0.4247 H       1  LIG1        0.0631
      9 H          -1.9170    1.0103    0.1865 H       1  LIG1        0.0654
     10 O          -0.6988   -1.1651    0.8179 O.3     1  LIG1       -0.5067
     11 H          -0.0497   -1.8524    1.0198 H       1  LIG1        0.2921
     12 C           1.7692    3.6599   -0.5717 C.1     1  LIG1       -0.0690
     13 C           2.2442    4.7378   -0.8563 C.1     1  LIG1       -0.1139
     14 H           2.6751    5.6739   -1.1276 H       1  LIG1        0.1232
     15 C           4.2783    2.1791    0.8621 C.ar    1  LIG1        0.1252
     16 C           5.6696    2.0261    0.8794 C.ar    1  LIG1       -0.0106
     17 C           3.4807    1.2851    0.1132 C.ar    1  LIG1        0.0260
     18 C           6.3162    1.0205    0.1652 C.ar    1  LIG1        0.0045
     19 H           6.2428    2.7166    1.4886 H       1  LIG1        0.0661
     20 C           4.1405    0.2883   -0.6175 C.ar    1  LIG1       -0.0345
     21 C           5.5341    0.1360   -0.6207 C.ar    1  LIG1        0.0333
     22 H           3.5482   -0.3891   -1.2236 H       1  LIG1        0.0637
     23 O           3.7827    3.1729    1.6467 O.3     1  LIG1       -0.5061
     24 H           2.9186    3.4586    1.3158 H       1  LIG1        0.2922
     25 C           6.1203   -0.8744   -1.4432 C.1     1  LIG1       -0.0690
     26 C           6.5827   -1.7288   -2.1654 C.1     1  LIG1       -0.1139
     27 H           7.0013   -2.4743   -2.8004 H       1  LIG1        0.1232
     28 C           8.4683   -0.1868    0.7331 C.ar    1  LIG1        0.1246
     29 C           9.8662   -0.2294    0.7655 C.ar    1  LIG1       -0.0184
     30 C           7.8035    0.9400    0.2073 C.ar    1  LIG1        0.0260
     31 C          10.6179    0.8389    0.2922 C.ar    1  LIG1       -0.0429
     32 H          10.3655   -1.1044    1.1761 H       1  LIG1        0.0654
     33 C           8.5758    2.0093   -0.2490 C.ar    1  LIG1       -0.0351
     34 C           9.9823    1.9826   -0.2203 C.ar    1  LIG1        0.0255
     35 H           8.0731    2.8814   -0.6535 H       1  LIG1        0.0637
     36 H          11.7015    0.7967    0.3212 H       1  LIG1        0.0631
     37 O           7.7038   -1.1993    1.2280 O.3     1  LIG1       -0.5062
     38 H           8.2778   -1.9291    1.4952 H       1  LIG1        0.2922
     39 C          10.7433    3.0901   -0.7048 C.1     1  LIG1       -0.0696
     40 C          11.3901    4.0280   -1.1140 C.1     1  LIG1       -0.1139
     41 H          11.9572    4.8539   -1.4755 H       1  LIG1        0.1232
@<TRIPOS>BOND
     1    27    26    1
     2    26    25    3
     3    41    40    1
     4    25    21    1
     5    22    20    1
     6    14    13    1
     7    40    39    3
     8    13    12    3
     9    39    34    1
    10    35    33    1
    11    21    20   ar
    12    21    18   ar
    13    20    17   ar
    14    12     7    1
    15     8     6    1
    16    33    34   ar
    17    33    30   ar
    18    34    31   ar
    19     7     6   ar
    20     7     4   ar
    21     6     3   ar
    22    17     4    1
    23    17    15   ar
    24     4     2   ar
    25    18    30    1
    26    18    16   ar
    27     3     9    1
    28     3     1   ar
    29    30    28   ar
    30    31    36    1
    31    31    29   ar
    32     2     1   ar
    33     2     5    1
    34     1    10    1
    35    28    29   ar
    36    28    37    1
    37    29    32    1
    38    10    11    1
    39    15    16   ar
    40    15    23    1
    41    16    19    1
    42    37    38    1
    43    24    23    1
