@<TRIPOS>MOLECULE
mol_data/opt/b3lyp/geoms/mol2/4fe4fe-.out
 28 29 0 0 0
SMALL
GASTEIGER

@<TRIPOS>ATOM
      1 C          -0.0355    0.2091    0.6355 C.ar    1  LIG1        0.1175
      2 C           1.3608    0.2122    0.6705 C.ar    1  LIG1       -0.0112
      3 C          -0.7226    1.2901    0.0688 C.ar    1  LIG1       -0.0190
      4 C           2.1024    1.2758    0.1403 C.ar    1  LIG1        0.0045
      5 H           1.8926   -0.6183    1.1285 H       1  LIG1        0.0660
      6 C          -0.0032    2.3483   -0.4608 C.ar    1  LIG1       -0.0423
      7 C           1.4081    2.3669   -0.4446 C.ar    1  LIG1        0.0327
      8 H          -0.5267    3.1841   -0.9128 H       1  LIG1        0.0631
      9 H          -1.8068    1.2783    0.0523 H       1  LIG1        0.0654
     10 O          -0.7809   -0.8097    1.1452 O.3     1  LIG1       -0.5067
     11 H          -0.1942   -1.4900    1.5021 H       1  LIG1        0.2921
     12 C           2.0955    3.4658   -1.0478 C.1     1  LIG1       -0.0690
     13 C           2.6510    4.4152   -1.5535 C.1     1  LIG1       -0.1139
     14 H           3.1567    5.2403   -1.9991 H       1  LIG1        0.1232
     15 C           4.3654    2.1556    0.8913 C.ar    1  LIG1        0.1246
     16 C           5.7564    2.0100    0.9673 C.ar    1  LIG1       -0.0184
     17 C           3.5913    1.2021    0.1937 C.ar    1  LIG1        0.0260
     18 C           6.3891    0.9363    0.3609 C.ar    1  LIG1       -0.0429
     19 H           6.3195    2.7575    1.5157 H       1  LIG1        0.0654
     20 C           4.2493    0.1223   -0.4053 C.ar    1  LIG1       -0.0351
     21 C           5.6433   -0.0306   -0.3410 C.ar    1  LIG1        0.0255
     22 H           3.6629   -0.6123   -0.9475 H       1  LIG1        0.0637
     23 H           7.4675    0.8349    0.4228 H       1  LIG1        0.0631
     24 O           3.8315    3.2192    1.5462 O.3     1  LIG1       -0.5062
     25 H           2.8909    3.2951    1.3323 H       1  LIG1        0.2922
     26 C           6.2853   -1.1396   -0.9721 C.1     1  LIG1       -0.0696
     27 C           6.8310   -2.0799   -1.5049 C.1     1  LIG1       -0.1139
     28 H           7.3120   -2.9050   -1.9764 H       1  LIG1        0.1232
@<TRIPOS>BOND
     1    14    13    1
     2    28    27    1
     3    13    12    3
     4    27    26    3
     5    12     7    1
     6    26    21    1
     7    22    20    1
     8     8     6    1
     9     6     7   ar
    10     6     3   ar
    11     7     4   ar
    12    20    21   ar
    13    20    17   ar
    14    21    18   ar
    15     9     3    1
    16     3     1   ar
    17     4    17    1
    18     4     2   ar
    19    17    15   ar
    20    18    23    1
    21    18    16   ar
    22     1     2   ar
    23     1    10    1
    24     2     5    1
    25    15    16   ar
    26    15    24    1
    27    16    19    1
    28    10    11    1
    29    25    24    1
