@<TRIPOS>MOLECULE
mol_data/opt/b3lyp/geoms/mol2/4fe4fe-4fe-4fe-.out
 54 57 0 0 0
SMALL
GASTEIGER

@<TRIPOS>ATOM
      1 C          -0.2350    0.3120    0.8277 C.ar    1  LIG1        0.1175
      2 C           1.1607    0.3076    0.7655 C.ar    1  LIG1       -0.0112
      3 C          -0.9560    1.3683    0.2558 C.ar    1  LIG1       -0.0190
      4 C           1.8648    1.3396    0.1323 C.ar    1  LIG1        0.0045
      5 H           1.7203   -0.5025    1.2266 H       1  LIG1        0.0660
      6 C          -0.2728    2.3944   -0.3749 C.ar    1  LIG1       -0.0423
      7 C           1.1364    2.4055   -0.4569 C.ar    1  LIG1        0.0327
      8 H          -0.8243    3.2095   -0.8311 H       1  LIG1        0.0631
      9 H          -2.0387    1.3625    0.3146 H       1  LIG1        0.0654
     10 O          -0.9468   -0.6736    1.4375 O.3     1  LIG1       -0.5067
     11 H          -0.3415   -1.3404    1.7890 H       1  LIG1        0.2921
     12 C           1.7843    3.4678   -1.1608 C.1     1  LIG1       -0.0690
     13 C           2.3065    4.3864   -1.7517 C.1     1  LIG1       -0.1139
     14 H           2.7754    5.1882   -2.2739 H       1  LIG1        0.1232
     15 C           4.1781    2.2460    0.6685 C.ar    1  LIG1        0.1252
     16 C           5.5691    2.0946    0.6488 C.ar    1  LIG1       -0.0106
     17 C           3.3527    1.2618    0.0844 C.ar    1  LIG1        0.0260
     18 C           6.1878    0.9852    0.0618 C.ar    1  LIG1        0.0045
     19 H           6.1626    2.8516    1.1521 H       1  LIG1        0.0661
     20 C           3.9737    0.1521   -0.4942 C.ar    1  LIG1       -0.0345
     21 C           5.3683   -0.0110   -0.5323 C.ar    1  LIG1        0.0333
     22 H           3.3537   -0.6089   -0.9565 H       1  LIG1        0.0637
     23 O           3.7027    3.3425    1.3080 O.3     1  LIG1       -0.5061
     24 H           2.7451    3.4066    1.1816 H       1  LIG1        0.2922
     25 C           5.9090   -1.1594   -1.1883 C.1     1  LIG1       -0.0690
     26 C           6.3241   -2.1440   -1.7570 C.1     1  LIG1       -0.1139
     27 H           6.7101   -3.0030   -2.2551 H       1  LIG1        0.1232
     28 C           8.4676    1.9343   -0.4467 C.ar    1  LIG1        0.1252
     29 C           9.8629    1.8394   -0.4177 C.ar    1  LIG1       -0.0106
     30 C           7.6733    0.8895    0.0715 C.ar    1  LIG1        0.0260
     31 C          10.5157    0.7235    0.1182 C.ar    1  LIG1        0.0045
     32 H          10.4339    2.6436   -0.8709 H       1  LIG1        0.0661
     33 C           8.3276   -0.2264    0.5981 C.ar    1  LIG1       -0.0345
     34 C           9.7269   -0.3341    0.6448 C.ar    1  LIG1        0.0333
     35 H           7.7350   -1.0381    1.0039 H       1  LIG1        0.0637
     36 O           7.9453    3.0543   -1.0125 O.3     1  LIG1       -0.5061
     37 H           6.9783    2.9809   -1.0262 H       1  LIG1        0.2922
     38 C          10.3070   -1.4939    1.2457 C.1     1  LIG1       -0.0690
     39 C          10.7569   -2.4890    1.7674 C.1     1  LIG1       -0.1139
     40 H          11.1740   -3.3571    2.2224 H       1  LIG1        0.1232
     41 C          12.7521    1.7107    0.7320 C.ar    1  LIG1        0.1246
     42 C          14.1515    1.6755    0.7124 C.ar    1  LIG1       -0.0184
     43 C          12.0051    0.6804    0.1195 C.ar    1  LIG1        0.0260
     44 C          14.8179    0.6321    0.0892 C.ar    1  LIG1       -0.0429
     45 H          14.6935    2.4803    1.1974 H       1  LIG1        0.0654
     46 C          12.6965   -0.3682   -0.4945 C.ar    1  LIG1       -0.0351
     47 C          14.0991   -0.4116   -0.5263 C.ar    1  LIG1        0.0255
     48 H          12.1337   -1.1657   -0.9660 H       1  LIG1        0.0637
     49 H          15.9026    0.6120    0.0737 H       1  LIG1        0.0631
     50 O          12.1742    2.7634    1.3732 O.3     1  LIG1       -0.5062
     51 H          11.2111    2.6545    1.3519 H       1  LIG1        0.2922
     52 C          14.7805   -1.4885   -1.1722 C.1     1  LIG1       -0.0696
     53 C          15.3620   -2.3989   -1.7188 C.1     1  LIG1       -0.1139
     54 H          15.8722   -3.1997   -2.2011 H       1  LIG1        0.1232
@<TRIPOS>BOND
     1    14    13    1
     2    27    26    1
     3    54    53    1
     4    26    25    3
     5    13    12    3
     6    53    52    3
     7    25    21    1
     8    52    47    1
     9    12     7    1
    10    37    36    1
    11    36    28    1
    12    48    46    1
    13    22    20    1
    14    32    29    1
    15     8     6    1
    16    21    20   ar
    17    21    18   ar
    18    47    46   ar
    19    47    44   ar
    20    46    43   ar
    21    20    17   ar
    22     7     6   ar
    23     7     4   ar
    24    28    29   ar
    25    28    30   ar
    26    29    31   ar
    27     6     3   ar
    28    18    30    1
    29    18    16   ar
    30    30    33   ar
    31    49    44    1
    32    17     4    1
    33    17    15   ar
    34    44    42   ar
    35    31    43    1
    36    31    34   ar
    37    43    41   ar
    38     4     2   ar
    39     3     9    1
    40     3     1   ar
    41    33    34   ar
    42    33    35    1
    43    34    38    1
    44    16    15   ar
    45    16    19    1
    46    15    23    1
    47    42    41   ar
    48    42    45    1
    49    41    50    1
    50     2     1   ar
    51     2     5    1
    52     1    10    1
    53    24    23    1
    54    38    39    3
    55    51    50    1
    56    10    11    1
    57    39    40    1
