@<TRIPOS>MOLECULE
mol_data/opt/b3lyp/geoms/mol2/4ff.out
 14 14 0 0 0
SMALL
GASTEIGER

@<TRIPOS>ATOM
      1 C           0.0894    0.0333    0.0004 C.ar    1  LIG1        0.1171
      2 C           1.4879    0.0355    0.0000 C.ar    1  LIG1       -0.0167
      3 C          -0.5990    1.2485    0.0003 C.ar    1  LIG1       -0.0167
      4 C           2.1925    1.2377   -0.0005 C.ar    1  LIG1       -0.0167
      5 H           2.0331   -0.9061    0.0001 H       1  LIG1        0.0655
      6 C           0.1057    2.4508   -0.0002 C.ar    1  LIG1       -0.0167
      7 C           1.5042    2.4530   -0.0006 C.ar    1  LIG1        0.1171
      8 H          -0.4395    3.3924   -0.0003 H       1  LIG1        0.0655
      9 H           3.2772    1.2470   -0.0008 H       1  LIG1        0.0655
     10 H          -1.6838    1.2394    0.0006 H       1  LIG1        0.0655
     11 O          -0.6559   -1.1189    0.0009 O.3     1  LIG1       -0.5068
     12 H          -0.0583   -1.8775    0.0010 H       1  LIG1        0.2921
     13 O           2.2494    3.6053   -0.0011 O.3     1  LIG1       -0.5068
     14 H           1.6518    4.3639   -0.0011 H       1  LIG1        0.2921
@<TRIPOS>BOND
     1    14    13    1
     2    13     7    1
     3     9     4    1
     4     7     4   ar
     5     7     6   ar
     6     4     2   ar
     7     8     6    1
     8     6     3   ar
     9     2     5    1
    10     2     1   ar
    11     3     1   ar
    12     3    10    1
    13     1    11    1
    14    11    12    1
