@<TRIPOS>MOLECULE
mol_data/opt/b3lyp/geoms/mol2/4ff4ff4ff-4ff-.out
 50 53 0 0 0
SMALL
GASTEIGER

@<TRIPOS>ATOM
      1 C          -0.2415    0.1679    0.7498 C.ar    1  LIG1        0.1177
      2 C           1.1511    0.2231    0.7254 C.ar    1  LIG1       -0.0089
      3 C          -0.9832    1.0823   -0.0000 C.ar    1  LIG1       -0.0167
      4 C           1.8435    1.1774   -0.0380 C.ar    1  LIG1        0.0306
      5 H           1.7252   -0.4947    1.3022 H       1  LIG1        0.0661
      6 C          -0.3163    2.0374   -0.7600 C.ar    1  LIG1       -0.0161
      7 C           1.0797    2.0961   -0.7874 C.ar    1  LIG1        0.1249
      8 H          -0.8903    2.7519   -1.3467 H       1  LIG1        0.0655
      9 H          -2.0665    1.0360    0.0195 H       1  LIG1        0.0655
     10 O          -0.9326   -0.7551    1.4916 O.3     1  LIG1       -0.5067
     11 H          -0.3005   -1.3361    1.9342 H       1  LIG1        0.2921
     12 O           1.7357    3.0398   -1.5442 O.3     1  LIG1       -0.5062
     13 H           1.0806    3.5208   -2.0661 H       1  LIG1        0.2922
     14 C           4.1209    0.0523   -0.1160 C.ar    1  LIG1        0.1255
     15 C           5.5116    0.1365   -0.0798 C.ar    1  LIG1       -0.0083
     16 C           3.3298    1.2171   -0.0269 C.ar    1  LIG1        0.0306
     17 C           6.1998    1.3541    0.0410 C.ar    1  LIG1        0.0306
     18 H           6.0944   -0.7800   -0.1272 H       1  LIG1        0.0661
     19 C           4.0147    2.4331    0.0995 C.ar    1  LIG1       -0.0083
     20 C           5.4025    2.5067    0.1301 C.ar    1  LIG1        0.1255
     21 H           3.4356    3.3494    0.1549 H       1  LIG1        0.0661
     22 O           3.4930   -1.1621   -0.2354 O.3     1  LIG1       -0.5061
     23 H           4.1652   -1.8449   -0.3591 H       1  LIG1        0.2922
     24 O           6.0420    3.7334    0.2400 O.3     1  LIG1       -0.5061
     25 H           5.3784    4.4351    0.2715 H       1  LIG1        0.2922
     26 C           8.4774    2.0815    0.9568 C.ar    1  LIG1        0.1255
     27 C           9.8665    1.9243    0.9473 C.ar    1  LIG1       -0.0083
     28 C           7.6877    1.3525    0.0363 C.ar    1  LIG1        0.0306
     29 C          10.5223    1.0690    0.0496 C.ar    1  LIG1        0.0306
     30 H          10.4344    2.4616    1.7009 H       1  LIG1        0.0661
     31 C           8.3504    0.5195   -0.8802 C.ar    1  LIG1       -0.0083
     32 C           9.7347    0.3700   -0.8888 C.ar    1  LIG1        0.1255
     33 H           7.7798   -0.0195   -1.6289 H       1  LIG1        0.0661
     34 O           7.9596    2.8936    1.9230 O.3     1  LIG1       -0.5061
     35 H           7.1963    3.3682    1.5449 H       1  LIG1        0.2922
     36 O          10.2693   -0.4560   -1.8379 O.3     1  LIG1       -0.5061
     37 H          11.2353   -0.4295   -1.7583 H       1  LIG1        0.2922
     38 C          12.8289    2.0715   -0.1101 C.ar    1  LIG1        0.1249
     39 C          14.2179    1.9276   -0.1196 C.ar    1  LIG1       -0.0161
     40 C          12.0058    0.9353    0.0529 C.ar    1  LIG1        0.0306
     41 C          14.8046    0.6727    0.0233 C.ar    1  LIG1       -0.0167
     42 H          14.8288    2.8147   -0.2484 H       1  LIG1        0.0655
     43 C          12.6136   -0.3241    0.1901 C.ar    1  LIG1       -0.0089
     44 C          14.0029   -0.4615    0.1788 C.ar    1  LIG1        0.1177
     45 H          12.0039   -1.2084    0.3472 H       1  LIG1        0.0661
     46 H          15.8884    0.5794    0.0137 H       1  LIG1        0.0655
     47 O          12.3283    3.3311   -0.2748 O.3     1  LIG1       -0.5062
     48 H          11.3597    3.2790   -0.2803 H       1  LIG1        0.2922
     49 O          14.5145   -1.7247    0.3287 O.3     1  LIG1       -0.5067
     50 H          15.4790   -1.6754    0.3219 H       1  LIG1        0.2921
@<TRIPOS>BOND
     1    13    12    1
     2    36    37    1
     3    36    32    1
     4    33    31    1
     5    12     7    1
     6     8     6    1
     7    32    31   ar
     8    32    29   ar
     9    31    28   ar
    10     7     6   ar
    11     7     4   ar
    12     6     3   ar
    13    23    22    1
    14    48    47    1
    15    47    38    1
    16    42    39    1
    17    22    14    1
    18    18    15    1
    19    39    38   ar
    20    39    41   ar
    21    14    15   ar
    22    14    16   ar
    23    38    40   ar
    24    15    17   ar
    25     4    16    1
    26     4     2   ar
    27    16    19   ar
    28     3     9    1
    29     3     1   ar
    30    46    41    1
    31    41    44   ar
    32    28    17    1
    33    28    26   ar
    34    17    20   ar
    35    29    40    1
    36    29    27   ar
    37    40    43   ar
    38    19    20   ar
    39    19    21    1
    40    20    24    1
    41    44    43   ar
    42    44    49    1
    43    43    45    1
    44    24    25    1
    45    50    49    1
    46     2     1   ar
    47     2     5    1
    48     1    10    1
    49    27    26   ar
    50    27    30    1
    51    26    34    1
    52    10    11    1
    53    35    34    1
