@<TRIPOS>MOLECULE
mol_data/opt/b3lyp/geoms/mol2/4ff4ff4ff.out
 38 40 0 0 0
SMALL
GASTEIGER

@<TRIPOS>ATOM
      1 C          -0.1420    0.3748    0.8917 C.ar    1  LIG1        0.1177
      2 C           1.2504    0.3592    0.8282 C.ar    1  LIG1       -0.0089
      3 C          -0.8618    1.2567    0.0845 C.ar    1  LIG1       -0.0167
      4 C           1.9664    1.2082   -0.0316 C.ar    1  LIG1        0.0306
      5 H           1.8065   -0.3349    1.4502 H       1  LIG1        0.0661
      6 C          -0.1716    2.1074   -0.7730 C.ar    1  LIG1       -0.0161
      7 C           1.2241    2.0936   -0.8409 C.ar    1  LIG1        0.1249
      8 H          -0.7275    2.7960   -1.4067 H       1  LIG1        0.0655
      9 H          -1.9451    1.2665    0.1350 H       1  LIG1        0.0655
     10 O          -0.8527   -0.4476    1.7294 O.3     1  LIG1       -0.5067
     11 H          -0.2327   -1.0203    2.1991 H       1  LIG1        0.2921
     12 O           1.8991    2.9327   -1.6978 O.3     1  LIG1       -0.5062
     13 H           1.2495    3.3988   -2.2396 H       1  LIG1        0.2922
     14 C           4.1827   -0.0308   -0.0502 C.ar    1  LIG1        0.1255
     15 C           5.5755   -0.0140   -0.0446 C.ar    1  LIG1       -0.0083
     16 C           3.4529    1.1749   -0.0542 C.ar    1  LIG1        0.0306
     17 C           6.3209    1.1732   -0.0471 C.ar    1  LIG1        0.0306
     18 H           6.1107   -0.9584   -0.0524 H       1  LIG1        0.0661
     19 C           4.1982    2.3621   -0.0536 C.ar    1  LIG1       -0.0083
     20 C           5.5911    2.3789   -0.0525 C.ar    1  LIG1        0.1255
     21 H           3.6631    3.3064   -0.0686 H       1  LIG1        0.0661
     22 O           3.4950   -1.2227   -0.0538 O.3     1  LIG1       -0.5061
     23 H           4.1349   -1.9383   -0.1611 H       1  LIG1        0.2922
     24 O           6.2788    3.5708   -0.0585 O.3     1  LIG1       -0.5061
     25 H           5.6392    4.2859   -0.1711 H       1  LIG1        0.2922
     26 C           8.5536    0.2510   -0.8188 C.ar    1  LIG1        0.1249
     27 C           9.9490    0.2378   -0.7440 C.ar    1  LIG1       -0.0161
     28 C           7.8072    1.1402   -0.0172 C.ar    1  LIG1        0.0306
     29 C          10.6349    1.0926    0.1128 C.ar    1  LIG1       -0.0167
     30 H          10.5080   -0.4537   -1.3718 H       1  LIG1        0.0655
     31 C           8.5191    1.9932    0.8420 C.ar    1  LIG1       -0.0089
     32 C           9.9111    1.9782    0.9123 C.ar    1  LIG1        0.1177
     33 H           7.9599    2.6902    1.4581 H       1  LIG1        0.0661
     34 H          11.7180    1.0831    0.1685 H       1  LIG1        0.0655
     35 O           7.8829   -0.5923   -1.6749 O.3     1  LIG1       -0.5062
     36 H           8.5353   -1.0605   -2.2116 H       1  LIG1        0.2922
     37 O          10.6176    2.8047    1.7495 O.3     1  LIG1       -0.5067
     38 H           9.9952    3.3791    2.2139 H       1  LIG1        0.2921
@<TRIPOS>BOND
     1    13    12    1
     2    36    35    1
     3    12     7    1
     4    35    26    1
     5     8     6    1
     6    30    27    1
     7     7     6   ar
     8     7     4   ar
     9    26    27   ar
    10    26    28   ar
    11     6     3   ar
    12    27    29   ar
    13    25    24    1
    14    23    22    1
    15    21    19    1
    16    24    20    1
    17    16    19   ar
    18    16    14   ar
    19    16     4    1
    20    22    14    1
    21    19    20   ar
    22    20    17   ar
    23    18    15    1
    24    14    15   ar
    25    17    15   ar
    26    17    28    1
    27     4     2   ar
    28    28    31   ar
    29     3     9    1
    30     3     1   ar
    31    29    34    1
    32    29    32   ar
    33     2     1   ar
    34     2     5    1
    35    31    32   ar
    36    31    33    1
    37     1    10    1
    38    32    37    1
    39    10    11    1
    40    37    38    1
