@<TRIPOS>MOLECULE
mol_data/opt/b3lyp/geoms/mol2/4ff4ff-4ff-4ff-.out
 50 53 0 0 0
SMALL
GASTEIGER

@<TRIPOS>ATOM
      1 C          -0.1786   -0.0289   -0.1831 C.ar    1  LIG1        0.1177
      2 C           1.2110    0.0826   -0.1396 C.ar    1  LIG1       -0.0089
      3 C          -0.9694    1.1134   -0.0363 C.ar    1  LIG1       -0.0167
      4 C           1.8572    1.3178    0.0461 C.ar    1  LIG1        0.0306
      5 H           1.8239   -0.8104   -0.2288 H       1  LIG1        0.0661
      6 C          -0.3525    2.3447    0.1547 C.ar    1  LIG1       -0.0161
      7 C           1.0379    2.4500    0.1942 C.ar    1  LIG1        0.1249
      8 H          -0.9615    3.2393    0.2676 H       1  LIG1        0.0655
      9 H          -2.0494    1.0239   -0.0664 H       1  LIG1        0.0655
     10 O          -0.8208   -1.2244   -0.3549 O.3     1  LIG1       -0.5067
     11 H          -0.1641   -1.9280   -0.4384 H       1  LIG1        0.2921
     12 O           1.6548    3.6803    0.3686 O.3     1  LIG1       -0.5062
     13 H           0.9806    4.3678    0.4486 H       1  LIG1        0.2922
     14 C           4.1171    2.0454    1.0104 C.ar    1  LIG1        0.1255
     15 C           5.5093    1.9218    0.9959 C.ar    1  LIG1       -0.0083
     16 C           3.3464    1.3565    0.0442 C.ar    1  LIG1        0.0306
     17 C           6.1868    1.1396    0.0484 C.ar    1  LIG1        0.0306
     18 H           6.0619    2.4229    1.7850 H       1  LIG1        0.0661
     19 C           4.0299    0.5992   -0.9207 C.ar    1  LIG1       -0.0083
     20 C           5.4175    0.4832   -0.9347 C.ar    1  LIG1        0.1255
     21 H           3.4738    0.0925   -1.7020 H       1  LIG1        0.0661
     22 O           3.5781    2.7840    2.0226 O.3     1  LIG1       -0.5061
     23 H           2.8072    3.2648    1.6696 H       1  LIG1        0.2922
     24 O           5.9704   -0.2688   -1.9334 O.3     1  LIG1       -0.5061
     25 H           6.9353   -0.2321   -1.8496 H       1  LIG1        0.2922
     26 C           8.4732    2.1998   -0.0273 C.ar    1  LIG1        0.1255
     27 C           9.8645    2.0848   -0.0349 C.ar    1  LIG1       -0.0083
     28 C           7.6723    1.0399    0.0501 C.ar    1  LIG1        0.0306
     29 C          10.5047    0.8369    0.0276 C.ar    1  LIG1        0.0306
     30 H          10.4528    2.9970   -0.0604 H       1  LIG1        0.0661
     31 C           8.3129   -0.2081    0.1027 C.ar    1  LIG1       -0.0083
     32 C           9.7041   -0.3233    0.0903 C.ar    1  LIG1        0.1255
     33 H           7.7254   -1.1172    0.1866 H       1  LIG1        0.0661
     34 O           7.9515    3.4580   -0.1020 O.3     1  LIG1       -0.5061
     35 H           6.9837    3.3908   -0.1123 H       1  LIG1        0.2922
     36 O          10.2255   -1.5837    0.1371 O.3     1  LIG1       -0.5061
     37 H          11.1925   -1.5196    0.0991 H       1  LIG1        0.2922
     38 C          12.7320    1.2722   -1.0699 C.ar    1  LIG1        0.1249
     39 C          14.1233    1.1516   -1.0829 C.ar    1  LIG1       -0.0161
     40 C          11.9911    0.7339    0.0047 C.ar    1  LIG1        0.0306
     41 C          14.7911    0.5002   -0.0494 C.ar    1  LIG1       -0.0167
     42 H          14.6707    1.5709   -1.9202 H       1  LIG1        0.0655
     43 C          12.6796    0.0765    1.0385 C.ar    1  LIG1       -0.0089
     44 C          14.0705   -0.0415    1.0191 C.ar    1  LIG1        0.1177
     45 H          12.1355   -0.3156    1.8923 H       1  LIG1        0.0661
     46 H          15.8752    0.4160   -0.0764 H       1  LIG1        0.0655
     47 O          12.1496    1.9096   -2.1280 O.3     1  LIG1       -0.5062
     48 H          11.1880    1.8988   -2.0057 H       1  LIG1        0.2922
     49 O          14.6640   -0.6892    2.0704 O.3     1  LIG1       -0.5067
     50 H          15.6216   -0.6835    1.9442 H       1  LIG1        0.2921
@<TRIPOS>BOND
     1    47    48    1
     2    47    38    1
     3    24    25    1
     4    24    20    1
     5    42    39    1
     6    21    19    1
     7    39    38   ar
     8    39    41   ar
     9    38    40   ar
    10    20    19   ar
    11    20    17   ar
    12    19    16   ar
    13    11    10    1
    14    10     1    1
    15     5     2    1
    16     1     2   ar
    17     1     3   ar
    18     2     4   ar
    19    35    34    1
    20    34    26    1
    21    46    41    1
    22     9     3    1
    23    30    27    1
    24    41    44   ar
    25     3     6   ar
    26    27    26   ar
    27    27    29   ar
    28    26    28   ar
    29    40    29    1
    30    40    43   ar
    31    29    32   ar
    32    16     4    1
    33    16    14   ar
    34     4     7   ar
    35    17    28    1
    36    17    15   ar
    37    28    31   ar
    38    32    31   ar
    39    32    36    1
    40    37    36    1
    41    31    33    1
    42     6     7   ar
    43     6     8    1
    44     7    12    1
    45    12    13    1
    46    15    14   ar
    47    15    18    1
    48    14    22    1
    49    44    43   ar
    50    44    49    1
    51    43    45    1
    52    23    22    1
    53    50    49    1
