@<TRIPOS>MOLECULE
mol_data/opt/b3lyp/geoms/mol2/4ff4ff.out
 26 27 0 0 0
SMALL
GASTEIGER

@<TRIPOS>ATOM
      1 C          -0.0335    0.1277    0.4787 C.ar    1  LIG1        0.1177
      2 C           1.3603    0.1248    0.4532 C.ar    1  LIG1       -0.0089
      3 C          -0.7309    1.2456    0.0185 C.ar    1  LIG1       -0.0167
      4 C           2.0977    1.2185   -0.0274 C.ar    1  LIG1        0.0306
      5 H           1.9004   -0.7493    0.8033 H       1  LIG1        0.0661
      6 C          -0.0186    2.3406   -0.4599 C.ar    1  LIG1       -0.0161
      7 C           1.3788    2.3403   -0.4887 C.ar    1  LIG1        0.1249
      8 H          -0.5580    3.2137   -0.8221 H       1  LIG1        0.0655
      9 H          -1.8152    1.2455    0.0386 H       1  LIG1        0.0655
     10 O          -0.7672   -0.9327    0.9476 O.3     1  LIG1       -0.5067
     11 H          -0.1609   -1.6391    1.2052 H       1  LIG1        0.2921
     12 O           2.0790    3.4223   -0.9702 O.3     1  LIG1       -0.5062
     13 H           1.4462    4.0612   -1.3225 H       1  LIG1        0.2922
     14 C           4.3095    0.0615   -0.4695 C.ar    1  LIG1        0.1249
     15 C           5.7065    0.0613   -0.4271 C.ar    1  LIG1       -0.0161
     16 C           3.5861    1.1853   -0.0201 C.ar    1  LIG1        0.0306
     17 C           6.4142    1.1585    0.0533 C.ar    1  LIG1       -0.0167
     18 H           6.2494   -0.8134   -0.7802 H       1  LIG1        0.0655
     19 C           4.3189    2.2811    0.4628 C.ar    1  LIG1       -0.0089
     20 C           5.7124    2.2783    0.5018 C.ar    1  LIG1        0.1177
     21 H           3.7754    3.1568    0.8037 H       1  LIG1        0.0661
     22 H           7.4982    1.1586    0.0840 H       1  LIG1        0.0655
     23 O           3.6140   -1.0227   -0.9530 O.3     1  LIG1       -0.5062
     24 H           4.2502   -1.6631   -1.2963 H       1  LIG1        0.2922
     25 O           6.4416    3.3409    0.9731 O.3     1  LIG1       -0.5067
     26 H           5.8328    4.0484    1.2215 H       1  LIG1        0.2921
@<TRIPOS>BOND
     1    13    12    1
     2    24    23    1
     3    12     7    1
     4    23    14    1
     5     8     6    1
     6    18    15    1
     7     7     6   ar
     8     7     4   ar
     9    14    15   ar
    10    14    16   ar
    11     6     3   ar
    12    15    17   ar
    13     4    16    1
    14     4     2   ar
    15    16    19   ar
    16     3     9    1
    17     3     1   ar
    18    17    22    1
    19    17    20   ar
    20     2     1   ar
    21     2     5    1
    22    19    20   ar
    23    19    21    1
    24     1    10    1
    25    20    25    1
    26    10    11    1
    27    25    26    1
