@<TRIPOS>MOLECULE
mol_data/opt/b3lyp/geoms/mol2/4ff4ff4ff4ff-.out
 50 53 0 0 0
SMALL
GASTEIGER

@<TRIPOS>ATOM
      1 C          -0.2729    0.0345    0.4618 C.ar    1  LIG1        0.1177
      2 C           1.1203    0.0629    0.4309 C.ar    1  LIG1       -0.0089
      3 C          -0.9973    1.1429    0.0207 C.ar    1  LIG1       -0.0167
      4 C           1.8318    1.1802   -0.0362 C.ar    1  LIG1        0.0306
      5 H           1.6812   -0.8038    0.7656 H       1  LIG1        0.0661
      6 C          -0.3116    2.2605   -0.4439 C.ar    1  LIG1       -0.0161
      7 C           1.0851    2.2923   -0.4778 C.ar    1  LIG1        0.1249
      8 H          -0.8718    3.1266   -0.7910 H       1  LIG1        0.0655
      9 H          -2.0811    1.1182    0.0448 H       1  LIG1        0.0655
     10 O          -0.9805   -1.0486    0.9180 O.3     1  LIG1       -0.5067
     11 H          -0.3577   -1.7458    1.1608 H       1  LIG1        0.2921
     12 O           1.7570    3.3983   -0.9465 O.3     1  LIG1       -0.5062
     13 H           1.1067    4.0248   -1.2892 H       1  LIG1        0.2922
     14 C           4.0751    0.0695   -0.4635 C.ar    1  LIG1        0.1255
     15 C           5.4666    0.1034   -0.4214 C.ar    1  LIG1       -0.0083
     16 C           3.3189    1.1788   -0.0337 C.ar    1  LIG1        0.0306
     17 C           6.1858    1.2151    0.0414 C.ar    1  LIG1        0.0306
     18 H           6.0214   -0.7681   -0.7539 H       1  LIG1        0.0661
     19 C           4.0375    2.2903    0.4273 C.ar    1  LIG1       -0.0083
     20 C           5.4292    2.3251    0.4687 C.ar    1  LIG1        0.1255
     21 H           3.4820    3.1621    0.7585 H       1  LIG1        0.0661
     22 O           3.4131   -1.0394   -0.9363 O.3     1  LIG1       -0.5061
     23 H           4.0720   -1.6808   -1.2321 H       1  LIG1        0.2922
     24 O           6.0894    3.4374    0.9392 O.3     1  LIG1       -0.5061
     25 H           5.4289    4.0710    1.2482 H       1  LIG1        0.2922
     26 C           8.4278    0.0912    0.4517 C.ar    1  LIG1        0.1255
     27 C           9.8205    0.1303    0.4259 C.ar    1  LIG1       -0.0083
     28 C           7.6707    1.2120    0.0489 C.ar    1  LIG1        0.0306
     29 C          10.5470    1.2566    0.0080 C.ar    1  LIG1        0.0306
     30 H          10.3761   -0.7389    0.7693 H       1  LIG1        0.0661
     31 C           8.3944    2.3390   -0.3657 C.ar    1  LIG1       -0.0083
     32 C           9.7839    2.3673   -0.3874 C.ar    1  LIG1        0.1255
     33 H           7.8435    3.2207   -0.6768 H       1  LIG1        0.0661
     34 O           7.7662   -1.0302    0.8888 O.3     1  LIG1       -0.5061
     35 H           8.4209   -1.6673    1.2031 H       1  LIG1        0.2922
     36 O          10.4580    3.4994   -0.8234 O.3     1  LIG1       -0.5061
     37 H           9.8129    4.1866   -1.0368 H       1  LIG1        0.2922
     38 C          12.8688    2.2124    0.5060 C.ar    1  LIG1        0.1249
     39 C          14.2524    2.0146    0.5463 C.ar    1  LIG1       -0.0161
     40 C          12.0343    1.1949   -0.0168 C.ar    1  LIG1        0.0306
     41 C          14.8321    0.8419    0.0726 C.ar    1  LIG1       -0.0167
     42 H          14.8637    2.8073    0.9644 H       1  LIG1        0.0655
     43 C          12.6407    0.0281   -0.5135 C.ar    1  LIG1       -0.0089
     44 C          14.0206   -0.1560   -0.4732 C.ar    1  LIG1        0.1177
     45 H          12.0306   -0.7530   -0.9543 H       1  LIG1        0.0661
     46 H          15.9116    0.7122    0.1142 H       1  LIG1        0.0655
     47 O          12.3955    3.3756    1.0427 O.3     1  LIG1       -0.5062
     48 H          11.6431    3.6745    0.4999 H       1  LIG1        0.2922
     49 O          14.5190   -1.3298   -0.9834 O.3     1  LIG1       -0.5067
     50 H          15.4819   -1.3153   -0.9103 H       1  LIG1        0.2921
@<TRIPOS>BOND
     1    13    12    1
     2    23    22    1
     3    37    36    1
     4    49    50    1
     5    49    44    1
     6    45    43    1
     7    12     7    1
     8    22    14    1
     9    36    32    1
    10     8     6    1
    11    18    15    1
    12    33    31    1
    13    43    44   ar
    14    43    40   ar
    15     7     6   ar
    16     7     4   ar
    17    44    41   ar
    18    14    15   ar
    19    14    16   ar
    20     6     3   ar
    21    15    17   ar
    22    32    31   ar
    23    32    29   ar
    24    31    28   ar
    25     4    16    1
    26     4     2   ar
    27    16    19   ar
    28    40    29    1
    29    40    38   ar
    30    29    27   ar
    31     3     9    1
    32     3     1   ar
    33    17    28    1
    34    17    20   ar
    35    28    26   ar
    36    41    46    1
    37    41    39   ar
    38    27    26   ar
    39    27    30    1
    40    19    20   ar
    41    19    21    1
    42     2     1   ar
    43     2     5    1
    44    26    34    1
    45     1    10    1
    46    20    24    1
    47    48    47    1
    48    38    39   ar
    49    38    47    1
    50    39    42    1
    51    34    35    1
    52    10    11    1
    53    24    25    1
