@<TRIPOS>MOLECULE
mol_data/opt/b3lyp/geoms/mol2/4ff4ff-4ff4ff-.out
 50 53 0 0 0
SMALL
GASTEIGER

@<TRIPOS>ATOM
      1 C          -0.2519    0.0909    0.4045 C.ar    1  LIG1        0.1177
      2 C           1.1416    0.1480    0.3929 C.ar    1  LIG1       -0.0089
      3 C          -0.9942    1.2035    0.0018 C.ar    1  LIG1       -0.0167
      4 C           1.8413    1.2965   -0.0183 C.ar    1  LIG1        0.0306
      5 H           1.7160   -0.7101    0.7318 H       1  LIG1        0.0661
      6 C          -0.3244    2.3530   -0.4028 C.ar    1  LIG1       -0.0161
      7 C           1.0695    2.4022   -0.4160 C.ar    1  LIG1        0.1249
      8 H          -0.8946    3.2235   -0.7208 H       1  LIG1        0.0655
      9 H          -2.0773    1.1584    0.0160 H       1  LIG1        0.0655
     10 O          -0.9437   -1.0184    0.8100 O.3     1  LIG1       -0.5067
     11 H          -0.3151   -1.7083    1.0593 H       1  LIG1        0.2921
     12 O           1.7367    3.5441   -0.8361 O.3     1  LIG1       -0.5062
     13 H           1.0897    4.2172   -1.0846 H       1  LIG1        0.2922
     14 C           4.1481    2.2892    0.4948 C.ar    1  LIG1        0.1255
     15 C           5.5307    2.1151    0.5283 C.ar    1  LIG1       -0.0083
     16 C           3.3300    1.2653   -0.0372 C.ar    1  LIG1        0.0306
     17 C           6.1706    0.9639    0.0432 C.ar    1  LIG1        0.0306
     18 H           6.1164    2.9132    0.9720 H       1  LIG1        0.0661
     19 C           3.9698    0.1151   -0.5225 C.ar    1  LIG1       -0.0083
     20 C           5.3528   -0.0595   -0.4896 C.ar    1  LIG1        0.1255
     21 H           3.3832   -0.6839   -0.9631 H       1  LIG1        0.0661
     22 O           3.6587    3.4378    1.0512 O.3     1  LIG1       -0.5061
     23 H           2.9024    3.7330    0.5127 H       1  LIG1        0.2922
     24 O           5.8418   -1.2070   -1.0489 O.3     1  LIG1       -0.5061
     25 H           6.5978   -1.5057   -0.5127 H       1  LIG1        0.2922
     26 C           8.4398   -0.1721    0.4070 C.ar    1  LIG1        0.1255
     27 C           9.8294   -0.1162    0.3966 C.ar    1  LIG1       -0.0083
     28 C           7.6570    0.9319    0.0253 C.ar    1  LIG1        0.0306
     29 C          10.5378    1.0319    0.0088 C.ar    1  LIG1        0.0306
     30 H          10.3965   -0.9819    0.7291 H       1  LIG1        0.0661
     31 C           8.3659    2.0796   -0.3629 C.ar    1  LIG1       -0.0083
     32 C           9.7555    2.1357   -0.3726 C.ar    1  LIG1        0.1255
     33 H           7.7991    2.9452   -0.6961 H       1  LIG1        0.0661
     34 O           7.7834   -1.3180    0.8237 O.3     1  LIG1       -0.5061
     35 H           8.4347   -1.9890    1.0679 H       1  LIG1        0.2922
     36 O          10.4125    3.2815   -0.7886 O.3     1  LIG1       -0.5061
     37 H           9.7617    3.9543   -1.0291 H       1  LIG1        0.2922
     38 C          12.8358    2.0218    0.5408 C.ar    1  LIG1        0.1249
     39 C          14.2228    1.8506    0.5854 C.ar    1  LIG1       -0.0161
     40 C          12.0256    0.9990   -0.0081 C.ar    1  LIG1        0.0306
     41 C          14.8280    0.6997    0.0913 C.ar    1  LIG1       -0.0167
     42 H          14.8160    2.6461    1.0237 H       1  LIG1        0.0655
     43 C          12.6569   -0.1457   -0.5250 C.ar    1  LIG1       -0.0089
     44 C          14.0400   -0.3032   -0.4799 C.ar    1  LIG1        0.1177
     45 H          12.0653   -0.9286   -0.9872 H       1  LIG1        0.0661
     46 H          15.9096    0.5907    0.1368 H       1  LIG1        0.0655
     47 O          12.3356    3.1632    1.1003 O.3     1  LIG1       -0.5062
     48 H          11.5891    3.4674    0.5535 H       1  LIG1        0.2922
     49 O          14.5640   -1.4557   -1.0102 O.3     1  LIG1       -0.5067
     50 H          15.5262   -1.4235   -0.9351 H       1  LIG1        0.2921
@<TRIPOS>BOND
     1    13    12    1
     2    24    25    1
     3    24    20    1
     4    37    36    1
     5    49    50    1
     6    49    44    1
     7    45    43    1
     8    21    19    1
     9    12     7    1
    10    36    32    1
    11     8     6    1
    12    33    31    1
    13    43    44   ar
    14    43    40   ar
    15    19    20   ar
    16    19    16   ar
    17    20    17   ar
    18    44    41   ar
    19     7     6   ar
    20     7     4   ar
    21     6     3   ar
    22    32    31   ar
    23    32    29   ar
    24    31    28   ar
    25    16     4    1
    26    16    14   ar
    27     4     2   ar
    28    40    29    1
    29    40    38   ar
    30     3     9    1
    31     3     1   ar
    32    29    27   ar
    33    28    17    1
    34    28    26   ar
    35    17    15   ar
    36    41    46    1
    37    41    39   ar
    38     2     1   ar
    39     2     5    1
    40    27    26   ar
    41    27    30    1
    42     1    10    1
    43    26    34    1
    44    14    15   ar
    45    14    22    1
    46    23    22    1
    47    15    18    1
    48    38    39   ar
    49    38    47    1
    50    48    47    1
    51    39    42    1
    52    10    11    1
    53    34    35    1
