@<TRIPOS>MOLECULE
mol_data/opt/b3lyp/geoms/mol2/4ff4ff-.out
 26 27 0 0 0
SMALL
GASTEIGER

@<TRIPOS>ATOM
      1 C           0.0078    0.0776   -0.4117 C.ar    1  LIG1        0.1177
      2 C           1.4012    0.1416   -0.4054 C.ar    1  LIG1       -0.0089
      3 C          -0.7381    1.1849   -0.0015 C.ar    1  LIG1       -0.0167
      4 C           2.0962    1.2921    0.0069 C.ar    1  LIG1        0.0306
      5 H           1.9790   -0.7125   -0.7487 H       1  LIG1        0.0661
      6 C          -0.0726    2.3363    0.4049 C.ar    1  LIG1       -0.0161
      7 C           1.3213    2.3925    0.4124 C.ar    1  LIG1        0.1249
      8 H          -0.6458    3.2026    0.7286 H       1  LIG1        0.0655
      9 H          -1.8211    1.1344   -0.0112 H       1  LIG1        0.0655
     10 O          -0.6802   -1.0339   -0.8181 O.3     1  LIG1       -0.5067
     11 H          -0.0493   -1.7187   -1.0755 H       1  LIG1        0.2921
     12 O           1.9853    3.5351    0.8341 O.3     1  LIG1       -0.5062
     13 H           1.3372    4.2047    1.0889 H       1  LIG1        0.2922
     14 C           4.3894    2.2962   -0.5291 C.ar    1  LIG1        0.1249
     15 C           5.7772    2.1337   -0.5780 C.ar    1  LIG1       -0.0161
     16 C           3.5865    1.2676    0.0189 C.ar    1  LIG1        0.0306
     17 C           6.3906    0.9851   -0.0880 C.ar    1  LIG1       -0.0167
     18 H           6.3647    2.9339   -1.0155 H       1  LIG1        0.0655
     19 C           4.2255    0.1256    0.5309 C.ar    1  LIG1       -0.0089
     20 C           5.6097   -0.0233    0.4826 C.ar    1  LIG1        0.1177
     21 H           3.6386   -0.6632    0.9889 H       1  LIG1        0.0661
     22 H           7.4726    0.8823   -0.1364 H       1  LIG1        0.0655
     23 O           3.8798    3.4375   -1.0820 O.3     1  LIG1       -0.5062
     24 H           3.1376    3.7355   -0.5258 H       1  LIG1        0.2922
     25 O           6.1419   -1.1743    1.0091 O.3     1  LIG1       -0.5067
     26 H           7.1036   -1.1366    0.9293 H       1  LIG1        0.2921
@<TRIPOS>BOND
     1    23    14    1
     2    23    24    1
     3    11    10    1
     4    18    15    1
     5    10     1    1
     6     5     2    1
     7    15    14   ar
     8    15    17   ar
     9    14    16   ar
    10     1     2   ar
    11     1     3   ar
    12     2     4   ar
    13    22    17    1
    14    17    20   ar
    15     9     3    1
    16     3     6   ar
    17     4    16    1
    18     4     7   ar
    19    16    19   ar
    20     6     7   ar
    21     6     8    1
    22     7    12    1
    23    20    19   ar
    24    20    25    1
    25    19    21    1
    26    12    13    1
    27    26    25    1
