@<TRIPOS>MOLECULE
mol_data/opt/b3lyp/geoms/mol2/4ff4ff4ff4ff.out
 50 53 0 0 0
SMALL
GASTEIGER

@<TRIPOS>ATOM
      1 C          -0.2483    0.7104    1.2002 C.ar    1  LIG1        0.1177
      2 C           1.1428    0.6824    1.1164 C.ar    1  LIG1       -0.0089
      3 C          -0.9934    1.2621    0.1573 C.ar    1  LIG1       -0.0167
      4 C           1.8330    1.1930    0.0046 C.ar    1  LIG1        0.0306
      5 H           1.7187    0.2433    1.9246 H       1  LIG1        0.0661
      6 C          -0.3294    1.7754   -0.9522 C.ar    1  LIG1       -0.0161
      7 C           1.0650    1.7471   -1.0412 C.ar    1  LIG1        0.1249
      8 H          -0.9053    2.2049   -1.7698 H       1  LIG1        0.0655
      9 H          -2.0756    1.2823    0.2241 H       1  LIG1        0.0655
     10 O          -0.9336    0.2167    2.2817 O.3     1  LIG1       -0.5067
     11 H          -0.2985   -0.1602    2.9043 H       1  LIG1        0.2921
     12 O           1.7130    2.2488   -2.1468 O.3     1  LIG1       -0.5062
     13 H           1.0475    2.4968   -2.8013 H       1  LIG1        0.2922
     14 C           4.0633    0.0335    0.3671 C.ar    1  LIG1        0.1255
     15 C           5.4554    0.0559    0.3340 C.ar    1  LIG1       -0.0083
     16 C           3.3189    1.1598   -0.0377 C.ar    1  LIG1        0.0306
     17 C           6.1893    1.1700   -0.0991 C.ar    1  LIG1        0.0306
     18 H           5.9997   -0.8308    0.6423 H       1  LIG1        0.0661
     19 C           4.0518    2.2756   -0.4658 C.ar    1  LIG1       -0.0083
     20 C           5.4438    2.2963   -0.5049 C.ar    1  LIG1        0.1255
     21 H           3.5067    3.1550   -0.7941 H       1  LIG1        0.0661
     22 O           3.3910   -1.0893    0.7927 O.3     1  LIG1       -0.5061
     23 H           4.0376   -1.7954    0.9209 H       1  LIG1        0.2922
     24 O           6.1136    3.4161   -0.9435 O.3     1  LIG1       -0.5061
     25 H           5.4611    4.0392   -1.2887 H       1  LIG1        0.2922
     26 C           8.4206    0.0247   -0.5043 C.ar    1  LIG1        0.1255
     27 C           9.8125    0.0453   -0.4627 C.ar    1  LIG1       -0.0083
     28 C           7.6743    1.1503   -0.0978 C.ar    1  LIG1        0.0306
     29 C          10.5446    1.1602   -0.0310 C.ar    1  LIG1        0.0306
     30 H          10.3581   -0.8335   -0.7916 H       1  LIG1        0.0661
     31 C           8.4074    2.2635    0.3389 C.ar    1  LIG1       -0.0083
     32 C           9.7995    2.2857    0.3746 C.ar    1  LIG1        0.1255
     33 H           7.8626    3.1497    0.6478 H       1  LIG1        0.0661
     34 O           7.7516   -1.0943   -0.9462 O.3     1  LIG1       -0.5061
     35 H           8.4047   -1.7167   -1.2913 H       1  LIG1        0.2922
     36 O          10.4710    3.4077    0.8035 O.3     1  LIG1       -0.5061
     37 H           9.8241    4.1134    0.9324 H       1  LIG1        0.2922
     38 C          12.8004    0.5744   -1.0312 C.ar    1  LIG1        0.1249
     39 C          14.1946    0.5458   -0.9396 C.ar    1  LIG1       -0.0161
     40 C          12.0305    1.1269    0.0141 C.ar    1  LIG1        0.0306
     41 C          14.8566    1.0572    0.1719 C.ar    1  LIG1       -0.0167
     42 H          14.7720    0.1175   -1.7568 H       1  LIG1        0.0655
     43 C          12.7186    1.6356    1.1280 C.ar    1  LIG1       -0.0089
     44 C          14.1095    1.6073    1.2144 C.ar    1  LIG1        0.1177
     45 H          12.1412    2.0734    1.9358 H       1  LIG1        0.0661
     46 H          15.9387    1.0368    0.2408 H       1  LIG1        0.0655
     47 O          12.1545    0.0745   -2.1389 O.3     1  LIG1       -0.5062
     48 H          12.8212   -0.1723   -2.7926 H       1  LIG1        0.2922
     49 O          14.7929    2.0991    2.2980 O.3     1  LIG1       -0.5067
     50 H          14.1567    2.4754    2.9198 H       1  LIG1        0.2921
@<TRIPOS>BOND
     1    13    12    1
     2    48    47    1
     3    12     7    1
     4    47    38    1
     5     8     6    1
     6    42    39    1
     7    35    34    1
     8    25    24    1
     9     7     6   ar
    10     7     4   ar
    11    38    39   ar
    12    38    40   ar
    13     6     3   ar
    14    34    26    1
    15    24    20    1
    16    39    41   ar
    17    21    19    1
    18    30    27    1
    19    20    19   ar
    20    20    17   ar
    21    26    27   ar
    22    26    28   ar
    23    19    16   ar
    24    27    29   ar
    25    17    28    1
    26    17    15   ar
    27    28    31   ar
    28    16     4    1
    29    16    14   ar
    30    29    40    1
    31    29    32   ar
    32     4     2   ar
    33    40    43   ar
    34     3     9    1
    35     3     1   ar
    36    41    46    1
    37    41    44   ar
    38    15    14   ar
    39    15    18    1
    40    31    32   ar
    41    31    33    1
    42    14    22    1
    43    32    36    1
    44    22    23    1
    45    36    37    1
    46     2     1   ar
    47     2     5    1
    48    43    44   ar
    49    43    45    1
    50     1    10    1
    51    44    49    1
    52    10    11    1
    53    49    50    1
