@<TRIPOS>MOLECULE
mol_data/opt/b3lyp/geoms/mol2/4ff4ff-4ff-4ff.out
 50 53 0 0 0
SMALL
GASTEIGER

@<TRIPOS>ATOM
      1 C          -0.1952    0.0444   -0.3294 C.ar    1  LIG1        0.1177
      2 C           1.1941    0.1244   -0.2368 C.ar    1  LIG1       -0.0089
      3 C          -0.9657    1.2027   -0.2012 C.ar    1  LIG1       -0.0167
      4 C           1.8607    1.3435   -0.0197 C.ar    1  LIG1        0.0306
      5 H           1.7897   -0.7816   -0.3120 H       1  LIG1        0.0661
      6 C          -0.3288    2.4188    0.0199 C.ar    1  LIG1       -0.0161
      7 C           1.0614    2.4926    0.1080 C.ar    1  LIG1        0.1249
      8 H          -0.9212    3.3261    0.1179 H       1  LIG1        0.0655
      9 H          -2.0457    1.1372   -0.2694 H       1  LIG1        0.0655
     10 O          -0.8572   -1.1358   -0.5326 O.3     1  LIG1       -0.5067
     11 H          -0.2128   -1.8523   -0.6009 H       1  LIG1        0.2921
     12 O           1.6984    3.7083    0.3111 O.3     1  LIG1       -0.5062
     13 H           1.0364    4.4092    0.3736 H       1  LIG1        0.2922
     14 C           4.1015    2.0177    1.0236 C.ar    1  LIG1        0.1255
     15 C           5.4913    1.8704    1.0509 C.ar    1  LIG1       -0.0083
     16 C           3.3495    1.3506    0.0286 C.ar    1  LIG1        0.0306
     17 C           6.1845    1.0835    0.1193 C.ar    1  LIG1        0.0306
     18 H           6.0285    2.3574    1.8593 H       1  LIG1        0.0661
     19 C           4.0492    0.5855   -0.9190 C.ar    1  LIG1       -0.0083
     20 C           5.4342    0.4447   -0.8903 C.ar    1  LIG1        0.1255
     21 H           3.5085    0.0950   -1.7212 H       1  LIG1        0.0661
     22 O           3.5439    2.7587    2.0255 O.3     1  LIG1       -0.5061
     23 H           2.7965    3.2596    1.6511 H       1  LIG1        0.2922
     24 O           6.0073   -0.3102   -1.8745 O.3     1  LIG1       -0.5061
     25 H           6.9693   -0.2930   -1.7533 H       1  LIG1        0.2922
     26 C           8.4887    2.1105    0.1083 C.ar    1  LIG1        0.1255
     27 C           9.8744    1.9719    0.1183 C.ar    1  LIG1       -0.0083
     28 C           7.6676    0.9640    0.1568 C.ar    1  LIG1        0.0306
     29 C          10.5055    0.7186    0.1690 C.ar    1  LIG1        0.0306
     30 H          10.4725    2.8763    0.0872 H       1  LIG1        0.0661
     31 C           8.2955   -0.2885    0.2271 C.ar    1  LIG1       -0.0083
     32 C           9.6856   -0.4315    0.2429 C.ar    1  LIG1        0.1255
     33 H           7.6989   -1.1921    0.3068 H       1  LIG1        0.0661
     34 O           7.9883    3.3801    0.0378 O.3     1  LIG1       -0.5061
     35 H           7.0205    3.3268    0.0058 H       1  LIG1        0.2922
     36 O          10.1735   -1.7065    0.2734 O.3     1  LIG1       -0.5061
     37 H          10.9636   -1.7134    0.8442 H       1  LIG1        0.2922
     38 C          12.8186   -0.1150    0.8753 C.ar    1  LIG1        0.1249
     39 C          14.2063   -0.0895    0.7348 C.ar    1  LIG1       -0.0161
     40 C          11.9902    0.6702    0.0553 C.ar    1  LIG1        0.0306
     41 C          14.8114    0.7182   -0.2217 C.ar    1  LIG1       -0.0167
     42 H          14.8229   -0.7045    1.3870 H       1  LIG1        0.0655
     43 C          12.6241    1.4747   -0.9082 C.ar    1  LIG1       -0.0089
     44 C          14.0110    1.5067   -1.0519 C.ar    1  LIG1        0.1177
     45 H          12.0020    2.0710   -1.5706 H       1  LIG1        0.0661
     46 H          15.8891    0.7421   -0.3377 H       1  LIG1        0.0655
     47 O          12.2142   -0.9077    1.8397 O.3     1  LIG1       -0.5062
     48 H          12.8936   -1.3809    2.3376 H       1  LIG1        0.2922
     49 O          14.6409    2.2782   -1.9903 O.3     1  LIG1       -0.5067
     50 H          13.9781    2.7682   -2.4941 H       1  LIG1        0.2921
@<TRIPOS>BOND
     1    50    49    1
     2    49    44    1
     3    24    25    1
     4    24    20    1
     5    21    19    1
     6    45    43    1
     7    44    43   ar
     8    44    41   ar
     9    19    20   ar
    10    19    16   ar
    11    43    40   ar
    12    20    17   ar
    13    11    10    1
    14    10     1    1
    15    46    41    1
    16     1     2   ar
    17     1     3   ar
    18     5     2    1
    19     9     3    1
    20     2     4   ar
    21    41    39   ar
    22     3     6   ar
    23     4    16    1
    24     4     7   ar
    25    35    34    1
    26     6     7   ar
    27     6     8    1
    28    16    14   ar
    29    34    26    1
    30    40    29    1
    31    40    38   ar
    32    30    27    1
    33     7    12    1
    34    26    27   ar
    35    26    28   ar
    36    27    29   ar
    37    17    28    1
    38    17    15   ar
    39    28    31   ar
    40    29    32   ar
    41    31    32   ar
    42    31    33    1
    43    32    36    1
    44    36    37    1
    45    12    13    1
    46    39    38   ar
    47    39    42    1
    48    38    47    1
    49    14    15   ar
    50    14    22    1
    51    15    18    1
    52    23    22    1
    53    47    48    1
