@<TRIPOS>MOLECULE
mol_data/opt/b3lyp/geoms/mol2/4ff4ff4ff-4ff.out
 50 53 0 0 0
SMALL
GASTEIGER

@<TRIPOS>ATOM
      1 C          -0.2670    0.2905    0.8076 C.ar    1  LIG1        0.1177
      2 C           1.1264    0.3125    0.7753 C.ar    1  LIG1       -0.0089
      3 C          -0.9917    1.1852    0.0185 C.ar    1  LIG1       -0.0167
      4 C           1.8373    1.2129   -0.0349 C.ar    1  LIG1        0.0306
      5 H           1.6868   -0.3913    1.3824 H       1  LIG1        0.0661
      6 C          -0.3064    2.0871   -0.7887 C.ar    1  LIG1       -0.0161
      7 C           1.0904    2.1117   -0.8247 C.ar    1  LIG1        0.1249
      8 H          -0.8663    2.7861   -1.4070 H       1  LIG1        0.0655
      9 H          -2.0757    1.1650    0.0446 H       1  LIG1        0.0655
     10 O          -0.9745   -0.5812    1.5954 O.3     1  LIG1       -0.5067
     11 H          -0.3519   -1.1544    2.0608 H       1  LIG1        0.2921
     12 O           1.7630    3.0023   -1.6298 O.3     1  LIG1       -0.5062
     13 H           1.1154    3.4709   -2.1720 H       1  LIG1        0.2922
     14 C           4.0880    0.0331   -0.0634 C.ar    1  LIG1        0.1255
     15 C           5.4804    0.0864   -0.0345 C.ar    1  LIG1       -0.0083
     16 C           3.3242    1.2184   -0.0312 C.ar    1  LIG1        0.0306
     17 C           6.1986    1.2913    0.0208 C.ar    1  LIG1        0.0306
     18 H           6.0412   -0.8449   -0.0353 H       1  LIG1        0.0661
     19 C           4.0385    2.4228    0.0308 C.ar    1  LIG1       -0.0083
     20 C           5.4276    2.4652    0.0527 C.ar    1  LIG1        0.1255
     21 H           3.4814    3.3543    0.0408 H       1  LIG1        0.0661
     22 O           3.4325   -1.1722   -0.1192 O.3     1  LIG1       -0.5061
     23 H           4.0901   -1.8734   -0.2154 H       1  LIG1        0.2922
     24 O           6.0945    3.6814    0.0958 O.3     1  LIG1       -0.5061
     25 H           5.4457    4.3974    0.0901 H       1  LIG1        0.2922
     26 C           8.4981    2.0120    0.8893 C.ar    1  LIG1        0.1255
     27 C           9.8801    1.8281    0.8746 C.ar    1  LIG1       -0.0083
     28 C           7.6856    1.2558    0.0123 C.ar    1  LIG1        0.0306
     29 C          10.5248    0.9258    0.0152 C.ar    1  LIG1        0.0306
     30 H          10.4619    2.4103    1.5812 H       1  LIG1        0.0661
     31 C           8.3308    0.3534   -0.8471 C.ar    1  LIG1       -0.0083
     32 C           9.7126    0.1694   -0.8610 C.ar    1  LIG1        0.1255
     33 H           7.7494   -0.2277   -1.5548 H       1  LIG1        0.0661
     34 O           8.0036    2.8843    1.8185 O.3     1  LIG1       -0.5061
     35 H           7.2532    3.3590    1.4171 H       1  LIG1        0.2922
     36 O          10.2086   -0.7045   -1.7891 O.3     1  LIG1       -0.5061
     37 H          10.9525   -1.1831   -1.3815 H       1  LIG1        0.2922
     38 C          12.7765   -0.2885   -0.0104 C.ar    1  LIG1        0.1249
     39 C          14.1705   -0.2491    0.0134 C.ar    1  LIG1       -0.0161
     40 C          12.0134    0.8922    0.0058 C.ar    1  LIG1        0.0306
     41 C          14.8496    0.9638    0.0577 C.ar    1  LIG1       -0.0167
     42 H          14.7333   -1.1803    0.0050 H       1  LIG1        0.0655
     43 C          12.7225    2.1061    0.0440 C.ar    1  LIG1       -0.0089
     44 C          14.1162    2.1523    0.0721 C.ar    1  LIG1        0.1177
     45 H          12.1554    3.0330    0.0292 H       1  LIG1        0.0661
     46 H          15.9329    1.0025    0.0748 H       1  LIG1        0.0655
     47 O          12.1001   -1.4998   -0.0365 O.3     1  LIG1       -0.5062
     48 H          12.7416   -2.2221   -0.0377 H       1  LIG1        0.2922
     49 O          14.8170    3.3282    0.1018 O.3     1  LIG1       -0.5067
     50 H          14.1934    4.0661    0.1075 H       1  LIG1        0.2921
@<TRIPOS>BOND
     1    13    12    1
     2    36    37    1
     3    36    32    1
     4    12     7    1
     5    33    31    1
     6     8     6    1
     7    32    31   ar
     8    32    29   ar
     9    31    28   ar
    10     7     6   ar
    11     7     4   ar
    12     6     3   ar
    13    23    22    1
    14    22    14    1
    15    14    15   ar
    16    14    16   ar
    17    48    47    1
    18    47    38    1
    19    18    15    1
    20     4    16    1
    21     4     2   ar
    22    15    17   ar
    23    16    19   ar
    24    38    40   ar
    25    38    39   ar
    26    42    39    1
    27    40    29    1
    28    40    43   ar
    29    28    17    1
    30    28    26   ar
    31    39    41   ar
    32    29    27   ar
    33     3     9    1
    34     3     1   ar
    35    17    20   ar
    36    45    43    1
    37    19    21    1
    38    19    20   ar
    39    43    44   ar
    40    20    24    1
    41    41    44   ar
    42    41    46    1
    43    44    49    1
    44    25    24    1
    45    49    50    1
    46     2     1   ar
    47     2     5    1
    48     1    10    1
    49    27    26   ar
    50    27    30    1
    51    26    34    1
    52    35    34    1
    53    10    11    1
