@<TRIPOS>MOLECULE
mol_data/opt/b3lyp/geoms/mol2/4ff4ff-4ff4ff.out
 50 53 0 0 0
SMALL
GASTEIGER

@<TRIPOS>ATOM
      1 C          -0.2629    0.1594    0.4511 C.ar    1  LIG1        0.1177
      2 C           1.1312    0.1937    0.4316 C.ar    1  LIG1       -0.0089
      3 C          -0.9895    1.2727    0.0229 C.ar    1  LIG1       -0.0167
      4 C           1.8475    1.3193   -0.0130 C.ar    1  LIG1        0.0306
      5 H           1.6937   -0.6644    0.7899 H       1  LIG1        0.0661
      6 C          -0.3031    2.4002   -0.4150 C.ar    1  LIG1       -0.0161
      7 C           1.0913    2.4265   -0.4362 C.ar    1  LIG1        0.1249
      8 H          -0.8608    3.2712   -0.7534 H       1  LIG1        0.0655
      9 H          -2.0731    1.2457    0.0433 H       1  LIG1        0.0655
     10 O          -0.9701   -0.9281    0.8889 O.3     1  LIG1       -0.5067
     11 H          -0.3505   -1.6209    1.1522 H       1  LIG1        0.2921
     12 O           1.7742    3.5459   -0.8900 O.3     1  LIG1       -0.5062
     13 H           1.1363    4.2223   -1.1525 H       1  LIG1        0.2922
     14 C           4.1726    2.2865    0.4638 C.ar    1  LIG1        0.1255
     15 C           5.5524    2.0910    0.4949 C.ar    1  LIG1       -0.0083
     16 C           3.3353    1.2633   -0.0379 C.ar    1  LIG1        0.0306
     17 C           6.1722    0.9181    0.0365 C.ar    1  LIG1        0.0306
     18 H           6.1535    2.8911    0.9134 H       1  LIG1        0.0661
     19 C           3.9543    0.0907   -0.4963 C.ar    1  LIG1       -0.0083
     20 C           5.3345   -0.1051   -0.4659 C.ar    1  LIG1        0.1255
     21 H           3.3529   -0.7099   -0.9137 H       1  LIG1        0.0661
     22 O           3.7037    3.4572    0.9936 O.3     1  LIG1       -0.5061
     23 H           2.9525    3.7518    0.4483 H       1  LIG1        0.2922
     24 O           5.8012   -1.2750   -0.9961 O.3     1  LIG1       -0.5061
     25 H           6.5643   -1.5630   -0.4629 H       1  LIG1        0.2922
     26 C           8.4251   -0.2437    0.4162 C.ar    1  LIG1        0.1255
     27 C           9.8146   -0.2100    0.3981 C.ar    1  LIG1       -0.0083
     28 C           7.6585    0.8625    0.0134 C.ar    1  LIG1        0.0306
     29 C          10.5341    0.9177   -0.0199 C.ar    1  LIG1        0.0306
     30 H          10.3680   -1.0879    0.7161 H       1  LIG1        0.0661
     31 C           8.3822    1.9891   -0.4092 C.ar    1  LIG1       -0.0083
     32 C           9.7748    2.0333   -0.4308 C.ar    1  LIG1        0.1255
     33 H           7.8244    2.8540   -0.7595 H       1  LIG1        0.0661
     34 O           7.7545   -1.3765    0.8565 O.3     1  LIG1       -0.5061
     35 H           8.4023   -2.0591    1.0764 H       1  LIG1        0.2922
     36 O          10.4353    3.1537   -0.8713 O.3     1  LIG1       -0.5061
     37 H           9.7800    3.7909   -1.1845 H       1  LIG1        0.2922
     38 C          12.7758   -0.1775   -0.4633 C.ar    1  LIG1        0.1249
     39 C          14.1721   -0.1398   -0.4181 C.ar    1  LIG1       -0.0161
     40 C          12.0207    0.9231   -0.0073 C.ar    1  LIG1        0.0306
     41 C          14.8487    0.9722    0.0721 C.ar    1  LIG1       -0.0167
     42 H          14.7389   -0.9969   -0.7766 H       1  LIG1        0.0655
     43 C          12.7231    2.0346    0.4870 C.ar    1  LIG1       -0.0089
     44 C          14.1159    2.0688    0.5289 C.ar    1  LIG1        0.1177
     45 H          12.1563    2.8922    0.8348 H       1  LIG1        0.0661
     46 H          15.9323    1.0015    0.1046 H       1  LIG1        0.0655
     47 O          12.1125   -1.2783   -0.9555 O.3     1  LIG1       -0.5062
     48 H          12.7662   -1.8907   -1.3166 H       1  LIG1        0.2922
     49 O          14.8152    3.1457    1.0106 O.3     1  LIG1       -0.5067
     50 H          14.1883    3.8366    1.2611 H       1  LIG1        0.2921
@<TRIPOS>BOND
     1    48    47    1
     2    37    36    1
     3    13    12    1
     4    24    20    1
     5    24    25    1
     6    47    38    1
     7    21    19    1
     8    12     7    1
     9    36    32    1
    10    42    39    1
    11    33    31    1
    12     8     6    1
    13    19    20   ar
    14    19    16   ar
    15    20    17   ar
    16    38    39   ar
    17    38    40   ar
    18     7     6   ar
    19     7     4   ar
    20    32    31   ar
    21    32    29   ar
    22    39    41   ar
    23     6     3   ar
    24    31    28   ar
    25    16     4    1
    26    16    14   ar
    27    29    40    1
    28    29    27   ar
    29     4     2   ar
    30    40    43   ar
    31    28    17    1
    32    28    26   ar
    33     3     9    1
    34     3     1   ar
    35    17    15   ar
    36    41    46    1
    37    41    44   ar
    38    27    26   ar
    39    27    30    1
    40    26    34    1
    41     2     1   ar
    42     2     5    1
    43    23    22    1
    44     1    10    1
    45    14    15   ar
    46    14    22    1
    47    43    44   ar
    48    43    45    1
    49    15    18    1
    50    44    49    1
    51    34    35    1
    52    10    11    1
    53    49    50    1
