@<TRIPOS>MOLECULE
mol_data/opt/b3lyp/geoms/mol2/4ff4ff-4ff.out
 38 40 0 0 0
SMALL
GASTEIGER

@<TRIPOS>ATOM
      1 C          -0.1228    0.0675    0.2496 C.ar    1  LIG1        0.1177
      2 C           1.2709    0.1211    0.2520 C.ar    1  LIG1       -0.0089
      3 C          -0.8602    1.2242   -0.0126 C.ar    1  LIG1       -0.0167
      4 C           1.9759    1.3098   -0.0077 C.ar    1  LIG1        0.0306
      5 H           1.8417   -0.7748    0.4812 H       1  LIG1        0.0661
      6 C          -0.1852    2.4135   -0.2656 C.ar    1  LIG1       -0.0161
      7 C           1.2089    2.4594   -0.2661 C.ar    1  LIG1        0.1249
      8 H          -0.7514    3.3192   -0.4736 H       1  LIG1        0.0655
      9 H          -1.9435    1.1813   -0.0092 H       1  LIG1        0.0655
     10 O          -0.8194   -1.0825    0.5081 O.3     1  LIG1       -0.5067
     11 H          -0.1932   -1.7998    0.6713 H       1  LIG1        0.2921
     12 O           1.8812    3.6428   -0.5362 O.3     1  LIG1       -0.5062
     13 H           1.2374    4.3440   -0.7012 H       1  LIG1        0.2922
     14 C           4.2840    2.2199    0.6364 C.ar    1  LIG1        0.1255
     15 C           5.6661    2.0374    0.6526 C.ar    1  LIG1       -0.0083
     16 C           3.4646    1.2755   -0.0240 C.ar    1  LIG1        0.0306
     17 C           6.3039    0.9547    0.0282 C.ar    1  LIG1        0.0306
     18 H           6.2540    2.7721    1.1924 H       1  LIG1        0.0661
     19 C           4.1024    0.1929   -0.6484 C.ar    1  LIG1       -0.0083
     20 C           5.4845    0.0104   -0.6323 C.ar    1  LIG1        0.1255
     21 H           3.5145   -0.5418   -1.1883 H       1  LIG1        0.0661
     22 O           3.7956    3.2917    1.3313 O.3     1  LIG1       -0.5061
     23 H           3.0441    3.6557    0.8299 H       1  LIG1        0.2922
     24 O           5.9729   -1.0613   -1.3274 O.3     1  LIG1       -0.5061
     25 H           6.7242   -1.4255   -0.8259 H       1  LIG1        0.2922
     26 C           8.5594   -0.2294    0.2702 C.ar    1  LIG1        0.1249
     27 C           9.9535   -0.1837    0.2696 C.ar    1  LIG1       -0.0161
     28 C           7.7926    0.9203    0.0118 C.ar    1  LIG1        0.0306
     29 C          10.6287    1.0055    0.0167 C.ar    1  LIG1       -0.0167
     30 H          10.5196   -1.0895    0.4774 H       1  LIG1        0.0655
     31 C           8.4977    2.1090   -0.2476 C.ar    1  LIG1       -0.0089
     32 C           9.8914    2.1625   -0.2453 C.ar    1  LIG1        0.1177
     33 H           7.9270    3.0051   -0.4768 H       1  LIG1        0.0661
     34 H          11.7120    1.0483    0.0133 H       1  LIG1        0.0655
     35 O           7.8870   -1.4126    0.5402 O.3     1  LIG1       -0.5062
     36 H           8.5306   -2.1140    0.7053 H       1  LIG1        0.2922
     37 O          10.5881    3.3124   -0.5035 O.3     1  LIG1       -0.5067
     38 H           9.9621    4.0298   -0.6666 H       1  LIG1        0.2921
@<TRIPOS>BOND
     1    24    25    1
     2    24    20    1
     3    21    19    1
     4    13    12    1
     5    38    37    1
     6    19    20   ar
     7    19    16   ar
     8    20    17   ar
     9    12     7    1
    10    37    32    1
    11    33    31    1
    12     8     6    1
    13     7     6   ar
    14     7     4   ar
    15     6     3   ar
    16    31    32   ar
    17    31    28   ar
    18    32    29   ar
    19    16     4    1
    20    16    14   ar
    21     3     9    1
    22     3     1   ar
    23     4     2   ar
    24    28    17    1
    25    28    26   ar
    26    34    29    1
    27    29    27   ar
    28    17    15   ar
    29     1     2   ar
    30     1    10    1
    31     2     5    1
    32    27    26   ar
    33    27    30    1
    34    26    35    1
    35    10    11    1
    36    35    36    1
    37    14    15   ar
    38    14    22    1
    39    15    18    1
    40    23    22    1
