@<TRIPOS>MOLECULE
mol_data/opt/b3lyp/geoms/mol2/4fg.out
 14 14 0 0 0
SMALL
GASTEIGER

@<TRIPOS>ATOM
      1 C           0.0736   -0.0044    0.0004 C.ar    1  LIG1        0.1169
      2 C           1.4713   -0.0044    0.0000 C.ar    1  LIG1       -0.0191
      3 C          -0.6142    1.2126    0.0003 C.ar    1  LIG1       -0.0191
      4 C           2.1731    1.1998   -0.0005 C.ar    1  LIG1       -0.0451
      5 H           2.0171   -0.9455    0.0001 H       1  LIG1        0.0654
      6 C           0.0900    2.4130   -0.0002 C.ar    1  LIG1       -0.0451
      7 C           1.4910    2.4210   -0.0006 C.ar    1  LIG1        0.0050
      8 H          -0.4626    3.3480   -0.0003 H       1  LIG1        0.0630
      9 H           3.2589    1.1815   -0.0008 H       1  LIG1        0.0630
     10 H          -1.6990    1.2038    0.0006 H       1  LIG1        0.0654
     11 O          -0.6713   -1.1518    0.0009 O.3     1  LIG1       -0.5068
     12 H          -0.0778   -1.9140    0.0010 H       1  LIG1        0.2921
     13 S           2.4600    3.9286   -0.0013 S.3     1  LIG1       -0.1426
     14 H           1.4221    4.7864   -0.0012 H       1  LIG1        0.1071
@<TRIPOS>BOND
     1    13    14    1
     2    13     7    1
     3     9     4    1
     4     7     4   ar
     5     7     6   ar
     6     4     2   ar
     7     8     6    1
     8     6     3   ar
     9     2     5    1
    10     2     1   ar
    11     3     1   ar
    12     3    10    1
    13     1    11    1
    14    11    12    1
