@<TRIPOS>MOLECULE
mol_data/opt/b3lyp/geoms/mol2/4fg4fg4fg-.out
 38 40 0 0 0
SMALL
GASTEIGER

@<TRIPOS>ATOM
      1 C          -0.1512    0.0608    0.4608 C.ar    1  LIG1        0.1175
      2 C           1.2417    0.0745    0.4201 C.ar    1  LIG1       -0.0113
      3 C          -0.8637    1.1854    0.0362 C.ar    1  LIG1       -0.0191
      4 C           1.9483    1.1925   -0.0459 C.ar    1  LIG1        0.0022
      5 H           1.8028   -0.7964    0.7491 H       1  LIG1        0.0660
      6 C          -0.1748    2.2988   -0.4285 C.ar    1  LIG1       -0.0445
      7 C           1.2261    2.3192   -0.4846 C.ar    1  LIG1        0.0128
      8 H          -0.7408    3.1649   -0.7583 H       1  LIG1        0.0630
      9 H          -1.9478    1.1730    0.0727 H       1  LIG1        0.0654
     10 O          -0.8694   -1.0138    0.9096 O.3     1  LIG1       -0.5067
     11 H          -0.2575   -1.7212    1.1516 H       1  LIG1        0.2921
     12 S           2.1090    3.7453   -1.1316 S.3     1  LIG1       -0.1420
     13 H           1.0132    4.3769   -1.5962 H       1  LIG1        0.1071
     14 C           4.1655    0.2199   -0.7884 C.ar    1  LIG1        0.1252
     15 C           5.5582    0.2217   -0.7493 C.ar    1  LIG1       -0.0107
     16 C           3.4396    1.1632   -0.0372 C.ar    1  LIG1        0.0258
     17 C           6.2772    1.1365    0.0294 C.ar    1  LIG1        0.0023
     18 H           6.1100   -0.5060   -1.3389 H       1  LIG1        0.0661
     19 C           4.1608    2.0681    0.7486 C.ar    1  LIG1       -0.0367
     20 C           5.5591    2.0708    0.7990 C.ar    1  LIG1        0.0134
     21 H           3.6000    2.7811    1.3444 H       1  LIG1        0.0636
     22 O           3.4651   -0.6758   -1.5498 O.3     1  LIG1       -0.5061
     23 H           4.0922   -1.2224   -2.0412 H       1  LIG1        0.2922
     24 S           6.4490    3.2149    1.8597 S.3     1  LIG1       -0.1420
     25 H           5.3500    3.7670    2.4092 H       1  LIG1        0.1071
     26 C           8.4922   -0.0176    0.4423 C.ar    1  LIG1        0.1246
     27 C           9.8884   -0.0213    0.3922 C.ar    1  LIG1       -0.0185
     28 C           7.7685    1.1100    0.0022 C.ar    1  LIG1        0.0257
     29 C          10.5833    1.0899   -0.0809 C.ar    1  LIG1       -0.0451
     30 H          10.4365   -0.8937    0.7417 H       1  LIG1        0.0654
     31 C           8.4865    2.2022   -0.4984 C.ar    1  LIG1       -0.0373
     32 C           9.8852    2.2123   -0.5320 C.ar    1  LIG1        0.0055
     33 H           7.9346    3.0575   -0.8735 H       1  LIG1        0.0636
     34 H          11.6680    1.0845   -0.0942 H       1  LIG1        0.0630
     35 O           7.7840   -1.0874    0.9119 O.3     1  LIG1       -0.5062
     36 H           8.4040   -1.7619    1.2191 H       1  LIG1        0.2922
     37 S          10.7981    3.6028   -1.2178 S.3     1  LIG1       -0.1426
     38 H          10.3307    4.5509   -0.3788 H       1  LIG1        0.1071
@<TRIPOS>BOND
     1    23    22    1
     2    13    12    1
     3    22    14    1
     4    18    15    1
     5    37    32    1
     6    37    38    1
     7    12     7    1
     8    33    31    1
     9    14    15   ar
    10    14    16   ar
    11     8     6    1
    12    15    17   ar
    13    32    31   ar
    14    32    29   ar
    15    31    28   ar
    16     7     6   ar
    17     7     4   ar
    18     6     3   ar
    19    34    29    1
    20    29    27   ar
    21     4    16    1
    22     4     2   ar
    23    16    19   ar
    24    28    17    1
    25    28    26   ar
    26    17    20   ar
    27     3     9    1
    28     3     1   ar
    29    27    26   ar
    30    27    30    1
    31     2     1   ar
    32     2     5    1
    33    26    35    1
    34     1    10    1
    35    19    20   ar
    36    19    21    1
    37    20    24    1
    38    10    11    1
    39    35    36    1
    40    24    25    1
