@<TRIPOS>MOLECULE
mol_data/opt/b3lyp/geoms/mol2/4fg4fg4fg-4fg-.out
 50 53 0 0 0
SMALL
GASTEIGER

@<TRIPOS>ATOM
      1 C          -0.2644    0.1335    0.6173 C.ar    1  LIG1        0.1175
      2 C           1.1286    0.1500    0.5855 C.ar    1  LIG1       -0.0113
      3 C          -0.9793    1.1777    0.0245 C.ar    1  LIG1       -0.0191
      4 C           1.8338    1.1901   -0.0371 C.ar    1  LIG1        0.0022
      5 H           1.6915   -0.6586    1.0444 H       1  LIG1        0.0660
      6 C          -0.2922    2.2134   -0.5963 C.ar    1  LIG1       -0.0445
      7 C           1.1091    2.2337   -0.6451 C.ar    1  LIG1        0.0128
      8 H          -0.8598    3.0169   -1.0561 H       1  LIG1        0.0630
      9 H          -2.0635    1.1643    0.0548 H       1  LIG1        0.0654
     10 O          -0.9809   -0.8666    1.2159 O.3     1  LIG1       -0.5067
     11 H          -0.3675   -1.5248    1.5679 H       1  LIG1        0.2921
     12 S           1.9877    3.5524   -1.4949 S.3     1  LIG1       -0.1420
     13 H           0.8909    4.0965   -2.0573 H       1  LIG1        0.1071
     14 C           4.0607    0.1185   -0.5901 C.ar    1  LIG1        0.1252
     15 C           5.4526    0.1328   -0.5401 C.ar    1  LIG1       -0.0107
     16 C           3.3249    1.1702   -0.0123 C.ar    1  LIG1        0.0258
     17 C           6.1633    1.1665    0.0823 C.ar    1  LIG1        0.0023
     18 H           6.0118   -0.6809   -0.9947 H       1  LIG1        0.0661
     19 C           4.0373    2.1950    0.6193 C.ar    1  LIG1       -0.0367
     20 C           5.4351    2.2122    0.6814 C.ar    1  LIG1        0.0134
     21 H           3.4695    2.9938    1.0856 H       1  LIG1        0.0636
     22 O           3.3706   -0.8945   -1.1992 O.3     1  LIG1       -0.5061
     23 H           4.0050   -1.5151   -1.5811 H       1  LIG1        0.2922
     24 S           6.3072    3.5209    1.5499 S.3     1  LIG1       -0.1420
     25 H           5.1989    4.1315    2.0116 H       1  LIG1        0.1071
     26 C           8.3779    0.0786    0.6510 C.ar    1  LIG1        0.1252
     27 C           9.7704    0.0824    0.6097 C.ar    1  LIG1       -0.0107
     28 C           7.6540    1.1367    0.0699 C.ar    1  LIG1        0.0258
     29 C          10.4913    1.1122   -0.0062 C.ar    1  LIG1        0.0023
     30 H          10.3207   -0.7360    1.0671 H       1  LIG1        0.0661
     31 C           8.3771    2.1586   -0.5545 C.ar    1  LIG1       -0.0367
     32 C           9.7751    2.1650   -0.6064 C.ar    1  LIG1        0.0134
     33 H           7.8181    2.9629   -1.0214 H       1  LIG1        0.0636
     34 O           7.6761   -0.9309    1.2531 O.3     1  LIG1       -0.5061
     35 H           8.3032   -1.5530    1.6446 H       1  LIG1        0.2922
     36 S          10.6669    3.4680   -1.4624 S.3     1  LIG1       -0.1420
     37 H           9.5691    4.1059   -1.9118 H       1  LIG1        0.1071
     38 C          12.6989    0.0329   -0.6135 C.ar    1  LIG1        0.1246
     39 C          14.0952    0.0158   -0.5720 C.ar    1  LIG1       -0.0185
     40 C          11.9827    1.0753    0.0104 C.ar    1  LIG1        0.0257
     41 C          14.7975    1.0310    0.0741 C.ar    1  LIG1       -0.0451
     42 H          14.6377   -0.7886   -1.0643 H       1  LIG1        0.0654
     43 C          12.7079    2.0668    0.6813 C.ar    1  LIG1       -0.0373
     44 C          14.1068    2.0658    0.7090 C.ar    1  LIG1        0.0055
     45 H          12.1612    2.8503    1.1951 H       1  LIG1        0.0636
     46 H          15.8823    1.0198    0.0793 H       1  LIG1        0.0630
     47 O          11.9836   -0.9420   -1.2500 O.3     1  LIG1       -0.5062
     48 H          12.5992   -1.5564   -1.6711 H       1  LIG1        0.2922
     49 S          15.0311    3.3180    1.6105 S.3     1  LIG1       -0.1426
     50 H          14.5271    4.3974    0.9768 H       1  LIG1        0.1071
@<TRIPOS>BOND
     1    13    12    1
     2    37    36    1
     3    48    47    1
     4    23    22    1
     5    12     7    1
     6    36    32    1
     7    47    38    1
     8    22    14    1
     9    42    39    1
    10     8     6    1
    11    33    31    1
    12    18    15    1
    13     7     6   ar
    14     7     4   ar
    15    38    39   ar
    16    38    40   ar
    17    32    31   ar
    18    32    29   ar
    19     6     3   ar
    20    14    15   ar
    21    14    16   ar
    22    39    41   ar
    23    31    28   ar
    24    15    17   ar
    25     4    16    1
    26     4     2   ar
    27    16    19   ar
    28    29    40    1
    29    29    27   ar
    30    40    43   ar
    31     3     9    1
    32     3     1   ar
    33    28    17    1
    34    28    26   ar
    35    41    46    1
    36    41    44   ar
    37    17    20   ar
    38     2     1   ar
    39     2     5    1
    40    27    26   ar
    41    27    30    1
    42     1    10    1
    43    19    20   ar
    44    19    21    1
    45    26    34    1
    46    43    44   ar
    47    43    45    1
    48    20    24    1
    49    44    49    1
    50    50    49    1
    51    10    11    1
    52    34    35    1
    53    24    25    1
