@<TRIPOS>MOLECULE
mol_data/opt/b3lyp/geoms/mol2/4fg4fg.out
 26 27 0 0 0
SMALL
GASTEIGER

@<TRIPOS>ATOM
      1 C          -0.0395    0.1194    0.6624 C.ar    1  LIG1        0.1175
      2 C           1.3535    0.1307    0.6145 C.ar    1  LIG1       -0.0113
      3 C          -0.7564    1.1778    0.0975 C.ar    1  LIG1       -0.0191
      4 C           2.0538    1.1809    0.0048 C.ar    1  LIG1        0.0022
      5 H           1.9185   -0.6878    1.0532 H       1  LIG1        0.0660
      6 C          -0.0730    2.2236   -0.5103 C.ar    1  LIG1       -0.0445
      7 C           1.3277    2.2398   -0.5723 C.ar    1  LIG1        0.0128
      8 H          -0.6426    3.0383   -0.9471 H       1  LIG1        0.0630
      9 H          -1.8402    1.1676    0.1400 H       1  LIG1        0.0654
     10 O          -0.7540   -0.8884    1.2495 O.3     1  LIG1       -0.5067
     11 H          -0.1406   -1.5530    1.5892 H       1  LIG1        0.2921
     12 S           2.2106    3.5717   -1.3947 S.3     1  LIG1       -0.1420
     13 H           1.1128    4.1609   -1.9071 H       1  LIG1        0.1071
     14 C           4.2698    0.1587   -0.6693 C.ar    1  LIG1        0.1246
     15 C           5.6668    0.1526   -0.6358 C.ar    1  LIG1       -0.0185
     16 C           3.5465    1.1609    0.0097 C.ar    1  LIG1        0.0257
     17 C           6.3625    1.1398    0.0589 C.ar    1  LIG1       -0.0451
     18 H           6.2138   -0.6229   -1.1680 H       1  LIG1        0.0654
     19 C           4.2662    2.1268    0.7220 C.ar    1  LIG1       -0.0373
     20 C           5.6654    2.1376    0.7438 C.ar    1  LIG1        0.0055
     21 H           3.7169    2.8817    1.2748 H       1  LIG1        0.0636
     22 H           7.4473    1.1356    0.0658 H       1  LIG1        0.0630
     23 O           3.5599   -0.7897   -1.3477 O.3     1  LIG1       -0.5062
     24 H           4.1772   -1.3794   -1.8005 H       1  LIG1        0.2922
     25 S           6.5734    3.3602    1.7039 S.3     1  LIG1       -0.1426
     26 H           6.2439    4.4454    0.9710 H       1  LIG1        0.1071
@<TRIPOS>BOND
     1    13    12    1
     2    24    23    1
     3    12     7    1
     4    23    14    1
     5    18    15    1
     6     8     6    1
     7    14    15   ar
     8    14    16   ar
     9    15    17   ar
    10     7     6   ar
    11     7     4   ar
    12     6     3   ar
    13     4    16    1
    14     4     2   ar
    15    16    19   ar
    16    17    22    1
    17    17    20   ar
    18     3     9    1
    19     3     1   ar
    20     2     1   ar
    21     2     5    1
    22     1    10    1
    23    19    20   ar
    24    19    21    1
    25    20    25    1
    26    26    25    1
    27    10    11    1
