@<TRIPOS>MOLECULE
mol_data/opt/b3lyp/geoms/mol2/4fg4fg-4fg-4fg.out
 50 53 0 0 0
SMALL
GASTEIGER

@<TRIPOS>ATOM
      1 C          -0.2660   -0.0280    0.0571 C.ar    1  LIG1        0.1175
      2 C           1.1270    0.0029    0.0552 C.ar    1  LIG1       -0.0113
      3 C          -0.9817    1.1721    0.0668 C.ar    1  LIG1       -0.0191
      4 C           1.8323    1.2152    0.0711 C.ar    1  LIG1        0.0022
      5 H           1.6902   -0.9266    0.0473 H       1  LIG1        0.0660
      6 C          -0.2949    2.3795    0.0834 C.ar    1  LIG1       -0.0445
      7 C           1.1067    2.4225    0.0941 C.ar    1  LIG1        0.0128
      8 H          -0.8629    3.3050    0.0942 H       1  LIG1        0.0630
      9 H          -2.0660    1.1448    0.0640 H       1  LIG1        0.0654
     10 O          -0.9819   -1.1939    0.0420 O.3     1  LIG1       -0.5067
     11 H          -0.3677   -1.9396    0.0537 H       1  LIG1        0.2921
     12 S           1.9840    3.9905    0.1655 S.3     1  LIG1       -0.1420
     13 H           0.8903    4.7396    0.4066 H       1  LIG1        0.1071
     14 C           4.0757    0.5459    1.0379 C.ar    1  LIG1        0.1252
     15 C           5.4665    0.5330    0.9628 C.ar    1  LIG1       -0.0107
     16 C           3.3230    1.1858    0.0352 C.ar    1  LIG1        0.0258
     17 C           6.1603    1.1351   -0.0942 C.ar    1  LIG1        0.0023
     18 H           6.0385    0.0411    1.7454 H       1  LIG1        0.0661
     19 C           4.0182    1.7748   -1.0262 C.ar    1  LIG1       -0.0367
     20 C           5.4147    1.7605   -1.1120 C.ar    1  LIG1        0.0134
     21 H           3.4376    2.2456   -1.8129 H       1  LIG1        0.0636
     22 O           3.4034   -0.0443    2.0737 O.3     1  LIG1       -0.5061
     23 H           4.0487   -0.4038    2.6965 H       1  LIG1        0.2922
     24 S           6.2616    2.4859   -2.5208 S.3     1  LIG1       -0.1420
     25 H           5.1403    2.8257   -3.1855 H       1  LIG1        0.1071
     26 C           8.3725   -0.0965   -0.0929 C.ar    1  LIG1        0.1252
     27 C           9.7652   -0.0768   -0.0662 C.ar    1  LIG1       -0.0107
     28 C           7.6511    1.1123   -0.0925 C.ar    1  LIG1        0.0258
     29 C          10.4902    1.1209   -0.0449 C.ar    1  LIG1        0.0023
     30 H          10.3126   -1.0160   -0.0711 H       1  LIG1        0.0661
     31 C           8.3784    2.3068   -0.0634 C.ar    1  LIG1       -0.0367
     32 C           9.7772    2.3347   -0.0512 C.ar    1  LIG1        0.0134
     33 H           7.8229    3.2387   -0.0492 H       1  LIG1        0.0636
     34 O           7.6678   -1.2701   -0.1139 O.3     1  LIG1       -0.5061
     35 H           8.2920   -2.0043   -0.1851 H       1  LIG1        0.2922
     36 S          10.6704    3.8934   -0.0632 S.3     1  LIG1       -0.1420
     37 H           9.5946    4.6590   -0.3288 H       1  LIG1        0.1071
     38 C          12.7389    0.4792   -1.0136 C.ar    1  LIG1        0.1246
     39 C          14.1330    0.4404   -0.9280 C.ar    1  LIG1       -0.0185
     40 C          11.9799    1.0757    0.0149 C.ar    1  LIG1        0.0257
     41 C          14.7914    0.9970    0.1665 C.ar    1  LIG1       -0.0451
     42 H          14.7080   -0.0160   -1.7311 H       1  LIG1        0.0654
     43 C          12.6616    1.6022    1.1180 C.ar    1  LIG1       -0.0373
     44 C          14.0584    1.5837    1.2004 C.ar    1  LIG1        0.0055
     45 H          12.0843    2.0293    1.9313 H       1  LIG1        0.0636
     46 H          15.8750    0.9779    0.2143 H       1  LIG1        0.0630
     47 O          12.0662   -0.0497   -2.0771 O.3     1  LIG1       -0.5062
     48 H          12.7062   -0.3698   -2.7266 H       1  LIG1        0.2922
     49 S          14.9172    2.2254    2.6463 S.3     1  LIG1       -0.1426
     50 H          14.5688    3.5216    2.5004 H       1  LIG1        0.1071
@<TRIPOS>BOND
     1    25    24    1
     2    48    47    1
     3    24    20    1
     4    47    38    1
     5    21    19    1
     6    42    39    1
     7    20    19   ar
     8    20    17   ar
     9    19    16   ar
    10    38    39   ar
    11    38    40   ar
    12    39    41   ar
    13    37    36    1
    14    35    34    1
    15    34    26    1
    16    17    28    1
    17    17    15   ar
    18    26    28   ar
    19    26    27   ar
    20    28    31   ar
    21    30    27    1
    22    27    29   ar
    23    31    32   ar
    24    31    33    1
    25    36    32    1
    26    32    29   ar
    27    29    40    1
    28    40    43   ar
    29    16     4    1
    30    16    14   ar
    31    10    11    1
    32    10     1    1
    33     5     2    1
    34     2     1   ar
    35     2     4   ar
    36     1     3   ar
    37     9     3    1
    38     3     6   ar
    39     4     7   ar
    40     6     7   ar
    41     6     8    1
    42     7    12    1
    43    12    13    1
    44    41    46    1
    45    41    44   ar
    46    15    14   ar
    47    15    18    1
    48    14    22    1
    49    43    44   ar
    50    43    45    1
    51    44    49    1
    52    22    23    1
    53    50    49    1
