@<TRIPOS>MOLECULE
mol_data/opt/b3lyp/geoms/mol2/4fg4fg4fg.out
 38 40 0 0 0
SMALL
GASTEIGER

@<TRIPOS>ATOM
      1 C          -0.1080    0.5645    1.1778 C.ar    1  LIG1        0.1175
      2 C           1.2819    0.5497    1.0788 C.ar    1  LIG1       -0.0113
      3 C          -0.8610    1.2190    0.1992 C.ar    1  LIG1       -0.0191
      4 C           1.9460    1.1722    0.0119 C.ar    1  LIG1        0.0022
      5 H           1.8743    0.0431    1.8363 H       1  LIG1        0.0660
      6 C          -0.2148    1.8377   -0.8636 C.ar    1  LIG1       -0.0445
      7 C           1.1825    1.8191   -0.9794 C.ar    1  LIG1        0.0128
      8 H          -0.8122    2.3389   -1.6194 H       1  LIG1        0.0630
      9 H          -1.9425    1.2324    0.2810 H       1  LIG1        0.0654
     10 O          -0.7850   -0.0334    2.2053 O.3     1  LIG1       -0.5067
     11 H          -0.1490   -0.4601    2.7942 H       1  LIG1        0.2921
     12 S           2.0065    2.5792   -2.3850 S.3     1  LIG1       -0.1420
     13 H           0.8774    2.8283   -3.0768 H       1  LIG1        0.1071
     14 C           4.1595   -0.0550   -0.0846 C.ar    1  LIG1        0.1252
     15 C           5.5524   -0.0334   -0.0940 C.ar    1  LIG1       -0.0107
     16 C           3.4372    1.1518   -0.0232 C.ar    1  LIG1        0.0258
     17 C           6.2766    1.1643   -0.0500 C.ar    1  LIG1        0.0023
     18 H           6.1005   -0.9708   -0.1457 H       1  LIG1        0.0661
     19 C           4.1638    2.3455    0.0285 C.ar    1  LIG1       -0.0367
     20 C           5.5627    2.3760    0.0045 C.ar    1  LIG1        0.0134
     21 H           3.6081    3.2756    0.0905 H       1  LIG1        0.0636
     22 O           3.4552   -1.2275   -0.1274 O.3     1  LIG1       -0.5061
     23 H           4.0768   -1.9587   -0.2390 H       1  LIG1        0.2922
     24 S           6.4529    3.9366    0.0251 S.3     1  LIG1       -0.1420
     25 H           5.3728    4.7060   -0.2110 H       1  LIG1        0.1071
     26 C           8.5005    0.5564   -1.0955 C.ar    1  LIG1        0.1246
     27 C           9.8962    0.5164   -1.0460 C.ar    1  LIG1       -0.0185
     28 C           7.7673    1.1193   -0.0298 C.ar    1  LIG1        0.0257
     29 C          10.5820    1.0392    0.0485 C.ar    1  LIG1       -0.0451
     30 H          10.4510    0.0871   -1.8776 H       1  LIG1        0.0654
     31 C           8.4765    1.6101    1.0724 C.ar    1  LIG1       -0.0373
     32 C           9.8749    1.5910    1.1190 C.ar    1  LIG1        0.0055
     33 H           7.9192    2.0084    1.9138 H       1  LIG1        0.0636
     34 H          11.6665    1.0209    0.0674 H       1  LIG1        0.0630
     35 O           7.8015    0.0607   -2.1583 O.3     1  LIG1       -0.5062
     36 H           8.4253   -0.2405   -2.8320 H       1  LIG1        0.2922
     37 S          10.7716    2.1838    2.5623 S.3     1  LIG1       -0.1426
     38 H          10.3756    3.4729    2.5010 H       1  LIG1        0.1071
@<TRIPOS>BOND
     1    13    12    1
     2    36    35    1
     3    12     7    1
     4    35    26    1
     5    30    27    1
     6     8     6    1
     7    26    27   ar
     8    26    28   ar
     9    27    29   ar
    10     7     6   ar
    11     7     4   ar
    12     6     3   ar
    13    23    22    1
    14    25    24    1
    15    18    15    1
    16    22    14    1
    17    15    14   ar
    18    15    17   ar
    19    14    16   ar
    20    17    28    1
    21    17    20   ar
    22    28    31   ar
    23    16     4    1
    24    16    19   ar
    25    20    24    1
    26    20    19   ar
    27     4     2   ar
    28    19    21    1
    29    29    34    1
    30    29    32   ar
    31     3     9    1
    32     3     1   ar
    33    31    32   ar
    34    31    33    1
    35     2     1   ar
    36     2     5    1
    37    32    37    1
    38     1    10    1
    39    10    11    1
    40    38    37    1
