@<TRIPOS>MOLECULE
mol_data/opt/b3lyp/geoms/mol2/4fg4fg-4fg4fg.out
 50 53 0 0 0
SMALL
GASTEIGER

@<TRIPOS>ATOM
      1 C          -0.2618    0.1222   -0.6191 C.ar    1  LIG1        0.1175
      2 C           1.1310    0.1394   -0.5821 C.ar    1  LIG1       -0.0113
      3 C          -0.9792    1.1756   -0.0459 C.ar    1  LIG1       -0.0191
      4 C           1.8336    1.1894    0.0265 C.ar    1  LIG1        0.0022
      5 H           1.6958   -0.6763   -1.0259 H       1  LIG1        0.0660
      6 C          -0.2947    2.2211    0.5610 C.ar    1  LIG1       -0.0445
      7 C           1.1064    2.2425    0.6150 C.ar    1  LIG1        0.0128
      8 H          -0.8641    3.0318    1.0057 H       1  LIG1        0.0630
      9 H          -2.0632    1.1614   -0.0801 H       1  LIG1        0.0654
     10 O          -0.9759   -0.8875   -1.2045 O.3     1  LIG1       -0.5067
     11 H          -0.3610   -1.5511   -1.5436 H       1  LIG1        0.2921
     12 S           1.9815    3.5747    1.4471 S.3     1  LIG1       -0.1420
     13 H           0.8825    4.1271    1.9970 H       1  LIG1        0.1071
     14 C           4.0586    0.1272    0.6048 C.ar    1  LIG1        0.1252
     15 C           5.4507    0.1411    0.5598 C.ar    1  LIG1       -0.0107
     16 C           3.3249    1.1695    0.0078 C.ar    1  LIG1        0.0258
     17 C           6.1636    1.1652   -0.0758 C.ar    1  LIG1        0.0023
     18 H           6.0083   -0.6652    1.0293 H       1  LIG1        0.0661
     19 C           4.0394    2.1845   -0.6371 C.ar    1  LIG1       -0.0367
     20 C           5.4374    2.2012   -0.6939 C.ar    1  LIG1        0.0134
     21 H           3.4733    2.9756   -1.1182 H       1  LIG1        0.0636
     22 O           3.3665   -0.8764    1.2270 O.3     1  LIG1       -0.5061
     23 H           3.9997   -1.4910    1.6206 H       1  LIG1        0.2922
     24 S           6.3126    3.4963   -1.5796 S.3     1  LIG1       -0.1420
     25 H           5.2059    4.1016   -2.0520 H       1  LIG1        0.1071
     26 C           8.3805    0.0691   -0.6193 C.ar    1  LIG1        0.1252
     27 C           9.7729    0.0739   -0.5729 C.ar    1  LIG1       -0.0107
     28 C           7.6542    1.1359   -0.0574 C.ar    1  LIG1        0.0258
     29 C          10.4913    1.1132    0.0298 C.ar    1  LIG1        0.0023
     30 H          10.3250   -0.7514   -1.0157 H       1  LIG1        0.0661
     31 C           8.3748    2.1675    0.5539 C.ar    1  LIG1       -0.0367
     32 C           9.7726    2.1750    0.6111 C.ar    1  LIG1        0.0134
     33 H           7.8139    2.9788    1.0062 H       1  LIG1        0.0636
     34 O           7.6812   -0.9497   -1.2086 O.3     1  LIG1       -0.5061
     35 H           8.3100   -1.5780   -1.5873 H       1  LIG1        0.2922
     36 S          10.6610    3.4910    1.4502 S.3     1  LIG1       -0.1420
     37 H           9.5615    4.1361    1.8849 H       1  LIG1        0.1071
     38 C          12.6967    0.0443    0.6629 C.ar    1  LIG1        0.1246
     39 C          14.0932    0.0271    0.6269 C.ar    1  LIG1       -0.0185
     40 C          11.9827    1.0763    0.0196 C.ar    1  LIG1        0.0257
     41 C          14.7977    1.0320   -0.0326 C.ar    1  LIG1       -0.0451
     42 H          14.6341   -0.7692    1.1341 H       1  LIG1        0.0654
     43 C          12.7102    2.0573   -0.6643 C.ar    1  LIG1       -0.0373
     44 C          14.1091    2.0563   -0.6866 C.ar    1  LIG1        0.0055
     45 H          12.1651    2.8323   -1.1926 H       1  LIG1        0.0636
     46 H          15.8825    1.0210   -0.0335 H       1  LIG1        0.0630
     47 O          11.9793   -0.9205    1.3121 O.3     1  LIG1       -0.5062
     48 H          12.5935   -1.5280    1.7452 H       1  LIG1        0.2922
     49 S          15.0366    3.2941   -1.6045 S.3     1  LIG1       -0.1426
     50 H          14.5303    4.3834   -0.9898 H       1  LIG1        0.1071
@<TRIPOS>BOND
     1    25    24    1
     2    49    50    1
     3    49    44    1
     4    35    34    1
     5    24    20    1
     6    11    10    1
     7    34    26    1
     8    10     1    1
     9    45    43    1
    10    21    19    1
    11     5     2    1
    12    30    27    1
    13    20    19   ar
    14    20    17   ar
    15    44    43   ar
    16    44    41   ar
    17    43    40   ar
    18    19    16   ar
    19    26    27   ar
    20    26    28   ar
    21     1     2   ar
    22     1     3   ar
    23     2     4   ar
    24    27    29   ar
    25     9     3    1
    26    17    28    1
    27    17    15   ar
    28    28    31   ar
    29     3     6   ar
    30    46    41    1
    31    41    39   ar
    32    16     4    1
    33    16    14   ar
    34    40    29    1
    35    40    38   ar
    36     4     7   ar
    37    29    32   ar
    38    31    32   ar
    39    31    33    1
    40    15    14   ar
    41    15    18    1
    42     6     7   ar
    43     6     8    1
    44    14    22    1
    45    32    36    1
    46     7    12    1
    47    39    38   ar
    48    39    42    1
    49    38    47    1
    50    22    23    1
    51    47    48    1
    52    12    13    1
    53    36    37    1
