@<TRIPOS>MOLECULE
mol_data/opt/b3lyp/geoms/mol2/4fg4fg4fg4fg-.out
 50 53 0 0 0
SMALL
GASTEIGER

@<TRIPOS>ATOM
      1 C          -0.2089    0.5861    1.2158 C.ar    1  LIG1        0.1175
      2 C           1.1800    0.5778    1.1043 C.ar    1  LIG1       -0.0113
      3 C          -0.9748    1.2172    0.2321 C.ar    1  LIG1       -0.0191
      4 C           1.8313    1.1837    0.0199 C.ar    1  LIG1        0.0022
      5 H           1.7821    0.0891    1.8659 H       1  LIG1        0.0660
      6 C          -0.3419    1.8192   -0.8481 C.ar    1  LIG1       -0.0445
      7 C           1.0544    1.8068   -0.9765 C.ar    1  LIG1        0.0128
      8 H          -0.9491    2.3022   -1.6079 H       1  LIG1        0.0630
      9 H          -2.0556    1.2257    0.3236 H       1  LIG1        0.0654
     10 O          -0.8725    0.0040    2.2612 O.3     1  LIG1       -0.5067
     11 H          -0.2281   -0.4066    2.8524 H       1  LIG1        0.2921
     12 S           1.8594    2.5443   -2.4051 S.3     1  LIG1       -0.1420
     13 H           0.7215    2.7772   -3.0880 H       1  LIG1        0.1071
     14 C           4.0525   -0.0316   -0.0537 C.ar    1  LIG1        0.1252
     15 C           5.4449   -0.0011   -0.0738 C.ar    1  LIG1       -0.0107
     16 C           3.3220    1.1715   -0.0269 C.ar    1  LIG1        0.0258
     17 C           6.1629    1.2017   -0.0769 C.ar    1  LIG1        0.0023
     18 H           5.9986   -0.9360   -0.0998 H       1  LIG1        0.0661
     19 C           4.0419    2.3706   -0.0211 C.ar    1  LIG1       -0.0367
     20 C           5.4403    2.4102   -0.0591 C.ar    1  LIG1        0.0134
     21 H           3.4810    3.2988    0.0149 H       1  LIG1        0.0636
     22 O           3.3572   -1.2106   -0.0523 O.3     1  LIG1       -0.5061
     23 H           3.9844   -1.9392   -0.1494 H       1  LIG1        0.2922
     24 S           6.3133    3.9806   -0.1070 S.3     1  LIG1       -0.1420
     25 H           5.2254    4.7241   -0.3867 H       1  LIG1        0.1071
     26 C           8.3815    0.5213   -1.0891 C.ar    1  LIG1        0.1252
     27 C           9.7738    0.5036   -1.0442 C.ar    1  LIG1       -0.0107
     28 C           7.6528    1.1615   -0.0686 C.ar    1  LIG1        0.0258
     29 C          10.4906    1.1000    0.0000 C.ar    1  LIG1        0.0023
     30 H          10.3273    0.0139   -1.8415 H       1  LIG1        0.0661
     31 C           8.3720    1.7444    0.9802 C.ar    1  LIG1       -0.0367
     32 C           9.7698    1.7239    1.0356 C.ar    1  LIG1        0.0134
     33 H           7.8106    2.2151    1.7809 H       1  LIG1        0.0636
     34 O           7.6847   -0.0638   -2.1109 O.3     1  LIG1       -0.5061
     35 H           8.3132   -0.4078   -2.7591 H       1  LIG1        0.2922
     36 S          10.6555    2.4387    2.4251 S.3     1  LIG1       -0.1420
     37 H           9.5546    2.7934    3.1155 H       1  LIG1        0.1071
     38 C          12.7004   -0.1354   -0.0000 C.ar    1  LIG1        0.1246
     39 C          14.0968   -0.1280   -0.0442 C.ar    1  LIG1       -0.0185
     40 C          11.9821    1.0779   -0.0278 C.ar    1  LIG1        0.0257
     41 C          14.7972    1.0749   -0.1046 C.ar    1  LIG1       -0.0451
     42 H          14.6405   -1.0700   -0.0150 H       1  LIG1        0.0654
     43 C          12.7059    2.2725   -0.1193 C.ar    1  LIG1       -0.0373
     44 C          14.1047    2.2873   -0.1434 C.ar    1  LIG1        0.0055
     45 H          12.1587    3.2073   -0.1783 H       1  LIG1        0.0636
     46 H          15.8820    1.0699   -0.1173 H       1  LIG1        0.0630
     47 O          11.9869   -1.2984    0.0702 O.3     1  LIG1       -0.5062
     48 H          12.6036   -2.0402    0.1281 H       1  LIG1        0.2922
     49 S          15.0233    3.8261   -0.3058 S.3     1  LIG1       -0.1426
     50 H          14.5911    4.4106    0.8315 H       1  LIG1        0.1071
@<TRIPOS>BOND
     1    13    12    1
     2    35    34    1
     3    12     7    1
     4    34    26    1
     5    30    27    1
     6     8     6    1
     7    26    27   ar
     8    26    28   ar
     9    27    29   ar
    10     7     6   ar
    11     7     4   ar
    12     6     3   ar
    13    25    24    1
    14    49    44    1
    15    49    50    1
    16    45    43    1
    17    23    22    1
    18    44    43   ar
    19    44    41   ar
    20    43    40   ar
    21    46    41    1
    22    24    20    1
    23    41    39   ar
    24    18    15    1
    25    17    15   ar
    26    17    28    1
    27    17    20   ar
    28    15    14   ar
    29    28    31   ar
    30    20    19   ar
    31    14    22    1
    32    14    16   ar
    33    39    42    1
    34    39    38   ar
    35    40    38   ar
    36    40    29    1
    37    16    19   ar
    38    16     4    1
    39    19    21    1
    40    38    47    1
    41    29    32   ar
    42     4     2   ar
    43    47    48    1
    44     3     9    1
    45     3     1   ar
    46    31    32   ar
    47    31    33    1
    48    32    36    1
    49     2     1   ar
    50     2     5    1
    51     1    10    1
    52    10    11    1
    53    36    37    1
