@<TRIPOS>MOLECULE
mol_data/opt/b3lyp/geoms/mol2/4fg4fg-4fg-.out
 38 40 0 0 0
SMALL
GASTEIGER

@<TRIPOS>ATOM
      1 C          -0.1518    0.0677   -0.4659 C.ar    1  LIG1        0.1175
      2 C           1.2409    0.0781   -0.4167 C.ar    1  LIG1       -0.0113
      3 C          -0.8634    1.2029   -0.0685 C.ar    1  LIG1       -0.0191
      4 C           1.9480    1.2032    0.0312 C.ar    1  LIG1        0.0022
      5 H           1.8013   -0.8009   -0.7245 H       1  LIG1        0.0660
      6 C          -0.1740    2.3233    0.3779 C.ar    1  LIG1       -0.0445
      7 C           1.2267    2.3407    0.4426 C.ar    1  LIG1        0.0128
      8 H          -0.7393    3.1976    0.6867 H       1  LIG1        0.0630
      9 H          -1.9472    1.1929   -0.1116 H       1  LIG1        0.0654
     10 O          -0.8706   -1.0135   -0.8975 O.3     1  LIG1       -0.5067
     11 H          -0.2594   -1.7275   -1.1212 H       1  LIG1        0.2921
     12 S           2.1098    3.7770    1.0661 S.3     1  LIG1       -0.1420
     13 H           1.0133    4.4200    1.5129 H       1  LIG1        0.1071
     14 C           4.1572    0.2383    0.8067 C.ar    1  LIG1        0.1252
     15 C           5.5501    0.2346    0.7762 C.ar    1  LIG1       -0.0107
     16 C           3.4393    1.1689    0.0323 C.ar    1  LIG1        0.0258
     17 C           6.2770    1.1313   -0.0159 C.ar    1  LIG1        0.0023
     18 H           6.0957   -0.4832    1.3836 H       1  LIG1        0.0661
     19 C           4.1685    2.0556   -0.7668 C.ar    1  LIG1       -0.0367
     20 C           5.5670    2.0527   -0.8083 C.ar    1  LIG1        0.0134
     21 H           3.6139    2.7585   -1.3801 H       1  LIG1        0.0636
     22 O           3.4489   -0.6397    1.5812 O.3     1  LIG1       -0.5061
     23 H           4.0710   -1.1784    2.0875 H       1  LIG1        0.2922
     24 S           6.4678    3.1725   -1.8859 S.3     1  LIG1       -0.1420
     25 H           5.3743    3.7195   -2.4511 H       1  LIG1        0.1071
     26 C           8.4907   -0.0379   -0.3926 C.ar    1  LIG1        0.1246
     27 C           9.8866   -0.0450   -0.3338 C.ar    1  LIG1       -0.0185
     28 C           7.7682    1.1004    0.0209 C.ar    1  LIG1        0.0257
     29 C          10.5823    1.0730    0.1215 C.ar    1  LIG1       -0.0451
     30 H          10.4339   -0.9260   -0.6628 H       1  LIG1        0.0654
     31 C           8.4867    2.2001    0.5043 C.ar    1  LIG1       -0.0373
     32 C           9.8852    2.2064    0.5463 C.ar    1  LIG1        0.0055
     33 H           7.9353    3.0644    0.8590 H       1  LIG1        0.0636
     34 H          11.6669    1.0645    0.1418 H       1  LIG1        0.0630
     35 O           7.7819   -1.1145   -0.8452 O.3     1  LIG1       -0.5062
     36 H           8.4016   -1.7964   -1.1365 H       1  LIG1        0.2922
     37 S          10.7985    3.6072    1.2098 S.3     1  LIG1       -0.1426
     38 H          10.3397    4.5399    0.3490 H       1  LIG1        0.1071
@<TRIPOS>BOND
     1    25    24    1
     2    24    20    1
     3    21    19    1
     4    36    35    1
     5    11    10    1
     6    10     1    1
     7    35    26    1
     8    20    19   ar
     9    20    17   ar
    10    19    16   ar
    11     5     2    1
    12    30    27    1
    13     1     2   ar
    14     1     3   ar
    15     2     4   ar
    16    26    27   ar
    17    26    28   ar
    18    27    29   ar
    19     9     3    1
    20     3     6   ar
    21    17    28    1
    22    17    15   ar
    23    28    31   ar
    24     4    16    1
    25     4     7   ar
    26    16    14   ar
    27    29    34    1
    28    29    32   ar
    29    38    37    1
    30     6     7   ar
    31     6     8    1
    32     7    12    1
    33    31    32   ar
    34    31    33    1
    35    32    37    1
    36    15    14   ar
    37    15    18    1
    38    14    22    1
    39    12    13    1
    40    22    23    1
