@<TRIPOS>MOLECULE
mol_data/opt/b3lyp/geoms/mol2/4fg4fg-4fg-4fg-.out
 50 53 0 0 0
SMALL
GASTEIGER

@<TRIPOS>ATOM
      1 C          -0.2622    0.1181   -0.6092 C.ar    1  LIG1        0.1175
      2 C           1.1307    0.1354   -0.5726 C.ar    1  LIG1       -0.0113
      3 C          -0.9792    1.1766   -0.0450 C.ar    1  LIG1       -0.0191
      4 C           1.8337    1.1905    0.0267 C.ar    1  LIG1        0.0022
      5 H           1.6952   -0.6842   -1.0095 H       1  LIG1        0.0660
      6 C          -0.2944    2.2272    0.5526 C.ar    1  LIG1       -0.0445
      7 C           1.1067    2.2488    0.6062 C.ar    1  LIG1        0.0128
      8 H          -0.8636    3.0418    0.9904 H       1  LIG1        0.0630
      9 H          -2.0633    1.1623   -0.0789 H       1  LIG1        0.0654
     10 O          -0.9765   -0.8965   -1.1857 O.3     1  LIG1       -0.5067
     11 H          -0.3618   -1.5632   -1.5190 H       1  LIG1        0.2921
     12 S           1.9822    3.5880    1.4268 S.3     1  LIG1       -0.1420
     13 H           0.8832    4.1457    1.9713 H       1  LIG1        0.1071
     14 C           4.0586    0.1328    0.6133 C.ar    1  LIG1        0.1252
     15 C           5.4507    0.1462    0.5681 C.ar    1  LIG1       -0.0107
     16 C           3.3249    1.1702    0.0079 C.ar    1  LIG1        0.0258
     17 C           6.1637    1.1648   -0.0763 C.ar    1  LIG1        0.0023
     18 H           6.0083   -0.6564    1.0440 H       1  LIG1        0.0661
     19 C           4.0395    2.1797   -0.6455 C.ar    1  LIG1       -0.0367
     20 C           5.4375    2.1957   -0.7028 C.ar    1  LIG1        0.0134
     21 H           3.4734    2.9670   -1.1328 H       1  LIG1        0.0636
     22 O           3.3665   -0.8656    1.2440 O.3     1  LIG1       -0.5061
     23 H           3.9997   -1.4767    1.6429 H       1  LIG1        0.2922
     24 S           6.3126    3.4835   -1.5992 S.3     1  LIG1       -0.1420
     25 H           5.2058    4.0826   -2.0794 H       1  LIG1        0.1071
     26 C           8.3801    0.0636   -0.6103 C.ar    1  LIG1        0.1252
     27 C           9.7726    0.0684   -0.5642 C.ar    1  LIG1       -0.0107
     28 C           7.6542    1.1354   -0.0576 C.ar    1  LIG1        0.0258
     29 C          10.4913    1.1128    0.0294 C.ar    1  LIG1        0.0023
     30 H          10.3244   -0.7608   -0.9997 H       1  LIG1        0.0661
     31 C           8.3752    2.1721    0.5446 C.ar    1  LIG1       -0.0367
     32 C           9.7729    2.1798    0.6014 C.ar    1  LIG1        0.0134
     33 H           7.8145    2.9875    0.9899 H       1  LIG1        0.0636
     34 O           7.6805   -0.9601   -1.1906 O.3     1  LIG1       -0.5061
     35 H           8.3090   -1.5916   -1.5644 H       1  LIG1        0.2922
     36 S          10.6619    3.5029    1.4290 S.3     1  LIG1       -0.1420
     37 H           9.5626    4.1521    1.8580 H       1  LIG1        0.1071
     38 C          12.6966    0.0492    0.6717 C.ar    1  LIG1        0.1246
     39 C          14.0931    0.0314    0.6358 C.ar    1  LIG1       -0.0185
     40 C          11.9827    1.0756    0.0193 C.ar    1  LIG1        0.0257
     41 C          14.7977    1.0302   -0.0329 C.ar    1  LIG1       -0.0451
     42 H          14.6338   -0.7604    1.1501 H       1  LIG1        0.0654
     43 C          12.7103    2.0501   -0.6735 C.ar    1  LIG1       -0.0373
     44 C          14.1092    2.0486   -0.6960 C.ar    1  LIG1        0.0055
     45 H          12.1653    2.8205   -1.2087 H       1  LIG1        0.0636
     46 H          15.8825    1.0190   -0.0338 H       1  LIG1        0.0630
     47 O          11.9790   -0.9096    1.3297 O.3     1  LIG1       -0.5062
     48 H          12.5931   -1.5132    1.7683 H       1  LIG1        0.2922
     49 S          15.0367    3.2780   -1.6251 S.3     1  LIG1       -0.1426
     50 H          14.5308    4.3729   -1.0200 H       1  LIG1        0.1071
@<TRIPOS>BOND
     1    25    24    1
     2    49    50    1
     3    49    44    1
     4    24    20    1
     5    35    34    1
     6    11    10    1
     7    45    43    1
     8    34    26    1
     9    10     1    1
    10    21    19    1
    11     5     2    1
    12    30    27    1
    13    20    19   ar
    14    20    17   ar
    15    44    43   ar
    16    44    41   ar
    17    43    40   ar
    18    19    16   ar
    19    26    27   ar
    20    26    28   ar
    21     1     2   ar
    22     1     3   ar
    23     2     4   ar
    24    27    29   ar
    25     9     3    1
    26    17    28    1
    27    17    15   ar
    28    28    31   ar
    29     3     6   ar
    30    46    41    1
    31    41    39   ar
    32    16     4    1
    33    16    14   ar
    34    40    29    1
    35    40    38   ar
    36     4     7   ar
    37    29    32   ar
    38    31    32   ar
    39    31    33    1
    40     6     7   ar
    41     6     8    1
    42    15    14   ar
    43    15    18    1
    44    32    36    1
    45     7    12    1
    46    14    22    1
    47    39    38   ar
    48    39    42    1
    49    38    47    1
    50    22    23    1
    51    47    48    1
    52    12    13    1
    53    36    37    1
