@<TRIPOS>MOLECULE
mol_data/opt/b3lyp/geoms/mol2/4fg4fg-4fg.out
 38 40 0 0 0
SMALL
GASTEIGER

@<TRIPOS>ATOM
      1 C          -0.1517    0.0625   -0.4527 C.ar    1  LIG1        0.1175
      2 C           1.2411    0.0753   -0.4102 C.ar    1  LIG1       -0.0113
      3 C          -0.8637    1.1923   -0.0409 C.ar    1  LIG1       -0.0191
      4 C           1.9482    1.1974    0.0452 C.ar    1  LIG1        0.0022
      5 H           1.8018   -0.7995   -0.7292 H       1  LIG1        0.0660
      6 C          -0.1744    2.3098    0.4130 C.ar    1  LIG1       -0.0445
      7 C           1.2265    2.3294    0.4710 C.ar    1  LIG1        0.0128
      8 H          -0.7399    3.1799    0.7330 H       1  LIG1        0.0630
      9 H          -1.9477    1.1805   -0.0788 H       1  LIG1        0.0654
     10 O          -0.8705   -1.0159   -0.8913 O.3     1  LIG1       -0.5067
     11 H          -0.2590   -1.7266   -1.1247 H       1  LIG1        0.2921
     12 S           2.1100    3.7615    1.1039 S.3     1  LIG1       -0.1420
     13 H           1.0142    4.3987    1.5608 H       1  LIG1        0.1071
     14 C           4.1628    0.2300    0.8014 C.ar    1  LIG1        0.1252
     15 C           5.5556    0.2293    0.7644 C.ar    1  LIG1       -0.0107
     16 C           3.4396    1.1661    0.0389 C.ar    1  LIG1        0.0258
     17 C           6.2771    1.1345   -0.0231 C.ar    1  LIG1        0.0023
     18 H           6.1055   -0.4928    1.3627 H       1  LIG1        0.0661
     19 C           4.1633    2.0614   -0.7556 C.ar    1  LIG1       -0.0367
     20 C           5.5616    2.0615   -0.8038 C.ar    1  LIG1        0.0134
     21 H           3.6045    2.7688   -1.3599 H       1  LIG1        0.0636
     22 O           3.4599   -0.6562    1.5715 O.3     1  LIG1       -0.5061
     23 H           4.0854   -1.1985    2.0697 H       1  LIG1        0.2922
     24 S           6.4550    3.1929   -1.8756 S.3     1  LIG1       -0.1420
     25 H           5.3577    3.7415   -2.4318 H       1  LIG1        0.1071
     26 C           8.4910   -0.0274   -0.4202 C.ar    1  LIG1        0.1246
     27 C           9.8871   -0.0327   -0.3682 C.ar    1  LIG1       -0.0185
     28 C           7.7685    1.1060    0.0065 C.ar    1  LIG1        0.0257
     29 C          10.5831    1.0826    0.0935 C.ar    1  LIG1       -0.0451
     30 H          10.4344   -0.9097   -0.7074 H       1  LIG1        0.0654
     31 C           8.4874    2.2026    0.4961 C.ar    1  LIG1       -0.0373
     32 C           9.8861    2.2110    0.5314 C.ar    1  LIG1        0.0055
     33 H           7.9363    3.0628    0.8609 H       1  LIG1        0.0636
     34 H          11.6678    1.0759    0.1083 H       1  LIG1        0.0630
     35 O           7.7819   -1.1013   -0.8790 O.3     1  LIG1       -0.5062
     36 H           8.4014   -1.7800   -1.1781 H       1  LIG1        0.2922
     37 S          10.8003    3.6074    1.2028 S.3     1  LIG1       -0.1426
     38 H          10.3347    4.5472    0.3535 H       1  LIG1        0.1071
@<TRIPOS>BOND
     1    25    24    1
     2    24    20    1
     3    21    19    1
     4    36    35    1
     5    11    10    1
     6    10     1    1
     7    35    26    1
     8    20    19   ar
     9    20    17   ar
    10    19    16   ar
    11     5     2    1
    12    30    27    1
    13     1     2   ar
    14     1     3   ar
    15    26    27   ar
    16    26    28   ar
    17     2     4   ar
    18    27    29   ar
    19     9     3    1
    20     3     6   ar
    21    17    28    1
    22    17    15   ar
    23    28    31   ar
    24    16     4    1
    25    16    14   ar
    26     4     7   ar
    27    29    34    1
    28    29    32   ar
    29    38    37    1
    30     6     7   ar
    31     6     8    1
    32     7    12    1
    33    31    32   ar
    34    31    33    1
    35    32    37    1
    36    15    14   ar
    37    15    18    1
    38    14    22    1
    39    12    13    1
    40    22    23    1
