@<TRIPOS>MOLECULE
mol_data/opt/b3lyp/geoms/mol2/4fg4fg-4fg4fg-.out
 50 53 0 0 0
SMALL
GASTEIGER

@<TRIPOS>ATOM
      1 C          -0.2600    0.1105   -0.6202 C.ar    1  LIG1        0.1175
      2 C           1.1327    0.1293   -0.5813 C.ar    1  LIG1       -0.0113
      3 C          -0.9791    1.1688   -0.0582 C.ar    1  LIG1       -0.0191
      4 C           1.8336    1.1858    0.0182 C.ar    1  LIG1        0.0022
      5 H           1.6989   -0.6901   -1.0163 H       1  LIG1        0.0660
      6 C          -0.2964    2.2207    0.5395 C.ar    1  LIG1       -0.0445
      7 C           1.1046    2.2439    0.5954 C.ar    1  LIG1        0.0128
      8 H          -0.8672    3.0352    0.9755 H       1  LIG1        0.0630
      9 H          -2.0631    1.1533   -0.0939 H       1  LIG1        0.0654
     10 O          -0.9723   -0.9055   -1.1968 O.3     1  LIG1       -0.5067
     11 H          -0.3563   -1.5718   -1.5283 H       1  LIG1        0.2921
     12 S           1.9772    3.5848    1.4160 S.3     1  LIG1       -0.1420
     13 H           0.8768    4.1419    1.9583 H       1  LIG1        0.1071
     14 C           4.0586    0.1309    0.6096 C.ar    1  LIG1        0.1252
     15 C           5.4508    0.1456    0.5666 C.ar    1  LIG1       -0.0107
     16 C           3.3249    1.1670    0.0018 C.ar    1  LIG1        0.0258
     17 C           6.1638    1.1643   -0.0775 C.ar    1  LIG1        0.0023
     18 H           6.0083   -0.6559    1.0444 H       1  LIG1        0.0661
     19 C           4.0396    2.1765   -0.6513 C.ar    1  LIG1       -0.0367
     20 C           5.4376    2.1939   -0.7063 C.ar    1  LIG1        0.0134
     21 H           3.4735    2.9627   -1.1405 H       1  LIG1        0.0636
     22 O           3.3664   -0.8676    1.2400 O.3     1  LIG1       -0.5061
     23 H           3.9995   -1.4772    1.6413 H       1  LIG1        0.2922
     24 S           6.3131    3.4816   -1.6025 S.3     1  LIG1       -0.1420
     25 H           5.2066    4.0799   -2.0843 H       1  LIG1        0.1071
     26 C           8.3822    0.0649   -0.6070 C.ar    1  LIG1        0.1252
     27 C           9.7745    0.0709   -0.5583 C.ar    1  LIG1       -0.0107
     28 C           7.6543    1.1363   -0.0562 C.ar    1  LIG1        0.0258
     29 C          10.4913    1.1162    0.0359 C.ar    1  LIG1        0.0023
     30 H          10.3279   -0.7581   -0.9923 H       1  LIG1        0.0661
     31 C           8.3733    2.1740    0.5466 C.ar    1  LIG1       -0.0367
     32 C           9.7709    2.1830    0.6060 C.ar    1  LIG1        0.0134
     33 H           7.8111    2.9892    0.9904 H       1  LIG1        0.0636
     34 O           7.6845   -0.9598   -1.1878 O.3     1  LIG1       -0.5061
     35 H           8.3142   -1.5906   -1.5607 H       1  LIG1        0.2922
     36 S          10.6573    3.5074    1.4342 S.3     1  LIG1       -0.1420
     37 H           9.5566    4.1557    1.8613 H       1  LIG1        0.1071
     38 C          12.6962    0.0550    0.6833 C.ar    1  LIG1        0.1246
     39 C          14.0927    0.0382    0.6500 C.ar    1  LIG1       -0.0185
     40 C          11.9827    1.0802    0.0286 C.ar    1  LIG1        0.0257
     41 C          14.7978    1.0369   -0.0182 C.ar    1  LIG1       -0.0451
     42 H          14.6331   -0.7528    1.1659 H       1  LIG1        0.0654
     43 C          12.7109    2.0548   -0.6636 C.ar    1  LIG1       -0.0373
     44 C          14.1099    2.0544   -0.6834 C.ar    1  LIG1        0.0055
     45 H          12.1664    2.8244   -1.2004 H       1  LIG1        0.0636
     46 H          15.8826    1.0265   -0.0171 H       1  LIG1        0.0630
     47 O          11.9781   -0.9038    1.3406 O.3     1  LIG1       -0.5062
     48 H          12.5917   -1.5061    1.7816 H       1  LIG1        0.2922
     49 S          15.0381    3.2840   -1.6115 S.3     1  LIG1       -0.1426
     50 H          14.5312    4.3787   -1.0071 H       1  LIG1        0.1071
@<TRIPOS>BOND
     1    25    24    1
     2    49    50    1
     3    49    44    1
     4    24    20    1
     5    35    34    1
     6    11    10    1
     7    45    43    1
     8    10     1    1
     9    34    26    1
    10    21    19    1
    11     5     2    1
    12    30    27    1
    13    20    19   ar
    14    20    17   ar
    15    44    43   ar
    16    44    41   ar
    17    43    40   ar
    18    19    16   ar
    19     1     2   ar
    20     1     3   ar
    21    26    27   ar
    22    26    28   ar
    23     2     4   ar
    24    27    29   ar
    25     9     3    1
    26    17    28    1
    27    17    15   ar
    28     3     6   ar
    29    28    31   ar
    30    41    46    1
    31    41    39   ar
    32    16     4    1
    33    16    14   ar
    34     4     7   ar
    35    40    29    1
    36    40    38   ar
    37    29    32   ar
    38     6     7   ar
    39     6     8    1
    40    31    32   ar
    41    31    33    1
    42    15    14   ar
    43    15    18    1
    44     7    12    1
    45    32    36    1
    46    14    22    1
    47    39    38   ar
    48    39    42    1
    49    38    47    1
    50    22    23    1
    51    47    48    1
    52    12    13    1
    53    36    37    1
