@<TRIPOS>MOLECULE
mol_data/opt/b3lyp/geoms/mol2/4fg4fg-.out
 26 27 0 0 0
SMALL
GASTEIGER

@<TRIPOS>ATOM
      1 C          -0.0364    0.1128   -0.6648 C.ar    1  LIG1        0.1175
      2 C           1.3564    0.1246   -0.6103 C.ar    1  LIG1       -0.0113
      3 C          -0.7558    1.1768   -0.1138 C.ar    1  LIG1       -0.0191
      4 C           2.0539    1.1807   -0.0076 C.ar    1  LIG1        0.0022
      5 H           1.9234   -0.6983   -1.0382 H       1  LIG1        0.0660
      6 C          -0.0753    2.2285    0.4869 C.ar    1  LIG1       -0.0445
      7 C           1.3251    2.2453    0.5555 C.ar    1  LIG1        0.0128
      8 H          -0.6470    3.0475    0.9130 H       1  LIG1        0.0630
      9 H          -1.8394    1.1663   -0.1615 H       1  LIG1        0.0654
     10 O          -0.7481   -0.9007   -1.2454 O.3     1  LIG1       -0.5067
     11 H          -0.1330   -1.5686   -1.5756 H       1  LIG1        0.2921
     12 S           2.2043    3.5850    1.3690 S.3     1  LIG1       -0.1420
     13 H           1.1041    4.1791    1.8708 H       1  LIG1        0.1071
     14 C           4.2667    0.1652    0.6870 C.ar    1  LIG1        0.1246
     15 C           5.6639    0.1591    0.6602 C.ar    1  LIG1       -0.0185
     16 C           3.5466    1.1607   -0.0051 C.ar    1  LIG1        0.0257
     17 C           6.3628    1.1396   -0.0407 C.ar    1  LIG1       -0.0451
     18 H           6.2084   -0.6113    1.2023 H       1  LIG1        0.0654
     19 C           4.2695    2.1198   -0.7233 C.ar    1  LIG1       -0.0373
     20 C           5.6688    2.1307   -0.7386 C.ar    1  LIG1        0.0055
     21 H           3.7227    2.8692   -1.2859 H       1  LIG1        0.0636
     22 H           7.4476    1.1355   -0.0424 H       1  LIG1        0.0630
     23 O           3.5537   -0.7768    1.3710 O.3     1  LIG1       -0.5062
     24 H           4.1690   -1.3615    1.8330 H       1  LIG1        0.2922
     25 S           6.5814    3.3439   -1.7062 S.3     1  LIG1       -0.1426
     26 H           6.2470    4.4364   -0.9865 H       1  LIG1        0.1071
@<TRIPOS>BOND
     1    25    26    1
     2    25    20    1
     3    11    10    1
     4    21    19    1
     5    10     1    1
     6     5     2    1
     7    20    19   ar
     8    20    17   ar
     9    19    16   ar
    10     1     2   ar
    11     1     3   ar
    12     2     4   ar
    13     9     3    1
    14     3     6   ar
    15    22    17    1
    16    17    15   ar
    17     4    16    1
    18     4     7   ar
    19    16    14   ar
    20     6     7   ar
    21     6     8    1
    22     7    12    1
    23    15    14   ar
    24    15    18    1
    25    14    23    1
    26    12    13    1
    27    23    24    1
