@<TRIPOS>MOLECULE
mol_data/opt/b3lyp/geoms/mol2/4fg4fg4fg4fg.out
 50 53 0 0 0
SMALL
GASTEIGER

@<TRIPOS>ATOM
      1 C          -0.1749    1.1612    1.4677 C.ar    1  LIG1        0.1175
      2 C           1.2119    1.1173    1.3391 C.ar    1  LIG1       -0.0113
      3 C          -0.9696    1.2669    0.3232 C.ar    1  LIG1       -0.0191
      4 C           1.8325    1.1685    0.0824 C.ar    1  LIG1        0.0022
      5 H           1.8362    1.0356    2.2250 H       1  LIG1        0.0660
      6 C          -0.3670    1.3171   -0.9275 C.ar    1  LIG1       -0.0445
      7 C           1.0270    1.2610   -1.0696 C.ar    1  LIG1        0.0128
      8 H          -0.9962    1.3953   -1.8091 H       1  LIG1        0.0630
      9 H          -2.0487    1.3051    0.4266 H       1  LIG1        0.0654
     10 O          -0.8092    1.1123    2.6790 O.3     1  LIG1       -0.5067
     11 H          -0.1471    1.0195    3.3764 H       1  LIG1        0.2921
     12 S           1.7932    1.2748   -2.6961 S.3     1  LIG1       -0.1420
     13 H           0.6421    1.1357   -3.3823 H       1  LIG1        0.1071
     14 C           4.0763    0.0750    0.5148 C.ar    1  LIG1        0.1252
     15 C           5.4671    0.1079    0.4495 C.ar    1  LIG1       -0.0107
     16 C           3.3222    1.1513    0.0102 C.ar    1  LIG1        0.0258
     17 C           6.1609    1.1857   -0.1158 C.ar    1  LIG1        0.0023
     18 H           6.0392   -0.7309    0.8372 H       1  LIG1        0.0661
     19 C           4.0176    2.2295   -0.5466 C.ar    1  LIG1       -0.0367
     20 C           5.4142    2.2625   -0.6319 C.ar    1  LIG1        0.0134
     21 H           3.4387    3.0669   -0.9224 H       1  LIG1        0.0636
     22 O           3.4048   -0.9817    1.0677 O.3     1  LIG1       -0.5061
     23 H           4.0446   -1.6679    1.2988 H       1  LIG1        0.2922
     24 S           6.2532    3.6485   -1.4101 S.3     1  LIG1       -0.1420
     25 H           5.1426    4.1814   -1.9555 H       1  LIG1        0.1071
     26 C           8.3772    0.1361   -0.7467 C.ar    1  LIG1        0.1252
     27 C           9.7697    0.1441   -0.7118 C.ar    1  LIG1       -0.0107
     28 C           7.6511    1.1683   -0.1220 C.ar    1  LIG1        0.0258
     29 C          10.4911    1.1606   -0.0735 C.ar    1  LIG1        0.0023
     30 H          10.3201   -0.6555   -1.2009 H       1  LIG1        0.0661
     31 C           8.3750    2.1769    0.5223 C.ar    1  LIG1       -0.0367
     32 C           9.7739    2.2005    0.5474 C.ar    1  LIG1        0.0134
     33 H           7.8180    2.9635    1.0210 H       1  LIG1        0.0636
     34 O           7.6770   -0.8600   -1.3712 O.3     1  LIG1       -0.5061
     35 H           8.3016   -1.4450   -1.8197 H       1  LIG1        0.2922
     36 S          10.6601    3.5455    1.3439 S.3     1  LIG1       -0.1420
     37 H           9.5869    4.3488    1.4770 H       1  LIG1        0.1071
     38 C          12.7432    1.1020   -1.2282 C.ar    1  LIG1        0.1246
     39 C          14.1372    1.0266   -1.1698 C.ar    1  LIG1       -0.0185
     40 C          11.9805    1.0935   -0.0414 C.ar    1  LIG1        0.0257
     41 C          14.7922    0.9517    0.0577 C.ar    1  LIG1       -0.0451
     42 H          14.7148    1.0417   -2.0917 H       1  LIG1        0.0654
     43 C          12.6590    0.9874    1.1781 C.ar    1  LIG1       -0.0373
     44 C          14.0556    0.9312    1.2440 C.ar    1  LIG1        0.0055
     45 H          12.0789    0.9406    2.0938 H       1  LIG1        0.0636
     46 H          15.8758    0.9128    0.0922 H       1  LIG1        0.0630
     47 O          12.0740    1.1848   -2.4151 O.3     1  LIG1       -0.5062
     48 H          12.7159    1.2362   -3.1356 H       1  LIG1        0.2922
     49 S          14.9109    0.7496    2.8171 S.3     1  LIG1       -0.1426
     50 H          14.5306    1.9240    3.3634 H       1  LIG1        0.1071
@<TRIPOS>BOND
     1    13    12    1
     2    48    47    1
     3    12     7    1
     4    47    38    1
     5    42    39    1
     6    25    24    1
     7    35    34    1
     8     8     6    1
     9    24    20    1
    10    34    26    1
    11    38    39   ar
    12    38    40   ar
    13    30    27    1
    14    39    41   ar
    15     7     6   ar
    16     7     4   ar
    17     6     3   ar
    18    21    19    1
    19    26    27   ar
    20    26    28   ar
    21    27    29   ar
    22    20    19   ar
    23    20    17   ar
    24    19    16   ar
    25    28    17    1
    26    28    31   ar
    27    17    15   ar
    28    29    40    1
    29    29    32   ar
    30    40    43   ar
    31    16     4    1
    32    16    14   ar
    33    41    46    1
    34    41    44   ar
    35     4     2   ar
    36     3     9    1
    37     3     1   ar
    38    15    14   ar
    39    15    18    1
    40    14    22    1
    41    31    32   ar
    42    31    33    1
    43    32    36    1
    44    22    23    1
    45    43    44   ar
    46    43    45    1
    47    44    49    1
    48     2     1   ar
    49     2     5    1
    50    36    37    1
    51     1    10    1
    52    10    11    1
    53    49    50    1
