@<TRIPOS>MOLECULE
mol_data/opt/b3lyp/geoms/mol2/4fg4fg4fg-4fg.out
 50 53 0 0 0
SMALL
GASTEIGER

@<TRIPOS>ATOM
      1 C          -0.2622    0.1235    0.6241 C.ar    1  LIG1        0.1175
      2 C           1.1307    0.1411    0.5888 C.ar    1  LIG1       -0.0113
      3 C          -0.9792    1.1739    0.0449 C.ar    1  LIG1       -0.0191
      4 C           1.8337    1.1884   -0.0241 C.ar    1  LIG1        0.0022
      5 H           1.6952   -0.6722    1.0372 H       1  LIG1        0.0660
      6 C          -0.2943    2.2167   -0.5662 C.ar    1  LIG1       -0.0445
      7 C           1.1068    2.2384   -0.6185 C.ar    1  LIG1        0.0128
      8 H          -0.8635    3.0250   -1.0155 H       1  LIG1        0.0630
      9 H          -2.0633    1.1595    0.0778 H       1  LIG1        0.0654
     10 O          -0.9766   -0.8836    1.2135 O.3     1  LIG1       -0.5067
     11 H          -0.3619   -1.5454    1.5564 H       1  LIG1        0.2921
     12 S           1.9824    3.5668   -1.4563 S.3     1  LIG1       -0.1420
     13 H           0.8838    4.1162   -2.0099 H       1  LIG1        0.1071
     14 C           4.0596    0.1234   -0.5932 C.ar    1  LIG1        0.1252
     15 C           5.4517    0.1378   -0.5466 C.ar    1  LIG1       -0.0107
     16 C           3.3249    1.1690   -0.0032 C.ar    1  LIG1        0.0258
     17 C           6.1636    1.1657    0.0841 C.ar    1  LIG1        0.0023
     18 H           6.0101   -0.6711   -1.0106 H       1  LIG1        0.0661
     19 C           4.0384    2.1878    0.6366 C.ar    1  LIG1       -0.0367
     20 C           5.4364    2.2051    0.6953 C.ar    1  LIG1        0.0134
     21 H           3.4716    2.9817    1.1122 H       1  LIG1        0.0636
     22 O           3.3685   -0.8840   -1.2105 O.3     1  LIG1       -0.5061
     23 H           4.0023   -1.5004   -1.6003 H       1  LIG1        0.2922
     24 S           6.3102    3.5056    1.5744 S.3     1  LIG1       -0.1420
     25 H           5.2028    4.1111    2.0450 H       1  LIG1        0.1071
     26 C           8.3799    0.0731    0.6365 C.ar    1  LIG1        0.1252
     27 C           9.7724    0.0778    0.5918 C.ar    1  LIG1       -0.0107
     28 C           7.6542    1.1366    0.0676 C.ar    1  LIG1        0.0258
     29 C          10.4913    1.1138   -0.0159 C.ar    1  LIG1        0.0023
     30 H          10.3240   -0.7449    1.0398 H       1  LIG1        0.0661
     31 C           8.3754    2.1648   -0.5486 C.ar    1  LIG1       -0.0367
     32 C           9.7732    2.1722   -0.6040 C.ar    1  LIG1        0.0134
     33 H           7.8150    2.9734   -1.0063 H       1  LIG1        0.0636
     34 O           7.6799   -0.9424    1.2306 O.3     1  LIG1       -0.5061
     35 H           8.3082   -1.5682    1.6142 H       1  LIG1        0.2922
     36 S          10.6626    3.4835   -1.4495 S.3     1  LIG1       -0.1420
     37 H           9.5635    4.1267   -1.8882 H       1  LIG1        0.1071
     38 C          12.6977    0.0416   -0.6401 C.ar    1  LIG1        0.1246
     39 C          14.0941    0.0247   -0.6023 C.ar    1  LIG1       -0.0185
     40 C          11.9827    1.0772   -0.0035 C.ar    1  LIG1        0.0257
     41 C          14.7977    1.0334    0.0525 C.ar    1  LIG1       -0.0451
     42 H          14.6357   -0.7744   -1.1043 H       1  LIG1        0.0654
     43 C          12.7093    2.0620    0.6758 C.ar    1  LIG1       -0.0373
     44 C          14.1082    2.0612    0.6999 C.ar    1  LIG1        0.0055
     45 H          12.1635    2.8399    1.1991 H       1  LIG1        0.0636
     46 H          15.8825    1.0226    0.0547 H       1  LIG1        0.0630
     47 O          11.9811   -0.9269   -1.2848 O.3     1  LIG1       -0.5062
     48 H          12.5958   -1.5364   -1.7142 H       1  LIG1        0.2922
     49 S          15.0344    3.3042    1.6121 S.3     1  LIG1       -0.1426
     50 H          14.5278    4.3901    0.9918 H       1  LIG1        0.1071
@<TRIPOS>BOND
     1    13    12    1
     2    37    36    1
     3    48    47    1
     4    23    22    1
     5    12     7    1
     6    36    32    1
     7    47    38    1
     8    22    14    1
     9    42    39    1
    10     8     6    1
    11    18    15    1
    12    33    31    1
    13    38    39   ar
    14    38    40   ar
    15     7     6   ar
    16     7     4   ar
    17    32    31   ar
    18    32    29   ar
    19    39    41   ar
    20    14    15   ar
    21    14    16   ar
    22     6     3   ar
    23    31    28   ar
    24    15    17   ar
    25     4    16    1
    26     4     2   ar
    27    29    40    1
    28    29    27   ar
    29    40    43   ar
    30    16    19   ar
    31     3     9    1
    32     3     1   ar
    33    41    46    1
    34    41    44   ar
    35    28    17    1
    36    28    26   ar
    37    17    20   ar
    38     2     1   ar
    39     2     5    1
    40    27    26   ar
    41    27    30    1
    42     1    10    1
    43    26    34    1
    44    19    20   ar
    45    19    21    1
    46    43    44   ar
    47    43    45    1
    48    20    24    1
    49    44    49    1
    50    50    49    1
    51    10    11    1
    52    34    35    1
    53    24    25    1
