@<TRIPOS>MOLECULE
mol_data/opt/b3lyp/geoms/mol2/4fh4ie-13lh-6df-4ha13ae-12he6fd-.out
 99 106 0 0 0
SMALL
GASTEIGER

@<TRIPOS>ATOM
      1 C          -0.6607    0.1327    0.5532 C.ar    1  LIG1        0.1176
      2 C           0.7262    0.2350    0.6365 C.ar    1  LIG1       -0.0107
      3 C          -1.3036    0.5303   -0.6222 C.ar    1  LIG1       -0.0184
      4 C           1.4928    0.7327   -0.4291 C.ar    1  LIG1        0.0065
      5 H           1.2354   -0.0605    1.5517 H       1  LIG1        0.0661
      6 C          -0.5583    1.0272   -1.6833 C.ar    1  LIG1       -0.0370
      7 C           0.8411    1.1436   -1.6135 C.ar    1  LIG1        0.0326
      8 H          -1.0677    1.3413   -2.5910 H       1  LIG1        0.0637
      9 H          -2.3834    0.4478   -0.6886 H       1  LIG1        0.0655
     10 O          -1.4405   -0.3437    1.5791 O.3     1  LIG1       -0.5067
     11 H          -0.8716   -0.5539    2.3306 H       1  LIG1        0.2921
     12 N           1.5500    1.7068   -2.6834 N.pl3   1  LIG1       -0.3575
     13 H           2.5287    1.4556   -2.7233 H       1  LIG1        0.1423
     14 H           1.0995    1.6017   -3.5824 H       1  LIG1        0.1423
     15 C           3.8066   -0.3027   -0.1545 C.ar    1  LIG1       -0.0420
     16 C           5.1816   -0.1206   -0.0105 C.ar    1  LIG1       -0.0478
     17 C           2.9772    0.8364   -0.2903 C.ar    1  LIG1       -0.0119
     18 C           5.8013    1.1439    0.0110 C.ar    1  LIG1        0.0176
     19 H           5.8163   -0.9954    0.0704 H       1  LIG1        0.0627
     20 C           3.5777    2.0972   -0.2927 C.ar    1  LIG1       -0.0377
     21 C           4.9635    2.2828   -0.1428 C.ar    1  LIG1        0.0345
     22 H           2.9543    2.9772   -0.4097 H       1  LIG1        0.0636
     23 C           3.2456   -1.7058   -0.1923 C.3     1  LIG1       -0.0391
     24 H           4.0411   -2.4359   -0.3622 H       1  LIG1        0.0278
     25 H           2.4967   -1.8162   -0.9819 H       1  LIG1        0.0278
     26 H           2.7479   -1.9716    0.7472 H       1  LIG1        0.0278
     27 C           5.4445    3.6281   -0.1539 C.1     1  LIG1       -0.0690
     28 C           5.7966    4.7869   -0.1873 C.1     1  LIG1       -0.1139
     29 H           6.1256    5.7984   -0.2491 H       1  LIG1        0.1232
     30 C           7.2538    1.2025    0.1787 C.ar    1  LIG1        0.0922
     31 C           8.1372    0.2242    0.6615 C.ar    1  LIG1        0.1664
     32 C           9.4513    0.7292    0.6164 C.ar    1  LIG1        0.0932
     33 C           9.3773    2.0363    0.1027 C.ar    1  LIG1        0.0744
     34 N           8.0353    2.2769   -0.1589 N.ar    1  LIG1       -0.3496
     35 H           7.6572    3.1403   -0.5245 H       1  LIG1        0.1661
     36 O           7.8524   -1.0510    1.0975 O.3     1  LIG1       -0.4911
     37 C           7.4997   -1.1220    2.4872 C.3     1  LIG1        0.0790
     38 H           7.3719   -2.1811    2.7217 H       1  LIG1        0.0660
     39 H           8.2919   -0.6984    3.1150 H       1  LIG1        0.0660
     40 H           6.5621   -0.5891    2.6815 H       1  LIG1        0.0660
     41 N          10.5685    0.0007    1.0445 N.pl3   1  LIG1       -0.3535
     42 H          10.3361   -0.9862    1.0995 H       1  LIG1        0.1425
     43 H          11.3849    0.1290    0.4569 H       1  LIG1        0.1425
     44 C          10.4029    4.1241   -0.9652 C.ar    1  LIG1        0.1501
     45 C          10.4477    2.9934   -0.0971 C.ar    1  LIG1        0.0396
     46 C          11.6587    2.8450    0.6014 C.ar    1  LIG1       -0.0061
     47 C          12.7236    3.7290    0.4387 C.ar    1  LIG1        0.1435
     48 C          12.5677    4.8302   -0.4580 C.ar    1  LIG1        0.1155
     49 N          11.4128    4.9886   -1.1131 N.ar    1  LIG1       -0.2320
     50 H          11.7772    2.0574    1.3359 H       1  LIG1        0.0662
     51 N           8.3214    4.6924   -2.4208 N.1     1  LIG1       -0.1893
     52 C           9.2524    4.4329   -1.7708 C.1     1  LIG1        0.1198
     53 O          13.8149    3.5157    1.1979 O.3     1  LIG1       -0.5046
     54 H          14.6149    3.8737    0.7309 H       1  LIG1        0.2922
     55 C          14.9523    5.7663   -0.7121 C.ar    1  LIG1        0.0346
     56 C          15.8002    6.8688   -0.8098 C.ar    1  LIG1       -0.0313
     57 C          13.5527    5.9353   -0.6326 C.ar    1  LIG1        0.0246
     58 C          15.2969    8.1762   -0.8694 C.ar    1  LIG1        0.0001
     59 H          16.8749    6.7088   -0.8351 H       1  LIG1        0.0643
     60 C          13.0599    7.2475   -0.7397 C.ar    1  LIG1       -0.0501
     61 C          13.9003    8.3451   -0.8520 C.ar    1  LIG1       -0.0519
     62 H          11.9848    7.3850   -0.7295 H       1  LIG1        0.0625
     63 N          15.5052    4.4518   -0.6412 N.pl3   1  LIG1       -0.3574
     64 H          15.1295    3.8399   -1.3626 H       1  LIG1        0.1423
     65 H          16.5175    4.4553   -0.7106 H       1  LIG1        0.1423
     66 H          13.4659    9.3354   -0.9512 H       1  LIG1        0.0624
     67 C          16.2085    9.3124   -0.9624 C.ar    1  LIG1        0.0482
     68 C          17.5014    9.4059   -1.4434 C.ar    1  LIG1       -0.0203
     69 C          17.9305   10.7616   -1.3211 C.ar    1  LIG1        0.0536
     70 C          16.8712   11.4766   -0.7342 C.ar    1  LIG1        0.1000
     71 N          15.8421   10.5830   -0.5518 N.ar    1  LIG1       -0.3507
     72 H          15.0117   10.7923   -0.0196 H       1  LIG1        0.1660
     73 H          18.0732    8.6109   -1.8980 H       1  LIG1        0.0651
     74 C          19.1565   11.2895   -1.7937 C.1     1  LIG1       -0.0674
     75 C          20.2114   11.7240   -2.2067 C.1     1  LIG1       -0.1138
     76 H          21.1213   12.0933   -2.6204 H       1  LIG1        0.1232
     77 C          16.7408   12.8456   -0.3299 C.ar    1  LIG1        0.1747
     78 C          17.6063   13.8408    0.0791 C.ar    1  LIG1        0.0887
     79 C          16.7869   14.9796    0.4323 C.ar    1  LIG1        0.0918
     80 C          15.4664   14.6094    0.2465 C.ar    1  LIG1        0.1581
     81 O          15.4333   13.3213   -0.2143 O.2     1  LIG1       -0.4500
     82 N          18.9680   13.7984    0.2415 N.pl3   1  LIG1       -0.3540
     83 H          19.4777   13.1562   -0.3544 H       1  LIG1        0.1425
     84 H          19.4053   14.7037    0.3482 H       1  LIG1        0.1425
     85 C          17.3186   16.2146    0.8723 C.1     1  LIG1       -0.0640
     86 C          17.8428   17.2440    1.2381 C.1     1  LIG1       -0.1137
     87 H          18.2777   18.1615    1.5633 H       1  LIG1        0.1232
     88 C          12.9722   14.8278   -0.1603 C.ar    1  LIG1        0.2233
     89 C          14.1960   15.2938    0.4186 C.ar    1  LIG1        0.0810
     90 C          14.1231   16.4731    1.1673 C.ar    1  LIG1       -0.0270
     91 C          12.9007   17.1371    1.3174 C.ar    1  LIG1        0.0707
     92 C          11.7678   16.5761    0.7046 C.ar    1  LIG1        0.0488
     93 N          11.8095   15.4574   -0.0098 N.ar    1  LIG1       -0.2196
     94 H          15.0147   16.8725    1.6345 H       1  LIG1        0.0640
     95 H          10.7983   17.0584    0.8019 H       1  LIG1        0.0844
     96 O          12.8956   13.7170   -0.9104 O.3     1  LIG1       -0.4919
     97 H          13.7769   13.3163   -0.9898 H       1  LIG1        0.2937
     98 N          12.7155   19.3264    2.6955 N.1     1  LIG1       -0.1908
     99 C          12.8012   18.3437    2.0782 C.1     1  LIG1        0.1007
@<TRIPOS>BOND
     1    14    12    1
     2    13    12    1
     3    12     7    1
     4    76    75    1
     5     8     6    1
     6    51    52    3
     7    75    74    3
     8    73    68    1
     9    74    69    1
    10    52    44    1
    11     6     7   ar
    12     6     3   ar
    13     7     4   ar
    14    68    69   ar
    15    68    67   ar
    16    64    63    1
    17    69    70   ar
    18    49    44   ar
    19    49    48   ar
    20    97    96    1
    21    25    23    1
    22    44    45   ar
    23    67    58    1
    24    67    71   ar
    25    66    61    1
    26    96    88    1
    27    58    61   ar
    28    58    56   ar
    29    61    60   ar
    30    59    56    1
    31    56    55   ar
    32    60    62    1
    33    60    57   ar
    34    70    71   ar
    35    70    77    1
    36    55    63    1
    37    55    57   ar
    38    65    63    1
    39     9     3    1
    40    57    48    1
    41     3     1   ar
    42    71    72    1
    43    35    34    1
    44    48    47   ar
    45     4    17    1
    46     4     2   ar
    47    22    20    1
    48    24    23    1
    49    83    82    1
    50    77    81   ar
    51    77    78   ar
    52    20    17   ar
    53    20    21   ar
    54    17    15   ar
    55    29    28    1
    56    81    80   ar
    57    23    15    1
    58    23    26    1
    59    28    27    3
    60    88    93   ar
    61    88    89   ar
    62    34    33   ar
    63    34    30   ar
    64    15    16   ar
    65    27    21    1
    66    21    18   ar
    67    45    33    1
    68    45    46   ar
    69    16    18   ar
    70    16    19    1
    71    93    92   ar
    72    18    30    1
    73    78    82    1
    74    78    79   ar
    75    33    32   ar
    76    30    31   ar
    77    82    84    1
    78    80    89    1
    79    80    79   ar
    80    89    90   ar
    81    79    85    1
    82    47    46   ar
    83    47    53    1
    84    43    41    1
    85     1     2   ar
    86     1    10    1
    87    46    50    1
    88    32    31   ar
    89    32    41    1
    90     2     5    1
    91    31    36    1
    92    92    95    1
    93    92    91   ar
    94    54    53    1
    95    85    86    3
    96    41    42    1
    97    36    37    1
    98    90    91   ar
    99    90    94    1
   100    86    87    1
   101    91    99    1
   102    10    11    1
   103    99    98    3
   104    37    40    1
   105    37    38    1
   106    37    39    1
