@<TRIPOS>MOLECULE
mol_data/opt/b3lyp/geoms/mol2/4fi.out
 16 16 0 0 0
SMALL
GASTEIGER

@<TRIPOS>ATOM
      1 C           0.0631   -0.0143   -0.0056 C.ar    1  LIG1        0.1169
      2 C           1.4604   -0.0245    0.0017 C.ar    1  LIG1       -0.0199
      3 C          -0.6181    1.2067    0.0001 C.ar    1  LIG1       -0.0199
      4 C           2.1643    1.1800    0.0126 C.ar    1  LIG1       -0.0554
      5 H           1.9984   -0.9706    0.0040 H       1  LIG1        0.0654
      6 C           0.1012    2.3982    0.0109 C.ar    1  LIG1       -0.0554
      7 C           1.5036    2.4132    0.0145 C.ar    1  LIG1       -0.0502
      8 H          -0.4412    3.3405    0.0186 H       1  LIG1        0.0621
      9 H           3.2512    1.1548    0.0214 H       1  LIG1        0.0621
     10 H          -1.7031    1.2027    0.0006 H       1  LIG1        0.0654
     11 O          -0.6881   -1.1593   -0.0128 O.3     1  LIG1       -0.5068
     12 H          -0.0955   -1.9222   -0.0141 H       1  LIG1        0.2921
     13 C           2.2722    3.7141   -0.0072 C.3     1  LIG1       -0.0397
     14 H           1.7194    4.5137    0.4953 H       1  LIG1        0.0278
     15 H           2.4665    4.0504   -1.0336 H       1  LIG1        0.0278
     16 H           3.2422    3.6143    0.4895 H       1  LIG1        0.0278
@<TRIPOS>BOND
     1    15    13    1
     2    12    11    1
     3    11     1    1
     4    13     7    1
     5    13    16    1
     6    13    14    1
     7     1     3   ar
     8     1     2   ar
     9     3    10    1
    10     3     6   ar
    11     2     5    1
    12     2     4   ar
    13     6     7   ar
    14     6     8    1
    15     4     7   ar
    16     4     9    1
