@<TRIPOS>MOLECULE
mol_data/opt/b3lyp/geoms/mol2/4fi13da6ea-4eh.out
 50 53 0 0 0
SMALL
GASTEIGER

@<TRIPOS>ATOM
      1 C          -0.0268   -0.1435   -0.8472 C.ar    1  LIG1        0.1175
      2 C           1.3433   -0.0156   -0.6286 C.ar    1  LIG1       -0.0108
      3 C          -0.8877    0.8801   -0.4422 C.ar    1  LIG1       -0.0199
      4 C           1.8755    1.1173    0.0125 C.ar    1  LIG1        0.0059
      5 H           2.0133   -0.8018   -0.9633 H       1  LIG1        0.0661
      6 C          -0.3602    1.9976    0.1938 C.ar    1  LIG1       -0.0548
      7 C           1.0101    2.1509    0.4455 C.ar    1  LIG1       -0.0411
      8 H          -1.0392    2.7782    0.5268 H       1  LIG1        0.0622
      9 H          -1.9533    0.7786   -0.6172 H       1  LIG1        0.0654
     10 O          -0.5772   -1.2310   -1.4603 O.3     1  LIG1       -0.5067
     11 H           0.1120   -1.8900   -1.6189 H       1  LIG1        0.2921
     12 C           1.4829    3.3750    1.1995 C.3     1  LIG1       -0.0391
     13 H           0.6471    3.8305    1.7372 H       1  LIG1        0.0278
     14 H           1.8918    4.1537    0.5413 H       1  LIG1        0.0278
     15 H           2.2583    3.1329    1.9321 H       1  LIG1        0.0278
     16 C           3.3312    1.1582    0.2145 C.ar    1  LIG1        0.0649
     17 C           4.2350    0.1340    0.5493 C.ar    1  LIG1        0.0776
     18 C           5.5376    0.6983    0.5907 C.ar    1  LIG1       -0.0183
     19 C           5.4259    2.0464    0.2795 C.ar    1  LIG1        0.0508
     20 N           4.0812    2.2884    0.0652 N.ar    1  LIG1       -0.3530
     21 H           3.7246    3.1769   -0.2593 H       1  LIG1        0.1659
     22 N           3.6721   -2.3423    1.0283 N.1     1  LIG1       -0.1908
     23 C           3.9146   -1.2221    0.8188 C.1     1  LIG1        0.1013
     24 H           6.4436    0.1573    0.8166 H       1  LIG1        0.0652
     25 C           6.3223    4.3633   -0.3583 C.ar    1  LIG1        0.1229
     26 C           6.4718    3.0617    0.1921 C.ar    1  LIG1        0.0322
     27 C           7.7556    2.7657    0.6892 C.ar    1  LIG1       -0.0479
     28 C           8.7874    3.6809    0.6052 C.ar    1  LIG1       -0.0350
     29 C           8.5458    4.9365    0.0153 C.ar    1  LIG1        0.0736
     30 N           7.3255    5.2551   -0.4329 N.ar    1  LIG1       -0.2377
     31 H           7.9335    1.8082    1.1664 H       1  LIG1        0.0626
     32 C           5.0812    4.8481   -0.9015 C.1     1  LIG1       -0.0491
     33 C           4.0526    5.2886   -1.3664 C.1     1  LIG1       -0.1124
     34 H           3.1700    5.6934   -1.8069 H       1  LIG1        0.1232
     35 H           9.7632    3.4386    1.0033 H       1  LIG1        0.0639
     36 C          10.9676    5.7337   -0.2715 C.ar    1  LIG1        0.0340
     37 C          11.8517    6.8295   -0.3430 C.ar    1  LIG1       -0.0440
     38 C           9.5831    5.9999   -0.0894 C.ar    1  LIG1        0.0175
     39 C          11.4098    8.1381   -0.2468 C.ar    1  LIG1       -0.0399
     40 H          12.9078    6.6291   -0.4904 H       1  LIG1        0.0630
     41 C           9.1506    7.3266   -0.0114 C.ar    1  LIG1       -0.0307
     42 C          10.0388    8.4082   -0.0855 C.ar    1  LIG1        0.0252
     43 H           8.0875    7.5079    0.1065 H       1  LIG1        0.0643
     44 H          12.1218    8.9573   -0.2991 H       1  LIG1        0.0636
     45 C          11.5206    4.4289   -0.4511 C.1     1  LIG1       -0.0690
     46 C          12.0594    3.3564   -0.6190 C.1     1  LIG1       -0.1139
     47 H          12.5154    2.4069   -0.7776 H       1  LIG1        0.1232
     48 N           9.5806    9.7119    0.0569 N.pl3   1  LIG1       -0.3579
     49 H          10.1712   10.4328   -0.3324 H       1  LIG1        0.1423
     50 H           8.6018    9.8581   -0.1458 H       1  LIG1        0.1423
@<TRIPOS>BOND
     1    34    33    1
     2    11    10    1
     3    10     1    1
     4    33    32    3
     5     5     2    1
     6    32    25    1
     7     1     2   ar
     8     1     3   ar
     9    47    46    1
    10     2     4   ar
    11    46    45    3
    12     9     3    1
    13    40    37    1
    14    45    36    1
    15     3     6   ar
    16    30    25   ar
    17    30    29   ar
    18    25    26   ar
    19    37    36   ar
    20    37    39   ar
    21    49    48    1
    22    44    39    1
    23    36    38   ar
    24    21    20    1
    25    39    42   ar
    26    50    48    1
    27    38    41   ar
    28    38    29    1
    29    42    41   ar
    30    42    48    1
    31    41    43    1
    32     4    16    1
    33     4     7   ar
    34    29    28   ar
    35    20    16   ar
    36    20    19   ar
    37    26    19    1
    38    26    27   ar
    39     6     7   ar
    40     6     8    1
    41    16    17   ar
    42    19    18   ar
    43     7    12    1
    44    14    12    1
    45    17    18   ar
    46    17    23    1
    47    18    24    1
    48    28    27   ar
    49    28    35    1
    50    27    31    1
    51    23    22    3
    52    12    13    1
    53    12    15    1
