@<TRIPOS>MOLECULE
mol_data/opt/b3lyp/geoms/mol2/4fi4fi-.out
 30 31 0 0 0
SMALL
GASTEIGER

@<TRIPOS>ATOM
      1 C          -0.1376    0.6586   -1.1394 C.ar    1  LIG1        0.1175
      2 C           1.2569    0.5854   -1.1847 C.ar    1  LIG1       -0.0121
      3 C          -0.7534    1.4114   -0.1376 C.ar    1  LIG1       -0.0199
      4 C           2.0532    1.2488   -0.2336 C.ar    1  LIG1       -0.0080
      5 H           1.7415   -0.0205   -1.9483 H       1  LIG1        0.0660
      6 C           0.0359    2.0758    0.7958 C.ar    1  LIG1       -0.0548
      7 C           1.4367    2.0197    0.7758 C.ar    1  LIG1       -0.0424
      8 H          -0.4523    2.6681    1.5655 H       1  LIG1        0.0622
      9 H          -1.8362    1.4687   -0.1067 H       1  LIG1        0.0654
     10 O          -0.9411    0.0181   -2.0407 O.3     1  LIG1       -0.5067
     11 H          -0.3895   -0.4713   -2.6651 H       1  LIG1        0.2921
     12 C           2.2375    2.7818    1.8075 C.3     1  LIG1       -0.0391
     13 H           1.6119    3.5278    2.3055 H       1  LIG1        0.0278
     14 H           3.0913    3.2965    1.3574 H       1  LIG1        0.0278
     15 H           2.6415    2.1226    2.5844 H       1  LIG1        0.0278
     16 C           4.2158    1.6531   -1.4566 C.ar    1  LIG1        0.1246
     17 C           5.6044    1.5249   -1.5598 C.ar    1  LIG1       -0.0193
     18 C           3.5392    1.1227   -0.3413 C.ar    1  LIG1        0.0242
     19 C           6.3202    0.8670   -0.5661 C.ar    1  LIG1       -0.0554
     20 H           6.1017    1.9531   -2.4240 H       1  LIG1        0.0654
     21 C           4.2921    0.4672    0.6436 C.ar    1  LIG1       -0.0476
     22 C           5.6785    0.3209    0.5551 C.ar    1  LIG1       -0.0496
     23 H           3.7665    0.0478    1.4980 H       1  LIG1        0.0627
     24 H           7.3996    0.7770   -0.6623 H       1  LIG1        0.0621
     25 O           3.5699    2.3147   -2.4627 O.3     1  LIG1       -0.5062
     26 H           2.6257    2.3514   -2.2460 H       1  LIG1        0.2922
     27 C           6.4572   -0.4244    1.6141 C.3     1  LIG1       -0.0397
     28 H           7.4197    0.0566    1.8164 H       1  LIG1        0.0278
     29 H           6.6712   -1.4560    1.3068 H       1  LIG1        0.0278
     30 H           5.9037   -0.4744    2.5564 H       1  LIG1        0.0278
@<TRIPOS>BOND
     1    11    10    1
     2    25    26    1
     3    25    16    1
     4    20    17    1
     5    10     1    1
     6     5     2    1
     7    17    16   ar
     8    17    19   ar
     9    16    18   ar
    10     2     1   ar
    11     2     4   ar
    12     1     3   ar
    13    24    19    1
    14    19    22   ar
    15    18     4    1
    16    18    21   ar
    17     4     7   ar
    18     3     9    1
    19     3     6   ar
    20    22    21   ar
    21    22    27    1
    22    21    23    1
    23     7     6   ar
    24     7    12    1
    25     6     8    1
    26    29    27    1
    27    14    12    1
    28    27    28    1
    29    27    30    1
    30    12    13    1
    31    12    15    1
