@<TRIPOS>MOLECULE
mol_data/opt/b3lyp/geoms/mol2/4fi4fi.out
 30 31 0 0 0
SMALL
GASTEIGER

@<TRIPOS>ATOM
      1 C           0.0454    0.1860   -0.8488 C.ar    1  LIG1        0.1175
      2 C           1.4335    0.2021   -0.7117 C.ar    1  LIG1       -0.0121
      3 C          -0.7160    1.2093   -0.2809 C.ar    1  LIG1       -0.0199
      4 C           2.0805    1.2301   -0.0129 C.ar    1  LIG1       -0.0080
      5 H           2.0293   -0.5950   -1.1509 H       1  LIG1        0.0660
      6 C          -0.0721    2.2231    0.4208 C.ar    1  LIG1       -0.0548
      7 C           1.3208    2.2635    0.5742 C.ar    1  LIG1       -0.0424
      8 H          -0.6712    3.0095    0.8731 H       1  LIG1        0.0622
      9 H          -1.7954    1.1913   -0.3885 H       1  LIG1        0.0654
     10 O          -0.6175   -0.8015   -1.5282 O.3     1  LIG1       -0.5067
     11 H           0.0276   -1.4464   -1.8464 H       1  LIG1        0.2921
     12 C           1.9577    3.3811    1.3702 C.3     1  LIG1       -0.0391
     13 H           1.2016    3.9162    1.9517 H       1  LIG1        0.0278
     14 H           2.4574    4.1169    0.7294 H       1  LIG1        0.0278
     15 H           2.7144    3.0032    2.0646 H       1  LIG1        0.0278
     16 C           4.2567    0.2058    0.7798 C.ar    1  LIG1        0.1246
     17 C           5.6531    0.2108    0.8338 C.ar    1  LIG1       -0.0193
     18 C           3.5730    1.2112    0.0696 C.ar    1  LIG1        0.0242
     19 C           6.3817    1.2034    0.1817 C.ar    1  LIG1       -0.0554
     20 H           6.1713   -0.5646    1.3953 H       1  LIG1        0.0654
     21 C           4.3371    2.1911   -0.5756 C.ar    1  LIG1       -0.0476
     22 C           5.7365    2.2116   -0.5412 C.ar    1  LIG1       -0.0496
     23 H           3.8104    2.9603   -1.1351 H       1  LIG1        0.0627
     24 H           7.4671    1.1891    0.2385 H       1  LIG1        0.0621
     25 O           3.5117   -0.7535    1.4132 O.3     1  LIG1       -0.5062
     26 H           4.1104   -1.3526    1.8780 H       1  LIG1        0.2922
     27 C           6.5188    3.2682   -1.2862 C.3     1  LIG1       -0.0397
     28 H           5.9840    4.2228   -1.3068 H       1  LIG1        0.0278
     29 H           6.6989    2.9761   -2.3286 H       1  LIG1        0.0278
     30 H           7.4958    3.4413   -0.8248 H       1  LIG1        0.0278
@<TRIPOS>BOND
     1    29    27    1
     2    11    10    1
     3    10     1    1
     4    28    27    1
     5    27    30    1
     6    27    22    1
     7     5     2    1
     8    23    21    1
     9     1     2   ar
    10     1     3   ar
    11     2     4   ar
    12    21    22   ar
    13    21    18   ar
    14    22    19   ar
    15     9     3    1
    16     3     6   ar
    17     4    18    1
    18     4     7   ar
    19    18    16   ar
    20    19    24    1
    21    19    17   ar
    22     6     7   ar
    23     6     8    1
    24     7    12    1
    25    14    12    1
    26    16    17   ar
    27    16    25    1
    28    17    20    1
    29    12    13    1
    30    12    15    1
    31    25    26    1
