@<TRIPOS>MOLECULE
mol_data/opt/b3lyp/geoms/mol2/4fi4fi-4fi-4fi.out
 58 61 0 0 0
SMALL
GASTEIGER

@<TRIPOS>ATOM
      1 C          -0.2934    0.0141   -0.1137 C.ar    1  LIG1        0.1175
      2 C           1.1022    0.0041   -0.1266 C.ar    1  LIG1       -0.0121
      3 C          -0.9732    1.2347   -0.0912 C.ar    1  LIG1       -0.0199
      4 C           1.8365    1.2006   -0.1100 C.ar    1  LIG1       -0.0080
      5 H           1.6389   -0.9417   -0.1585 H       1  LIG1        0.0660
      6 C          -0.2454    2.4193   -0.0696 C.ar    1  LIG1       -0.0548
      7 C           1.1574    2.4407   -0.0742 C.ar    1  LIG1       -0.0424
      8 H          -0.7825    3.3636   -0.0349 H       1  LIG1        0.0622
      9 H          -2.0579    1.2368   -0.0847 H       1  LIG1        0.0654
     10 O          -1.0419   -1.1292   -0.1299 O.3     1  LIG1       -0.5067
     11 H          -0.4516   -1.8942   -0.1412 H       1  LIG1        0.2921
     12 C           1.8976    3.7580    0.0106 C.3     1  LIG1       -0.0391
     13 H           1.1970    4.5840    0.1576 H       1  LIG1        0.0278
     14 H           2.4760    3.9683   -0.8954 H       1  LIG1        0.0278
     15 H           2.6052    3.7628    0.8464 H       1  LIG1        0.0278
     16 C           4.0731    1.5789   -1.2163 C.ar    1  LIG1        0.1251
     17 C           5.4663    1.4876   -1.2075 C.ar    1  LIG1       -0.0115
     18 C           3.3286    1.1203   -0.1161 C.ar    1  LIG1        0.0242
     19 C           6.1560    0.9275   -0.1213 C.ar    1  LIG1       -0.0080
     20 H           6.0092    1.8232   -2.0859 H       1  LIG1        0.0660
     21 C           4.0310    0.5556    0.9569 C.ar    1  LIG1       -0.0470
     22 C           5.4245    0.4519    0.9926 C.ar    1  LIG1       -0.0418
     23 H           3.4567    0.2078    1.8120 H       1  LIG1        0.0628
     24 O           3.4863    2.1146   -2.3280 O.3     1  LIG1       -0.5061
     25 H           2.5251    2.0223   -2.2393 H       1  LIG1        0.2922
     26 C           6.1021   -0.1334    2.2112 C.3     1  LIG1       -0.0391
     27 H           6.9741    0.4563    2.5086 H       1  LIG1        0.0278
     28 H           6.4598   -1.1542    2.0346 H       1  LIG1        0.0278
     29 H           5.4090   -0.1709    3.0562 H       1  LIG1        0.0278
     30 C           8.4013    2.0607   -0.2384 C.ar    1  LIG1        0.1251
     31 C           9.7954    1.9998   -0.2901 C.ar    1  LIG1       -0.0115
     32 C           7.6478    0.8747   -0.1734 C.ar    1  LIG1        0.0242
     33 C          10.4728    0.7771   -0.2963 C.ar    1  LIG1       -0.0080
     34 H          10.3488    2.9315   -0.3414 H       1  LIG1        0.0660
     35 C           8.3446   -0.3415   -0.1684 C.ar    1  LIG1       -0.0470
     36 C           9.7367   -0.4283   -0.2302 C.ar    1  LIG1       -0.0418
     37 H           7.7672   -1.2613   -0.1223 H       1  LIG1        0.0628
     38 O           7.8313    3.3025   -0.2412 O.3     1  LIG1       -0.5061
     39 H           6.8680    3.1963   -0.2192 H       1  LIG1        0.2922
     40 C          10.4097   -1.7801   -0.2056 C.3     1  LIG1       -0.0391
     41 H          11.2307   -1.8069    0.5189 H       1  LIG1        0.0278
     42 H          10.8357   -2.0277   -1.1831 H       1  LIG1        0.0278
     43 H           9.6965   -2.5642    0.0641 H       1  LIG1        0.0278
     44 C          12.7134    0.2837   -1.3936 C.ar    1  LIG1        0.1246
     45 C          14.1079    0.3516   -1.3779 C.ar    1  LIG1       -0.0193
     46 C          11.9662    0.8037   -0.3190 C.ar    1  LIG1        0.0242
     47 C          14.7749    0.9438   -0.3066 C.ar    1  LIG1       -0.0554
     48 H          14.6745   -0.0568   -2.2128 H       1  LIG1        0.0654
     49 C          12.6691    1.4004    0.7352 C.ar    1  LIG1       -0.0476
     50 C          14.0667    1.4844    0.7700 C.ar    1  LIG1       -0.0496
     51 H          12.0917    1.8040    1.5633 H       1  LIG1        0.0627
     52 H          15.8611    0.9841   -0.3143 H       1  LIG1        0.0621
     53 O          12.0295   -0.2699   -2.4445 O.3     1  LIG1       -0.5062
     54 H          12.6664   -0.5613   -3.1101 H       1  LIG1        0.2922
     55 C          14.7760    2.1566    1.9225 C.3     1  LIG1       -0.0397
     56 H          14.2990    1.9219    2.8795 H       1  LIG1        0.0278
     57 H          14.7677    3.2489    1.8179 H       1  LIG1        0.0278
     58 H          15.8224    1.8434    1.9841 H       1  LIG1        0.0278
@<TRIPOS>BOND
     1    54    53    1
     2    53    44    1
     3    24    25    1
     4    24    16    1
     5    48    45    1
     6    20    17    1
     7    44    45   ar
     8    44    46   ar
     9    45    47   ar
    10    16    17   ar
    11    16    18   ar
    12    17    19   ar
    13    42    40    1
    14    14    12    1
    15    34    31    1
    16    46    33    1
    17    46    49   ar
    18    52    47    1
    19    47    50   ar
    20    33    31   ar
    21    33    36   ar
    22    31    30   ar
    23    38    30    1
    24    38    39    1
    25    30    32   ar
    26    36    40    1
    27    36    35   ar
    28    40    43    1
    29    40    41    1
    30    32    35   ar
    31    32    19    1
    32    35    37    1
    33     5     2    1
    34    11    10    1
    35    10     1    1
    36     2     1   ar
    37     2     4   ar
    38    19    22   ar
    39    18     4    1
    40    18    21   ar
    41     1     3   ar
    42     4     7   ar
    43     3     9    1
    44     3     6   ar
    45     7     6   ar
    46     7    12    1
    47     6     8    1
    48    12    13    1
    49    12    15    1
    50    49    50   ar
    51    49    51    1
    52    50    55    1
    53    21    22   ar
    54    21    23    1
    55    22    26    1
    56    57    55    1
    57    55    58    1
    58    55    56    1
    59    28    26    1
    60    26    27    1
    61    26    29    1
