@<TRIPOS>MOLECULE
mol_data/opt/b3lyp/geoms/mol2/4fi4fi-4fi-4fi-.out
 58 61 0 0 0
SMALL
GASTEIGER

@<TRIPOS>ATOM
      1 C          -0.3194    0.1180   -0.3129 C.ar    1  LIG1        0.1175
      2 C           1.0740    0.0730   -0.2446 C.ar    1  LIG1       -0.0121
      3 C          -0.9676    1.3557   -0.3430 C.ar    1  LIG1       -0.0199
      4 C           1.8361    1.2512   -0.1987 C.ar    1  LIG1       -0.0080
      5 H           1.5870   -0.8864   -0.2352 H       1  LIG1        0.0660
      6 C          -0.2123    2.5219   -0.2924 C.ar    1  LIG1       -0.0548
      7 C           1.1886    2.5083   -0.2158 C.ar    1  LIG1       -0.0424
      8 H          -0.7261    3.4796   -0.2993 H       1  LIG1        0.0622
      9 H          -2.0504    1.3850   -0.3994 H       1  LIG1        0.0654
     10 O          -1.0951   -1.0055   -0.3604 O.3     1  LIG1       -0.5067
     11 H          -0.5262   -1.7861   -0.3309 H       1  LIG1        0.2921
     12 C           1.9560    3.8077   -0.1026 C.3     1  LIG1       -0.0391
     13 H           1.2694    4.6527   -0.0068 H       1  LIG1        0.0278
     14 H           2.5917    3.9921   -0.9753 H       1  LIG1        0.0278
     15 H           2.6130    3.8062    0.7735 H       1  LIG1        0.0278
     16 C           4.1390    1.5575   -1.1830 C.ar    1  LIG1        0.1251
     17 C           5.5270    1.4335   -1.0945 C.ar    1  LIG1       -0.0115
     18 C           3.3236    1.1342   -0.1192 C.ar    1  LIG1        0.0242
     19 C           6.1398    0.8741    0.0373 C.ar    1  LIG1       -0.0080
     20 H           6.1262    1.7430   -1.9453 H       1  LIG1        0.0660
     21 C           3.9506    0.5704    0.9995 C.ar    1  LIG1       -0.0470
     22 C           5.3372    0.4334    1.1153 C.ar    1  LIG1       -0.0418
     23 H           3.3210    0.2498    1.8258 H       1  LIG1        0.0628
     24 O           3.6292    2.0896   -2.3326 O.3     1  LIG1       -0.5061
     25 H           2.6622    2.0262   -2.2959 H       1  LIG1        0.2922
     26 C           5.9299   -0.1498    2.3783 C.3     1  LIG1       -0.0391
     27 H           6.7999    0.4205    2.7167 H       1  LIG1        0.0278
     28 H           6.2666   -1.1833    2.2381 H       1  LIG1        0.0278
     29 H           5.1906   -0.1538    3.1840 H       1  LIG1        0.0278
     30 C           8.4129    1.9559    0.0361 C.ar    1  LIG1        0.1251
     31 C           9.8074    1.8641    0.0626 C.ar    1  LIG1       -0.0115
     32 C           7.6308    0.7864    0.0694 C.ar    1  LIG1        0.0242
     33 C          10.4600    0.6239    0.1073 C.ar    1  LIG1       -0.0080
     34 H          10.3821    2.7840    0.0134 H       1  LIG1        0.0660
     35 C           8.2990   -0.4438    0.1234 C.ar    1  LIG1       -0.0470
     36 C           9.6909   -0.5633    0.1454 C.ar    1  LIG1       -0.0418
     37 H           7.6985   -1.3496    0.1440 H       1  LIG1        0.0628
     38 O           7.8728    3.2068   -0.0130 O.3     1  LIG1       -0.5061
     39 H           6.9071    3.1238   -0.0462 H       1  LIG1        0.2922
     40 C          10.3265   -1.9331    0.2235 C.3     1  LIG1       -0.0391
     41 H          11.1512   -1.9537    0.9418 H       1  LIG1        0.0278
     42 H          10.7408   -2.2525   -0.7396 H       1  LIG1        0.0278
     43 H           9.5897   -2.6824    0.5264 H       1  LIG1        0.0278
     44 C          12.6524    1.1706    1.2161 C.ar    1  LIG1        0.1246
     45 C          14.0512    1.1496    1.2359 C.ar    1  LIG1       -0.0193
     46 C          11.9541    0.6017    0.1339 C.ar    1  LIG1        0.0242
     47 C          14.7563    0.5771    0.1845 C.ar    1  LIG1       -0.0554
     48 H          14.5631    1.5878    2.0865 H       1  LIG1        0.0654
     49 C          12.6976    0.0326   -0.9113 C.ar    1  LIG1       -0.0476
     50 C          14.0935    0.0093   -0.9143 C.ar    1  LIG1       -0.0496
     51 H          12.1577   -0.3905   -1.7547 H       1  LIG1        0.0627
     52 H          15.8432    0.5722    0.2163 H       1  LIG1        0.0621
     53 O          12.0215    1.7441    2.2830 O.3     1  LIG1       -0.5062
     54 H          11.0649    1.7049    2.1301 H       1  LIG1        0.2922
     55 C          14.8681   -0.5914   -2.0643 C.3     1  LIG1       -0.0397
     56 H          15.6014   -1.3271   -1.7147 H       1  LIG1        0.0278
     57 H          15.4225    0.1738   -2.6211 H       1  LIG1        0.0278
     58 H          14.2037   -1.0953   -2.7720 H       1  LIG1        0.0278
@<TRIPOS>BOND
     1    58    55    1
     2    57    55    1
     3    24    25    1
     4    24    16    1
     5    55    56    1
     6    55    50    1
     7    20    17    1
     8    51    49    1
     9    16    17   ar
    10    16    18   ar
    11    17    19   ar
    12    14    12    1
    13    50    49   ar
    14    50    47   ar
    15    49    46   ar
    16    42    40    1
    17     9     3    1
    18    10    11    1
    19    10     1    1
    20     3     1   ar
    21     3     6   ar
    22     1     2   ar
    23     8     6    1
    24     6     7   ar
    25     2     5    1
    26     2     4   ar
    27     7     4   ar
    28     7    12    1
    29     4    18    1
    30    18    21   ar
    31    12    13    1
    32    12    15    1
    33    39    38    1
    34    38    30    1
    35    34    31    1
    36    30    31   ar
    37    30    32   ar
    38    19    32    1
    39    19    22   ar
    40    31    33   ar
    41    32    35   ar
    42    33    46    1
    43    33    36   ar
    44    35    37    1
    45    35    36   ar
    46    46    44   ar
    47    36    40    1
    48    47    52    1
    49    47    45   ar
    50    40    43    1
    51    40    41    1
    52    21    22   ar
    53    21    23    1
    54    22    26    1
    55    44    45   ar
    56    44    53    1
    57    45    48    1
    58    54    53    1
    59    28    26    1
    60    26    27    1
    61    26    29    1
