@<TRIPOS>MOLECULE
mol_data/opt/b3lyp/geoms/mol2/4fi4fi4fi.out
 44 46 0 0 0
SMALL
GASTEIGER

@<TRIPOS>ATOM
      1 C           0.0131    0.5954   -1.4606 C.ar    1  LIG1        0.1175
      2 C           1.3941    0.6038   -1.2708 C.ar    1  LIG1       -0.0121
      3 C          -0.8146    1.2370   -0.5369 C.ar    1  LIG1       -0.0199
      4 C           1.9729    1.2469   -0.1670 C.ar    1  LIG1       -0.0080
      5 H           2.0403    0.1000   -1.9857 H       1  LIG1        0.0660
      6 C          -0.2404    1.8638    0.5636 C.ar    1  LIG1       -0.0548
      7 C           1.1449    1.8876    0.7798 C.ar    1  LIG1       -0.0424
      8 H          -0.8905    2.3466    1.2892 H       1  LIG1        0.0622
      9 H          -1.8890    1.2256   -0.6869 H       1  LIG1        0.0654
     10 O          -0.5811   -0.0209   -2.5303 O.3     1  LIG1       -0.5067
     11 H           0.1050   -0.4370   -3.0683 H       1  LIG1        0.2921
     12 C           1.6932    2.5667    2.0159 C.3     1  LIG1       -0.0391
     13 H           0.9141    2.6578    2.7784 H       1  LIG1        0.0278
     14 H           2.0612    3.5787    1.8080 H       1  LIG1        0.0278
     15 H           2.5288    2.0093    2.4482 H       1  LIG1        0.0278
     16 C           4.2006    0.0571    0.0599 C.ar    1  LIG1        0.1251
     17 C           5.5904    0.1000    0.1599 C.ar    1  LIG1       -0.0115
     18 C           3.4611    1.2497   -0.0430 C.ar    1  LIG1        0.0242
     19 C           6.2949    1.3103    0.1543 C.ar    1  LIG1       -0.0080
     20 H           6.1454   -0.8308    0.2513 H       1  LIG1        0.0660
     21 C           4.1818    2.4491   -0.0387 C.ar    1  LIG1       -0.0470
     22 C           5.5762    2.5201    0.0566 C.ar    1  LIG1       -0.0418
     23 H           3.6208    3.3763   -0.1201 H       1  LIG1        0.0628
     24 O           3.5187   -1.1319    0.0632 O.3     1  LIG1       -0.5061
     25 H           4.1539   -1.8482    0.1935 H       1  LIG1        0.2922
     26 C           6.2497    3.8751    0.0729 C.3     1  LIG1       -0.0391
     27 H           5.5387    4.6515    0.3697 H       1  LIG1        0.0278
     28 H           6.6428    4.1572   -0.9112 H       1  LIG1        0.0278
     29 H           7.0919    3.9005    0.7699 H       1  LIG1        0.0278
     30 C           8.4587    0.7006    1.3225 C.ar    1  LIG1        0.1246
     31 C           9.8555    0.6776    1.3563 C.ar    1  LIG1       -0.0193
     32 C           7.7862    1.2754    0.2259 C.ar    1  LIG1        0.0242
     33 C          10.5976    1.2138    0.3062 C.ar    1  LIG1       -0.0554
     34 H          10.3638    0.2425    2.2149 H       1  LIG1        0.0654
     35 C           8.5653    1.8010   -0.8130 C.ar    1  LIG1       -0.0476
     36 C           9.9646    1.7822   -0.8036 C.ar    1  LIG1       -0.0496
     37 H           8.0499    2.2310   -1.6679 H       1  LIG1        0.0627
     38 H          11.6831    1.1869    0.3550 H       1  LIG1        0.0621
     39 O           7.7053    0.1843    2.3438 O.3     1  LIG1       -0.5062
     40 H           8.2998   -0.1344    3.0356 H       1  LIG1        0.2922
     41 C          10.7592    2.3290   -1.9669 C.3     1  LIG1       -0.0397
     42 H          10.2382    3.1600   -2.4521 H       1  LIG1        0.0278
     43 H          10.9307    1.5627   -2.7335 H       1  LIG1        0.0278
     44 H          11.7408    2.6905   -1.6455 H       1  LIG1        0.0278
@<TRIPOS>BOND
     1    11    10    1
     2    43    41    1
     3    10     1    1
     4    42    41    1
     5     5     2    1
     6    41    44    1
     7    41    36    1
     8    37    35    1
     9     1     2   ar
    10     1     3   ar
    11     2     4   ar
    12    28    26    1
    13    35    36   ar
    14    35    32   ar
    15    36    33   ar
    16     9     3    1
    17     3     6   ar
    18     4    18    1
    19     4     7   ar
    20    23    21    1
    21    18    21   ar
    22    18    16   ar
    23    21    22   ar
    24    22    26    1
    25    22    19   ar
    26    16    24    1
    27    16    17   ar
    28    24    25    1
    29    26    27    1
    30    26    29    1
    31    19    17   ar
    32    19    32    1
    33    17    20    1
    34    32    30   ar
    35    33    38    1
    36    33    31   ar
    37     6     7   ar
    38     6     8    1
    39     7    12    1
    40    30    31   ar
    41    30    39    1
    42    31    34    1
    43    14    12    1
    44    12    15    1
    45    12    13    1
    46    39    40    1
