@<TRIPOS>MOLECULE
mol_data/opt/b3lyp/geoms/mol2/4fi4fi4fi-4fi.out
 58 61 0 0 0
SMALL
GASTEIGER

@<TRIPOS>ATOM
      1 C          -0.2079    0.8061   -1.4566 C.ar    1  LIG1        0.1175
      2 C           1.1815    0.7560   -1.3509 C.ar    1  LIG1       -0.0121
      3 C          -0.9571    1.3872   -0.4313 C.ar    1  LIG1       -0.0199
      4 C           1.8435    1.2810   -0.2317 C.ar    1  LIG1       -0.0080
      5 H           1.7674    0.2994   -2.1451 H       1  LIG1        0.0660
      6 C          -0.2994    1.8963    0.6829 C.ar    1  LIG1       -0.0548
      7 C           1.0962    1.8597    0.8157 C.ar    1  LIG1       -0.0424
      8 H          -0.8892    2.3321    1.4855 H       1  LIG1        0.0622
      9 H          -2.0380    1.4213   -0.5165 H       1  LIG1        0.0654
     10 O          -0.8851    0.3063   -2.5367 O.3     1  LIG1       -0.5067
     11 H          -0.2487   -0.0818   -3.1513 H       1  LIG1        0.2921
     12 C           1.7409    2.4102    2.0688 C.3     1  LIG1       -0.0391
     13 H           1.0087    2.4721    2.8791 H       1  LIG1        0.0278
     14 H           2.1456    3.4187    1.9214 H       1  LIG1        0.0278
     15 H           2.5701    1.7832    2.4084 H       1  LIG1        0.0278
     16 C           4.0331    0.0047   -0.1975 C.ar    1  LIG1        0.1251
     17 C           5.4285   -0.0069   -0.1812 C.ar    1  LIG1       -0.0115
     18 C           3.3360    1.2273   -0.1956 C.ar    1  LIG1        0.0242
     19 C           6.1768    1.1785   -0.1614 C.ar    1  LIG1       -0.0080
     20 H           5.9567   -0.9583   -0.1904 H       1  LIG1        0.0660
     21 C           4.0985    2.4008   -0.1745 C.ar    1  LIG1       -0.0470
     22 C           5.4985    2.4188   -0.1533 C.ar    1  LIG1       -0.0418
     23 H           3.5681    3.3492   -0.1738 H       1  LIG1        0.0628
     24 O           3.3057   -1.1543   -0.2174 O.3     1  LIG1       -0.5061
     25 H           3.9151   -1.9034   -0.1826 H       1  LIG1        0.2922
     26 C           6.2389    3.7362   -0.0729 C.3     1  LIG1       -0.0391
     27 H           5.5376    4.5664    0.0436 H       1  LIG1        0.0278
     28 H           6.8411    3.9281   -0.9673 H       1  LIG1        0.0278
     29 H           6.9272    3.7508    0.7787 H       1  LIG1        0.0278
     30 C           8.4434    1.5309   -1.2159 C.ar    1  LIG1        0.1251
     31 C           9.8334    1.4219   -1.1738 C.ar    1  LIG1       -0.0115
     32 C           7.6670    1.0855   -0.1331 C.ar    1  LIG1        0.0242
     33 C          10.4857    0.8563   -0.0732 C.ar    1  LIG1       -0.0080
     34 H          10.4042    1.7637   -2.0307 H       1  LIG1        0.0660
     35 C           8.3365    0.5182    0.9600 C.ar    1  LIG1       -0.0470
     36 C           9.7262    0.3941    1.0258 C.ar    1  LIG1       -0.0418
     37 H           7.7391    0.1830    1.8043 H       1  LIG1        0.0628
     38 O           7.8888    2.0721   -2.3452 O.3     1  LIG1       -0.5061
     39 H           6.9257    1.9855   -2.2800 H       1  LIG1        0.2922
     40 C          10.3717   -0.1952    2.2574 C.3     1  LIG1       -0.0391
     41 H          11.2090    0.4189    2.6050 H       1  LIG1        0.0278
     42 H          10.7694   -1.1949    2.0548 H       1  LIG1        0.0278
     43 H           9.6493   -0.2742    3.0746 H       1  LIG1        0.0278
     44 C          12.6959   -0.4013   -0.0916 C.ar    1  LIG1        0.1246
     45 C          14.0912   -0.3923   -0.1299 C.ar    1  LIG1       -0.0193
     46 C          11.9786    0.8111   -0.0903 C.ar    1  LIG1        0.0242
     47 C          14.7894    0.8137   -0.1771 C.ar    1  LIG1       -0.0554
     48 H          14.6343   -1.3356   -0.1291 H       1  LIG1        0.0654
     49 C          12.7121    2.0024   -0.1497 C.ar    1  LIG1       -0.0476
     50 C          14.1120    2.0355   -0.1920 C.ar    1  LIG1       -0.0496
     51 H          12.1581    2.9379   -0.1514 H       1  LIG1        0.0627
     52 H          15.8758    0.7975   -0.2041 H       1  LIG1        0.0621
     53 O          11.9821   -1.5716   -0.0702 O.3     1  LIG1       -0.5062
     54 H          12.6017   -2.3125   -0.0947 H       1  LIG1        0.2922
     55 C          14.8540    3.3496   -0.2673 C.3     1  LIG1       -0.0397
     56 H          14.4513    4.0800    0.4424 H       1  LIG1        0.0278
     57 H          14.7795    3.7973   -1.2661 H       1  LIG1        0.0278
     58 H          15.9172    3.2196   -0.0458 H       1  LIG1        0.0278
@<TRIPOS>BOND
     1    11    10    1
     2    10     1    1
     3    38    39    1
     4    38    30    1
     5     5     2    1
     6    34    31    1
     7     1     2   ar
     8     1     3   ar
     9     2     4   ar
    10    57    55    1
    11    30    31   ar
    12    30    32   ar
    13    31    33   ar
    14    28    26    1
    15     9     3    1
    16     3     6   ar
    17    55    50    1
    18    55    58    1
    19    55    56    1
    20     4    18    1
    21     4     7   ar
    22    24    16    1
    23    24    25    1
    24    52    47    1
    25    16    18   ar
    26    16    17   ar
    27    18    21   ar
    28    50    47   ar
    29    50    49   ar
    30    20    17    1
    31    17    19   ar
    32    47    45   ar
    33    21    23    1
    34    21    22   ar
    35    19    22   ar
    36    19    32    1
    37    22    26    1
    38    51    49    1
    39    49    46   ar
    40    32    35   ar
    41    45    48    1
    42    45    44   ar
    43    54    53    1
    44    44    46   ar
    45    44    53    1
    46    46    33    1
    47    33    36   ar
    48    26    27    1
    49    26    29    1
    50     6     7   ar
    51     6     8    1
    52     7    12    1
    53    35    36   ar
    54    35    37    1
    55    36    40    1
    56    14    12    1
    57    42    40    1
    58    12    15    1
    59    12    13    1
    60    40    41    1
    61    40    43    1
