@<TRIPOS>MOLECULE
mol_data/opt/b3lyp/geoms/mol2/4fi4fi-4fi.out
 44 46 0 0 0
SMALL
GASTEIGER

@<TRIPOS>ATOM
      1 C          -0.1688    0.1578   -0.6699 C.ar    1  LIG1        0.1175
      2 C           1.2264    0.1359   -0.6443 C.ar    1  LIG1       -0.0121
      3 C          -0.8483    1.2942   -0.2239 C.ar    1  LIG1       -0.0199
      4 C           1.9621    1.2337   -0.1703 C.ar    1  LIG1       -0.0080
      5 H           1.7634   -0.7393   -1.0040 H       1  LIG1        0.0660
      6 C          -0.1199    2.3798    0.2505 C.ar    1  LIG1       -0.0548
      7 C           1.2822    2.3831    0.2961 C.ar    1  LIG1       -0.0424
      8 H          -0.6566    3.2535    0.6112 H       1  LIG1        0.0622
      9 H          -1.9327    1.3078   -0.2497 H       1  LIG1        0.0654
     10 O          -0.9164   -0.8927   -1.1253 O.3     1  LIG1       -0.5067
     11 H          -0.3239   -1.6061   -1.3968 H       1  LIG1        0.2921
     12 C           2.0209    3.5681    0.8797 C.3     1  LIG1       -0.0391
     13 H           1.3164    4.2961    1.2905 H       1  LIG1        0.0278
     14 H           2.6364    4.0813    0.1333 H       1  LIG1        0.0278
     15 H           2.6954    3.2575    1.6845 H       1  LIG1        0.0278
     16 C           4.2338    1.9604   -0.9962 C.ar    1  LIG1        0.1251
     17 C           5.6241    1.8481   -0.9863 C.ar    1  LIG1       -0.0115
     18 C           3.4532    1.1418   -0.1631 C.ar    1  LIG1        0.0242
     19 C           6.2732    0.9170   -0.1686 C.ar    1  LIG1       -0.0080
     20 H           6.1978    2.4854   -1.6509 H       1  LIG1        0.0660
     21 C           4.1192    0.2117    0.6468 C.ar    1  LIG1       -0.0470
     22 C           5.5094    0.0774    0.6741 C.ar    1  LIG1       -0.0418
     23 H           3.5185   -0.4155    1.3009 H       1  LIG1        0.0628
     24 O           3.6833    2.8814   -1.8471 O.3     1  LIG1       -0.5061
     25 H           2.7202    2.7733   -1.8274 H       1  LIG1        0.2922
     26 C           6.1509   -0.9227    1.6062 C.3     1  LIG1       -0.0391
     27 H           6.9607   -0.4688    2.1875 H       1  LIG1        0.0278
     28 H           6.5851   -1.7589    1.0490 H       1  LIG1        0.0278
     29 H           5.4161   -1.3248    2.3093 H       1  LIG1        0.0278
     30 C           8.4953   -0.2323   -0.6294 C.ar    1  LIG1        0.1246
     31 C           9.8915   -0.2006   -0.6476 C.ar    1  LIG1       -0.0193
     32 C           7.7666    0.8886   -0.1882 C.ar    1  LIG1        0.0242
     33 C          10.5783    0.9420   -0.2417 C.ar    1  LIG1       -0.0554
     34 H          10.4434   -1.0754   -0.9868 H       1  LIG1        0.0654
     35 C           8.4898    2.0234    0.2023 C.ar    1  LIG1       -0.0476
     36 C           9.8886    2.0799    0.1873 C.ar    1  LIG1       -0.0496
     37 H           7.9269    2.8895    0.5410 H       1  LIG1        0.0627
     38 H          11.6651    0.9433   -0.2615 H       1  LIG1        0.0621
     39 O           7.7947   -1.3342   -1.0473 O.3     1  LIG1       -0.5062
     40 H           8.4228   -2.0090   -1.3362 H       1  LIG1        0.2922
     41 C          10.6221    3.3357    0.5972 C.3     1  LIG1       -0.0397
     42 H          10.0826    3.8770    1.3804 H       1  LIG1        0.0278
     43 H          10.7428    4.0252   -0.2480 H       1  LIG1        0.0278
     44 H          11.6234    3.1081    0.9752 H       1  LIG1        0.0278
@<TRIPOS>BOND
     1    24    25    1
     2    24    16    1
     3    20    17    1
     4    11    10    1
     5    40    39    1
     6    10     1    1
     7    39    30    1
     8     5     2    1
     9    16    17   ar
    10    16    18   ar
    11    34    31    1
    12    17    19   ar
    13     1     2   ar
    14     1     3   ar
    15    31    30   ar
    16    31    33   ar
    17     2     4   ar
    18    30    32   ar
    19    38    33    1
    20     9     3    1
    21    43    41    1
    22    33    36   ar
    23     3     6   ar
    24    32    19    1
    25    32    35   ar
    26     4    18    1
    27     4     7   ar
    28    19    22   ar
    29    18    21   ar
    30    14    12    1
    31    36    35   ar
    32    36    41    1
    33    35    37    1
    34     6     7   ar
    35     6     8    1
    36     7    12    1
    37    41    44    1
    38    41    42    1
    39    21    22   ar
    40    21    23    1
    41    22    26    1
    42    12    13    1
    43    12    15    1
    44    28    26    1
    45    26    27    1
    46    26    29    1
