@<TRIPOS>MOLECULE
mol_data/opt/b3lyp/geoms/mol2/4fi4fi4fi4fi-.out
 58 61 0 0 0
SMALL
GASTEIGER

@<TRIPOS>ATOM
      1 C          -0.0613    2.9952   -0.6322 C.ar    1  LIG1        0.1175
      2 C           1.3179    2.7884   -0.5761 C.ar    1  LIG1       -0.0121
      3 C          -0.9273    1.9516   -0.3036 C.ar    1  LIG1       -0.0199
      4 C           1.8520    1.5465   -0.2021 C.ar    1  LIG1       -0.0080
      5 H           1.9970    3.5967   -0.8404 H       1  LIG1        0.0660
      6 C          -0.3947    0.7239    0.0780 C.ar    1  LIG1       -0.0548
      7 C           0.9849    0.4871    0.1400 C.ar    1  LIG1       -0.0424
      8 H          -1.0747   -0.0808    0.3462 H       1  LIG1        0.0622
      9 H          -1.9988    2.1163   -0.3458 H       1  LIG1        0.0654
     10 O          -0.6135    4.1935   -1.0011 O.3     1  LIG1       -0.5067
     11 H           0.0980    4.8139   -1.2064 H       1  LIG1        0.2921
     12 C           1.5006   -0.8616    0.5826 C.3     1  LIG1       -0.0391
     13 H           0.7009   -1.4516    1.0393 H       1  LIG1        0.0278
     14 H           2.3086   -0.7633    1.3149 H       1  LIG1        0.0278
     15 H           1.9015   -1.4292   -0.2637 H       1  LIG1        0.0278
     16 C           4.0634    0.5516   -0.9672 C.ar    1  LIG1        0.1251
     17 C           5.4547    0.4935   -0.8779 C.ar    1  LIG1       -0.0115
     18 C           3.3379    1.4183   -0.1325 C.ar    1  LIG1        0.0242
     19 C           6.1687    1.2833    0.0323 C.ar    1  LIG1       -0.0080
     20 H           6.0019   -0.1870   -1.5276 H       1  LIG1        0.0660
     21 C           4.0721    2.2161    0.7549 C.ar    1  LIG1       -0.0470
     22 C           5.4655    2.1753    0.8680 C.ar    1  LIG1       -0.0418
     23 H           3.5175    2.8995    1.3928 H       1  LIG1        0.0628
     24 O           3.3698   -0.2091   -1.8717 O.3     1  LIG1       -0.5061
     25 H           3.9980   -0.7444   -2.3739 H       1  LIG1        0.2922
     26 C           6.1686    3.0823    1.8498 C.3     1  LIG1       -0.0391
     27 H           5.4870    3.8502    2.2257 H       1  LIG1        0.0278
     28 H           7.0250    3.5865    1.3898 H       1  LIG1        0.0278
     29 H           6.5502    2.5168    2.7061 H       1  LIG1        0.0278
     30 C           8.3831    0.7209    1.1492 C.ar    1  LIG1        0.1251
     31 C           9.7733    0.6208    1.0888 C.ar    1  LIG1       -0.0115
     32 C           7.6577    1.1817    0.0352 C.ar    1  LIG1        0.0242
     33 C          10.4890    0.9669   -0.0662 C.ar    1  LIG1       -0.0080
     34 H          10.3213    0.2483    1.9520 H       1  LIG1        0.0660
     35 C           8.3874    1.5166   -1.1121 C.ar    1  LIG1       -0.0470
     36 C           9.7826    1.4318   -1.1989 C.ar    1  LIG1       -0.0418
     37 H           7.8333    1.8881   -1.9701 H       1  LIG1        0.0628
     38 O           7.6844    0.3540    2.2671 O.3     1  LIG1       -0.5061
     39 H           8.3076    0.0486    2.9395 H       1  LIG1        0.2922
     40 C          10.4933    1.8845   -2.4558 C.3     1  LIG1       -0.0391
     41 H           9.7844    2.3232   -3.1628 H       1  LIG1        0.0278
     42 H          11.0052    1.0590   -2.9616 H       1  LIG1        0.0278
     43 H          11.2563    2.6366   -2.2298 H       1  LIG1        0.0278
     44 C          12.6338   -0.0977   -0.8600 C.ar    1  LIG1        0.1246
     45 C          14.0266   -0.2089   -0.8242 C.ar    1  LIG1       -0.0193
     46 C          11.9783    0.8482   -0.0516 C.ar    1  LIG1        0.0242
     47 C          14.7693    0.6106    0.0182 C.ar    1  LIG1       -0.0554
     48 H          14.5048   -0.9512   -1.4548 H       1  LIG1        0.0654
     49 C          12.7565    1.6487    0.7989 C.ar    1  LIG1       -0.0476
     50 C          14.1493    1.5555    0.8493 C.ar    1  LIG1       -0.0496
     51 H          12.2463    2.3753    1.4265 H       1  LIG1        0.0627
     52 H          15.8519    0.5103    0.0347 H       1  LIG1        0.0621
     53 O          11.9557   -0.9440   -1.6949 O.3     1  LIG1       -0.5062
     54 H          11.0062   -0.8266   -1.5395 H       1  LIG1        0.2922
     55 C          14.9644    2.4496    1.7546 C.3     1  LIG1       -0.0397
     56 H          15.5591    3.1702    1.1801 H       1  LIG1        0.0278
     57 H          15.6658    1.8708    2.3659 H       1  LIG1        0.0278
     58 H          14.3237    3.0201    2.4329 H       1  LIG1        0.0278
@<TRIPOS>BOND
     1    41    40    1
     2    42    40    1
     3    40    43    1
     4    40    36    1
     5    25    24    1
     6    37    35    1
     7    24    16    1
     8    53    54    1
     9    53    44    1
    10    20    17    1
    11    48    45    1
    12    11    10    1
    13    36    35   ar
    14    36    33   ar
    15    35    32   ar
    16    10     1    1
    17    16    17   ar
    18    16    18   ar
    19    17    19   ar
    20    44    45   ar
    21    44    46   ar
    22     5     2    1
    23    45    47   ar
    24     1     2   ar
    25     1     3   ar
    26     2     4   ar
    27     9     3    1
    28     3     6   ar
    29    15    12    1
    30     4    18    1
    31     4     7   ar
    32    18    21   ar
    33    33    46    1
    34    33    31   ar
    35    46    49   ar
    36    47    52    1
    37    47    50   ar
    38    19    32    1
    39    19    22   ar
    40    32    30   ar
    41     6     7   ar
    42     6     8    1
    43     7    12    1
    44    12    13    1
    45    12    14    1
    46    21    22   ar
    47    21    23    1
    48    49    50   ar
    49    49    51    1
    50    50    55    1
    51    22    26    1
    52    31    30   ar
    53    31    34    1
    54    30    38    1
    55    56    55    1
    56    28    26    1
    57    55    57    1
    58    55    58    1
    59    26    27    1
    60    26    29    1
    61    38    39    1
