@<TRIPOS>MOLECULE
mol_data/opt/b3lyp/geoms/mol2/4fi4fi4fi-4fi-.out
 58 61 0 0 0
SMALL
GASTEIGER

@<TRIPOS>ATOM
      1 C          -0.2205    0.7803   -1.4170 C.ar    1  LIG1        0.1175
      2 C           1.1699    0.7384   -1.3191 C.ar    1  LIG1       -0.0121
      3 C          -0.9658    1.3749   -0.3964 C.ar    1  LIG1       -0.0199
      4 C           1.8354    1.2852   -0.2125 C.ar    1  LIG1       -0.0080
      5 H           1.7530    0.2718   -2.1096 H       1  LIG1        0.0660
      6 C          -0.3041    1.9054    0.7052 C.ar    1  LIG1       -0.0548
      7 C           1.0925    1.8776    0.8299 C.ar    1  LIG1       -0.0424
      8 H          -0.8912    2.3517    1.5039 H       1  LIG1        0.0622
      9 H          -2.0474    1.4025   -0.4755 H       1  LIG1        0.0654
     10 O          -0.9024    0.2599   -2.4837 O.3     1  LIG1       -0.5067
     11 H          -0.2693   -0.1366   -3.0964 H       1  LIG1        0.2921
     12 C           1.7431    2.4514    2.0695 C.3     1  LIG1       -0.0391
     13 H           1.0156    2.5255    2.8828 H       1  LIG1        0.0278
     14 H           2.1441    3.4583    1.9023 H       1  LIG1        0.0278
     15 H           2.5756    1.8322    2.4152 H       1  LIG1        0.0278
     16 C           4.0312    0.0202   -0.1593 C.ar    1  LIG1        0.1251
     17 C           5.4270    0.0155   -0.1514 C.ar    1  LIG1       -0.0115
     18 C           3.3285    1.2396   -0.1848 C.ar    1  LIG1        0.0242
     19 C           6.1681    1.2055   -0.1673 C.ar    1  LIG1       -0.0080
     20 H           5.9593   -0.9335   -0.1389 H       1  LIG1        0.0660
     21 C           4.0845    2.4169   -0.1984 C.ar    1  LIG1       -0.0470
     22 C           5.4846    2.4426   -0.1873 C.ar    1  LIG1       -0.0418
     23 H           3.5493    3.3623   -0.2188 H       1  LIG1        0.0628
     24 O           3.3086   -1.1408   -0.1440 O.3     1  LIG1       -0.5061
     25 H           3.9192   -1.8879   -0.0912 H       1  LIG1        0.2922
     26 C           6.2184    3.7656   -0.1484 C.3     1  LIG1       -0.0391
     27 H           5.5129    4.5951   -0.0551 H       1  LIG1        0.0278
     28 H           6.8158    3.9355   -1.0505 H       1  LIG1        0.0278
     29 H           6.9077    3.8115    0.7013 H       1  LIG1        0.0278
     30 C           8.4205    1.5356   -1.2554 C.ar    1  LIG1        0.1251
     31 C           9.8131    1.4406   -1.2240 C.ar    1  LIG1       -0.0115
     32 C           7.6594    1.1226   -0.1485 C.ar    1  LIG1        0.0242
     33 C          10.4853    0.9215   -0.1071 C.ar    1  LIG1       -0.0080
     34 H          10.3690    1.7403   -2.1071 H       1  LIG1        0.0660
     35 C           8.3450    0.5996    0.9561 C.ar    1  LIG1       -0.0470
     36 C           9.7377    0.4934    1.0150 C.ar    1  LIG1       -0.0418
     37 H           7.7581    0.2875    1.8163 H       1  LIG1        0.0628
     38 O           7.8506    2.0286   -2.3952 O.3     1  LIG1       -0.5061
     39 H           6.8880    1.9442   -2.3152 H       1  LIG1        0.2922
     40 C          10.3975   -0.0449    2.2646 C.3     1  LIG1       -0.0391
     41 H          11.2631    0.5582    2.5542 H       1  LIG1        0.0278
     42 H          10.7606   -1.0703    2.1310 H       1  LIG1        0.0278
     43 H           9.6914   -0.0536    3.0996 H       1  LIG1        0.0278
     44 C          12.7376    2.0386   -0.2272 C.ar    1  LIG1        0.1246
     45 C          14.1350    1.9724   -0.2593 C.ar    1  LIG1       -0.0193
     46 C          11.9780    0.8566   -0.1373 C.ar    1  LIG1        0.0242
     47 C          14.7774    0.7415   -0.2132 C.ar    1  LIG1       -0.0554
     48 H          14.6952    2.8996   -0.3209 H       1  LIG1        0.0654
     49 C          12.6594   -0.3695   -0.0931 C.ar    1  LIG1       -0.0476
     50 C          14.0520   -0.4571   -0.1328 C.ar    1  LIG1       -0.0496
     51 H          12.0716   -1.2826   -0.0421 H       1  LIG1        0.0627
     52 H          15.8640    0.7098   -0.2423 H       1  LIG1        0.0621
     53 O          12.1709    3.2802   -0.2725 O.3     1  LIG1       -0.5062
     54 H          11.2070    3.1782   -0.2575 H       1  LIG1        0.2922
     55 C          14.7581   -1.7927   -0.1011 C.3     1  LIG1       -0.0397
     56 H          15.4839   -1.8451    0.7187 H       1  LIG1        0.0278
     57 H          15.3104   -1.9791   -1.0299 H       1  LIG1        0.0278
     58 H          14.0492   -2.6149    0.0309 H       1  LIG1        0.0278
@<TRIPOS>BOND
     1    11    10    1
     2    10     1    1
     3    38    39    1
     4    38    30    1
     5     5     2    1
     6    34    31    1
     7     1     2   ar
     8     1     3   ar
     9     2     4   ar
    10    30    31   ar
    11    30    32   ar
    12    31    33   ar
    13    28    26    1
    14    57    55    1
    15     9     3    1
    16     3     6   ar
    17    48    45    1
    18    53    54    1
    19    53    44    1
    20    45    44   ar
    21    45    47   ar
    22    52    47    1
    23    44    46   ar
    24    23    21    1
    25    47    50   ar
    26     4    18    1
    27     4     7   ar
    28    21    22   ar
    29    21    18   ar
    30    22    19   ar
    31    22    26    1
    32    18    16   ar
    33    19    17   ar
    34    19    32    1
    35    16    17   ar
    36    16    24    1
    37    17    20    1
    38    32    35   ar
    39    26    27    1
    40    26    29    1
    41    24    25    1
    42    46    33    1
    43    46    49   ar
    44    50    55    1
    45    50    49   ar
    46    33    36   ar
    47    55    58    1
    48    55    56    1
    49    49    51    1
    50     6     7   ar
    51     6     8    1
    52     7    12    1
    53    35    36   ar
    54    35    37    1
    55    36    40    1
    56    14    12    1
    57    12    15    1
    58    12    13    1
    59    42    40    1
    60    40    41    1
    61    40    43    1
