@<TRIPOS>MOLECULE
mol_data/opt/b3lyp/geoms/mol2/4fi4fi-4fi4fi.out
 58 61 0 0 0
SMALL
GASTEIGER

@<TRIPOS>ATOM
      1 C          -0.2357    0.3198   -1.0737 C.ar    1  LIG1        0.1175
      2 C           1.1561    0.2871   -0.9766 C.ar    1  LIG1       -0.0121
      3 C          -0.9454    1.3516   -0.4544 C.ar    1  LIG1       -0.0199
      4 C           1.8581    1.2699   -0.2607 C.ar    1  LIG1       -0.0080
      5 H           1.7176   -0.5047   -1.4678 H       1  LIG1        0.0660
      6 C          -0.2507    2.3221    0.2595 C.ar    1  LIG1       -0.0548
      7 C           1.1469    2.3107    0.3810 C.ar    1  LIG1       -0.0424
      8 H          -0.8120    3.1115    0.7528 H       1  LIG1        0.0622
      9 H          -2.0269    1.3745   -0.5358 H       1  LIG1        0.0654
     10 O          -0.9512   -0.6196   -1.7635 O.3     1  LIG1       -0.5067
     11 H          -0.3404   -1.2687   -2.1367 H       1  LIG1        0.2921
     12 C           1.8462    3.3586    1.2193 C.3     1  LIG1       -0.0391
     13 H           1.1173    3.9729    1.7546 H       1  LIG1        0.0278
     14 H           2.4672    4.0274    0.6135 H       1  LIG1        0.0278
     15 H           2.5093    2.8966    1.9578 H       1  LIG1        0.0278
     16 C           4.1681    2.1300   -0.8049 C.ar    1  LIG1        0.1251
     17 C           5.5562    2.0091   -0.7417 C.ar    1  LIG1       -0.0115
     18 C           3.3471    1.1704   -0.1896 C.ar    1  LIG1        0.0242
     19 C           6.1644    0.9338   -0.0850 C.ar    1  LIG1       -0.0080
     20 H           6.1627    2.7586   -1.2392 H       1  LIG1        0.0660
     21 C           3.9722    0.0985    0.4624 C.ar    1  LIG1       -0.0470
     22 C           5.3594   -0.0467    0.5393 C.ar    1  LIG1       -0.0418
     23 H           3.3394   -0.6388    0.9505 H       1  LIG1        0.0628
     24 O           3.6595    3.2007   -1.4913 O.3     1  LIG1       -0.5061
     25 H           2.6977    3.0941   -1.5456 H       1  LIG1        0.2922
     26 C           5.9536   -1.2105    1.2963 C.3     1  LIG1       -0.0391
     27 H           6.7530   -0.8846    1.9699 H       1  LIG1        0.0278
     28 H           6.3917   -1.9440    0.6118 H       1  LIG1        0.0278
     29 H           5.1905   -1.7143    1.8962 H       1  LIG1        0.0278
     30 C           8.4134   -0.1275   -0.6255 C.ar    1  LIG1        0.1251
     31 C           9.8054   -0.0955   -0.5676 C.ar    1  LIG1       -0.0115
     32 C           7.6558    0.8980   -0.0331 C.ar    1  LIG1        0.0242
     33 C          10.4938    0.9484    0.0630 C.ar    1  LIG1       -0.0080
     34 H          10.3757   -0.8979   -1.0300 H       1  LIG1        0.0660
     35 C           8.3610    1.9327    0.5932 C.ar    1  LIG1       -0.0470
     36 C           9.7577    1.9898    0.6650 C.ar    1  LIG1       -0.0418
     37 H           7.7814    2.7228    1.0634 H       1  LIG1        0.0628
     38 O           7.7468   -1.1351   -1.2749 O.3     1  LIG1       -0.5061
     39 H           8.3977   -1.7549   -1.6295 H       1  LIG1        0.2922
     40 C          10.4184    3.1358    1.3996 C.3     1  LIG1       -0.0391
     41 H           9.7107    3.6084    2.0865 H       1  LIG1        0.0278
     42 H          10.7772    3.9158    0.7173 H       1  LIG1        0.0278
     43 H          11.2829    2.7996    1.9788 H       1  LIG1        0.0278
     44 C          12.7212   -0.1037    0.6541 C.ar    1  LIG1        0.1246
     45 C          14.1181   -0.0887    0.6194 C.ar    1  LIG1       -0.0193
     46 C          11.9872    0.9366    0.0512 C.ar    1  LIG1        0.0242
     47 C          14.7987    0.9472   -0.0167 C.ar    1  LIG1       -0.0554
     48 H          14.6751   -0.8910    1.0999 H       1  LIG1        0.0654
     49 C          12.7050    1.9593   -0.5821 C.ar    1  LIG1       -0.0476
     50 C          14.1031    1.9907   -0.6356 C.ar    1  LIG1       -0.0496
     51 H          12.1407    2.7548   -1.0617 H       1  LIG1        0.0627
     52 H          15.8856    0.9392   -0.0297 H       1  LIG1        0.0621
     53 O          12.0261   -1.1074    1.2760 O.3     1  LIG1       -0.5062
     54 H          12.6585   -1.7209    1.6725 H       1  LIG1        0.2922
     55 C          14.8310    3.0968   -1.3636 C.3     1  LIG1       -0.0397
     56 H          14.2704    4.0359   -1.3279 H       1  LIG1        0.0278
     57 H          14.9830    2.8506   -2.4222 H       1  LIG1        0.0278
     58 H          15.8185    3.2790   -0.9287 H       1  LIG1        0.0278
@<TRIPOS>BOND
     1    57    55    1
     2    11    10    1
     3    10     1    1
     4    39    38    1
     5    25    24    1
     6    24    16    1
     7     5     2    1
     8    55    56    1
     9    55    58    1
    10    55    50    1
    11    38    30    1
    12    20    17    1
    13     1     2   ar
    14     1     3   ar
    15    51    49    1
    16    34    31    1
    17     2     4   ar
    18    16    17   ar
    19    16    18   ar
    20    17    19   ar
    21    50    49   ar
    22    50    47   ar
    23    30    31   ar
    24    30    32   ar
    25    49    46   ar
    26    31    33   ar
    27     9     3    1
    28     3     6   ar
    29     4    18    1
    30     4     7   ar
    31    18    21   ar
    32    19    32    1
    33    19    22   ar
    34    32    35   ar
    35    52    47    1
    36    47    45   ar
    37    46    33    1
    38    46    44   ar
    39    33    36   ar
    40     6     7   ar
    41     6     8    1
    42     7    12    1
    43    21    22   ar
    44    21    23    1
    45    22    26    1
    46    35    36   ar
    47    35    37    1
    48    28    26    1
    49    14    12    1
    50    45    44   ar
    51    45    48    1
    52    44    53    1
    53    36    40    1
    54    42    40    1
    55    12    13    1
    56    12    15    1
    57    53    54    1
    58    26    29    1
    59    26    27    1
    60    40    43    1
    61    40    41    1
