@<TRIPOS>MOLECULE
mol_data/opt/b3lyp/geoms/mol2/4fi4fi4fi4fi.out
 58 61 0 0 0
SMALL
GASTEIGER

@<TRIPOS>ATOM
      1 C          -0.0705    1.3431   -1.7943 C.ar    1  LIG1        0.1175
      2 C           1.3099    1.3134   -1.6007 C.ar    1  LIG1       -0.0121
      3 C          -0.9226    1.3572   -0.6882 C.ar    1  LIG1       -0.0199
      4 C           1.8630    1.2982   -0.3121 C.ar    1  LIG1       -0.0080
      5 H           1.9757    1.2985   -2.4605 H       1  LIG1        0.0660
      6 C          -0.3730    1.3299    0.5890 C.ar    1  LIG1       -0.0548
      7 C           1.0108    1.2991    0.8128 C.ar    1  LIG1       -0.0424
      8 H          -1.0413    1.3234    1.4466 H       1  LIG1        0.0622
      9 H          -1.9961    1.3777   -0.8438 H       1  LIG1        0.0654
     10 O          -0.6406    1.3626   -3.0402 O.3     1  LIG1       -0.5067
     11 H           0.0620    1.3277   -3.7024 H       1  LIG1        0.2921
     12 C           1.5363    1.2432    2.2305 C.3     1  LIG1       -0.0391
     13 H           0.7575    0.8901    2.9128 H       1  LIG1        0.0278
     14 H           1.8635    2.2250    2.5933 H       1  LIG1        0.0278
     15 H           2.3952    0.5721    2.3180 H       1  LIG1        0.0278
     16 C           4.1460    0.2560   -0.6700 C.ar    1  LIG1        0.1251
     17 C           5.5328    0.3043   -0.5353 C.ar    1  LIG1       -0.0115
     18 C           3.3501    1.3042   -0.1738 C.ar    1  LIG1        0.0242
     19 C           6.1782    1.3834    0.0816 C.ar    1  LIG1       -0.0080
     20 H           6.1328   -0.5201   -0.9135 H       1  LIG1        0.0660
     21 C           4.0113    2.3689    0.4485 C.ar    1  LIG1       -0.0470
     22 C           5.4013    2.4441    0.5935 C.ar    1  LIG1       -0.0418
     23 H           3.4051    3.1840    0.8350 H       1  LIG1        0.0628
     24 O           3.5208   -0.8015   -1.2784 O.3     1  LIG1       -0.5061
     25 H           4.1901   -1.4571   -1.5143 H       1  LIG1        0.2922
     26 C           6.0101    3.6331    1.3044 C.3     1  LIG1       -0.0391
     27 H           5.2663    4.1187    1.9428 H       1  LIG1        0.0278
     28 H           6.3804    4.3926    0.6053 H       1  LIG1        0.0278
     29 H           6.8571    3.3391    1.9302 H       1  LIG1        0.0278
     30 C           8.3804    0.3692    0.8212 C.ar    1  LIG1        0.1251
     31 C           9.7738    0.3981    0.8581 C.ar    1  LIG1       -0.0115
     32 C           7.6689    1.3834    0.1542 C.ar    1  LIG1        0.0242
     33 C          10.5079    1.4158    0.2366 C.ar    1  LIG1       -0.0080
     34 H          10.3081   -0.3863    1.3892 H       1  LIG1        0.0660
     35 C           8.4198    2.3951   -0.4551 C.ar    1  LIG1       -0.0470
     36 C           9.8182    2.4453   -0.4366 C.ar    1  LIG1       -0.0418
     37 H           7.8805    3.1816   -0.9761 H       1  LIG1        0.0628
     38 O           7.6679   -0.6314    1.4296 O.3     1  LIG1       -0.5061
     39 H           8.2878   -1.2126    1.8896 H       1  LIG1        0.2922
     40 C          10.5295    3.5971   -1.1123 C.3     1  LIG1       -0.0391
     41 H           9.8514    4.4464   -1.2352 H       1  LIG1        0.0278
     42 H          10.8980    3.3307   -2.1102 H       1  LIG1        0.0278
     43 H          11.3949    3.9332   -0.5345 H       1  LIG1        0.0278
     44 C          12.6945    1.4200    1.5134 C.ar    1  LIG1        0.1246
     45 C          14.0901    1.3609    1.5319 C.ar    1  LIG1       -0.0193
     46 C          11.9996    1.3618    0.2889 C.ar    1  LIG1        0.0242
     47 C          14.8083    1.2370    0.3441 C.ar    1  LIG1       -0.0554
     48 H          14.6170    1.4191    2.4826 H       1  LIG1        0.0654
     49 C          12.7539    1.2342   -0.8840 C.ar    1  LIG1       -0.0476
     50 C          14.1523    1.1660   -0.8884 C.ar    1  LIG1       -0.0496
     51 H          12.2201    1.1746   -1.8291 H       1  LIG1        0.0627
     52 H          15.8938    1.1951    0.3820 H       1  LIG1        0.0621
     53 O          11.9621    1.5465    2.6642 O.3     1  LIG1       -0.5062
     54 H          12.5704    1.6119    3.4120 H       1  LIG1        0.2922
     55 C          14.9187    0.9920   -2.1790 C.3     1  LIG1       -0.0397
     56 H          14.4489    1.5404   -3.0015 H       1  LIG1        0.0278
     57 H          14.9671   -0.0622   -2.4800 H       1  LIG1        0.0278
     58 H          15.9481    1.3497   -2.0828 H       1  LIG1        0.0278
@<TRIPOS>BOND
     1    11    10    1
     2    10     1    1
     3    56    55    1
     4    57    55    1
     5     5     2    1
     6    55    58    1
     7    55    50    1
     8    42    40    1
     9    51    49    1
    10     1     2   ar
    11     1     3   ar
    12     2     4   ar
    13    25    24    1
    14    24    16    1
    15    41    40    1
    16    40    43    1
    17    40    36    1
    18    37    35    1
    19    20    17    1
    20    50    49   ar
    21    50    47   ar
    22    49    46   ar
    23     9     3    1
    24     3     6   ar
    25    16    17   ar
    26    16    18   ar
    27    17    19   ar
    28    35    36   ar
    29    35    32   ar
    30    36    33   ar
    31     4    18    1
    32     4     7   ar
    33    18    21   ar
    34    19    32    1
    35    19    22   ar
    36    32    30   ar
    37    33    46    1
    38    33    31   ar
    39    46    44   ar
    40    47    52    1
    41    47    45   ar
    42    21    22   ar
    43    21    23    1
    44     6     7   ar
    45     6     8    1
    46    22    26    1
    47    28    26    1
    48     7    12    1
    49    30    31   ar
    50    30    38    1
    51    31    34    1
    52    26    29    1
    53    26    27    1
    54    38    39    1
    55    44    45   ar
    56    44    53    1
    57    45    48    1
    58    12    15    1
    59    12    14    1
    60    12    13    1
    61    53    54    1
