@<TRIPOS>MOLECULE
mol_data/opt/b3lyp/geoms/mol2/4fi4fi-4fi4fi-.out
 58 61 0 0 0
SMALL
GASTEIGER

@<TRIPOS>ATOM
      1 C          -0.2919    0.3542   -0.8874 C.ar    1  LIG1        0.1175
      2 C           1.1025    0.3120   -0.8472 C.ar    1  LIG1       -0.0121
      3 C          -0.9680    1.3973   -0.2495 C.ar    1  LIG1       -0.0199
      4 C           1.8397    1.2967   -0.1704 C.ar    1  LIG1       -0.0080
      5 H           1.6376   -0.4886   -1.3533 H       1  LIG1        0.0660
      6 C          -0.2381    2.3694    0.4258 C.ar    1  LIG1       -0.0548
      7 C           1.1633    2.3488    0.4899 C.ar    1  LIG1       -0.0424
      8 H          -0.7731    3.1675    0.9339 H       1  LIG1        0.0622
      9 H          -2.0518    1.4275   -0.2869 H       1  LIG1        0.0654
     10 O          -1.0421   -0.5858   -1.5375 O.3     1  LIG1       -0.5067
     11 H          -0.4529   -1.2428   -1.9311 H       1  LIG1        0.2921
     12 C           1.9036    3.3994    1.2890 C.3     1  LIG1       -0.0391
     13 H           1.2012    4.0250    1.8460 H       1  LIG1        0.0278
     14 H           2.5054    4.0573    0.6526 H       1  LIG1        0.0278
     15 H           2.5913    2.9397    2.0062 H       1  LIG1        0.0278
     16 C           4.1283    2.1368   -0.8219 C.ar    1  LIG1        0.1251
     17 C           5.5173    2.0093   -0.8162 C.ar    1  LIG1       -0.0115
     18 C           3.3299    1.1884   -0.1608 C.ar    1  LIG1        0.0242
     19 C           6.1465    0.9375   -0.1737 C.ar    1  LIG1       -0.0080
     20 H           6.1051    2.7505   -1.3474 H       1  LIG1        0.0660
     21 C           3.9765    0.1207    0.4763 C.ar    1  LIG1       -0.0470
     22 C           5.3652   -0.0319    0.4954 C.ar    1  LIG1       -0.0418
     23 H           3.3614   -0.6074    0.9992 H       1  LIG1        0.0628
     24 O           3.5970    3.2020   -1.4974 O.3     1  LIG1       -0.5061
     25 H           2.6327    3.1031   -1.5063 H       1  LIG1        0.2922
     26 C           5.9849   -1.1910    1.2392 C.3     1  LIG1       -0.0391
     27 H           6.8195   -0.8642    1.8683 H       1  LIG1        0.0278
     28 H           6.3801   -1.9401    0.5455 H       1  LIG1        0.0278
     29 H           5.2477   -1.6778    1.8837 H       1  LIG1        0.0278
     30 C           8.3644   -0.1402   -0.8032 C.ar    1  LIG1        0.1251
     31 C           9.7591   -0.1108   -0.8134 C.ar    1  LIG1       -0.0115
     32 C           7.6388    0.8948   -0.1856 C.ar    1  LIG1        0.0242
     33 C          10.4797    0.9362   -0.2214 C.ar    1  LIG1       -0.0080
     34 H          10.3080   -0.9089   -1.3093 H       1  LIG1        0.0660
     35 C           8.3740    1.9347    0.3965 C.ar    1  LIG1       -0.0470
     36 C           9.7735    1.9872    0.4066 C.ar    1  LIG1       -0.0418
     37 H           7.8186    2.7307    0.8853 H       1  LIG1        0.0628
     38 O           7.6644   -1.1480   -1.4106 O.3     1  LIG1       -0.5061
     39 H           8.2912   -1.7674   -1.8072 H       1  LIG1        0.2922
     40 C          10.4844    3.1162    1.1207 C.3     1  LIG1       -0.0391
     41 H           9.7687    3.7426    1.6591 H       1  LIG1        0.0278
     42 H          11.0389    3.7595    0.4290 H       1  LIG1        0.0278
     43 H          11.2112    2.7317    1.8438 H       1  LIG1        0.0278
     44 C          12.6935    1.8455   -1.0143 C.ar    1  LIG1        0.1246
     45 C          14.0892    1.7879   -1.0648 C.ar    1  LIG1       -0.0193
     46 C          11.9726    0.8968   -0.2667 C.ar    1  LIG1        0.0242
     47 C          14.7699    0.7863   -0.3822 C.ar    1  LIG1       -0.0554
     48 H          14.6185    2.5295   -1.6540 H       1  LIG1        0.0654
     49 C          12.6897   -0.1098    0.3980 C.ar    1  LIG1       -0.0476
     50 C          14.0840   -0.1851    0.3622 C.ar    1  LIG1       -0.0496
     51 H          12.1291   -0.8442    0.9713 H       1  LIG1        0.0627
     52 H          15.8556    0.7549   -0.4331 H       1  LIG1        0.0621
     53 O          12.0788    2.8419   -1.7220 O.3     1  LIG1       -0.5062
     54 H          11.1210    2.6998   -1.6775 H       1  LIG1        0.2922
     55 C          14.8331   -1.2634    1.1102 C.3     1  LIG1       -0.0397
     56 H          15.4003   -0.8497    1.9529 H       1  LIG1        0.0278
     57 H          15.5519   -1.7771    0.4621 H       1  LIG1        0.0278
     58 H          14.1504   -2.0169    1.5132 H       1  LIG1        0.0278
@<TRIPOS>BOND
     1    11    10    1
     2    39    38    1
     3    53    54    1
     4    53    44    1
     5    48    45    1
     6    10     1    1
     7    25    24    1
     8    24    16    1
     9    38    30    1
    10     5     2    1
    11    20    17    1
    12    34    31    1
    13    45    44   ar
    14    45    47   ar
    15    44    46   ar
    16     1     2   ar
    17     1     3   ar
    18     2     4   ar
    19    16    17   ar
    20    16    18   ar
    21    17    19   ar
    22    31    30   ar
    23    31    33   ar
    24    30    32   ar
    25    52    47    1
    26    47    50   ar
    27     9     3    1
    28    46    33    1
    29    46    49   ar
    30     3     6   ar
    31    33    36   ar
    32    32    19    1
    33    32    35   ar
    34    19    22   ar
    35     4    18    1
    36     4     7   ar
    37    18    21   ar
    38    50    49   ar
    39    50    55    1
    40    35    36   ar
    41    35    37    1
    42    49    51    1
    43    36    40    1
    44     6     7   ar
    45     6     8    1
    46    42    40    1
    47    57    55    1
    48    21    22   ar
    49    21    23    1
    50     7    12    1
    51    22    26    1
    52    28    26    1
    53    14    12    1
    54    55    58    1
    55    55    56    1
    56    40    41    1
    57    40    43    1
    58    26    27    1
    59    26    29    1
    60    12    13    1
    61    12    15    1
