@<TRIPOS>MOLECULE
mol_data/opt/b3lyp/geoms/mol2/4fi6aa-12df6li.out
 50 53 0 0 0
SMALL
GASTEIGER

@<TRIPOS>ATOM
      1 C          -0.2108    0.2645   -0.7813 C.ar    1  LIG1        0.1175
      2 C           1.1802    0.3446   -0.7314 C.ar    1  LIG1       -0.0122
      3 C          -0.9757    1.0459    0.0884 C.ar    1  LIG1       -0.0199
      4 C           1.8302    1.2036    0.1718 C.ar    1  LIG1       -0.0101
      5 H           1.7780   -0.2486   -1.4203 H       1  LIG1        0.0660
      6 C          -0.3313    1.8849    0.9896 C.ar    1  LIG1       -0.0548
      7 C           1.0656    1.9922    1.0596 C.ar    1  LIG1       -0.0425
      8 H          -0.9331    2.4754    1.6757 H       1  LIG1        0.0622
      9 H          -2.0576    0.9788    0.0503 H       1  LIG1        0.0654
     10 O          -0.8752   -0.5509   -1.6542 O.3     1  LIG1       -0.5067
     11 H          -0.2318   -1.0326   -2.1906 H       1  LIG1        0.2921
     12 C           1.6811    2.9088    2.0947 C.3     1  LIG1       -0.0391
     13 H           0.9992    3.0385    2.9401 H       1  LIG1        0.0278
     14 H           1.8867    3.9089    1.6941 H       1  LIG1        0.0278
     15 H           2.6253    2.5179    2.4825 H       1  LIG1        0.0278
     16 C           4.0517    2.4173    0.0332 C.ar    1  LIG1        0.0361
     17 C           3.3168    1.2234    0.1539 C.ar    1  LIG1        0.0006
     18 C           4.0666    0.0397    0.2081 C.ar    1  LIG1       -0.0505
     19 C           5.4536    0.0866    0.1536 C.ar    1  LIG1       -0.0321
     20 C           6.0799    1.3393    0.0389 C.ar    1  LIG1        0.1074
     21 N           5.3785    2.4880   -0.0229 N.ar    1  LIG1       -0.2512
     22 H           3.5607   -0.9158    0.3100 H       1  LIG1        0.0625
     23 H           3.5261    3.3667   -0.0417 H       1  LIG1        0.0836
     24 H           6.0325   -0.8275    0.2052 H       1  LIG1        0.0640
     25 C           7.5350    1.4672   -0.0230 C.ar    1  LIG1        0.1748
     26 C           8.5765    0.5445   -0.0415 C.ar    1  LIG1        0.1409
     27 C           9.7832    1.3121   -0.1058 C.ar    1  LIG1        0.1813
     28 C           9.4190    2.6372   -0.1193 C.ar    1  LIG1        0.1834
     29 O           8.0472    2.7142   -0.0751 O.2     1  LIG1       -0.4480
     30 N           8.4478   -2.0330   -0.0085 N.1     1  LIG1       -0.1906
     31 C           8.5050   -0.8698   -0.0234 C.1     1  LIG1        0.1067
     32 O          11.0146    0.7516   -0.1601 O.3     1  LIG1       -0.5023
     33 H          11.6563    1.4319   -0.4105 H       1  LIG1        0.2923
     34 C           9.8923    4.9907   -0.9349 C.ar    1  LIG1        0.2255
     35 C          10.2296    3.8464   -0.1560 C.ar    1  LIG1        0.0826
     36 C          11.4285    3.9163    0.5584 C.ar    1  LIG1       -0.0415
     37 C          12.2518    5.0514    0.4978 C.ar    1  LIG1       -0.0314
     38 C          11.7939    6.1005   -0.2941 C.ar    1  LIG1        0.0343
     39 N          10.6459    6.0774   -0.9909 N.ar    1  LIG1       -0.2205
     40 H          11.7080    3.0834    1.2003 H       1  LIG1        0.0629
     41 H          12.3770    7.0164   -0.3771 H       1  LIG1        0.0833
     42 O           8.7521    4.9326   -1.6461 O.3     1  LIG1       -0.4792
     43 C           8.4000    6.0853   -2.4182 C.3     1  LIG1        0.0804
     44 H           7.4561    5.8279   -2.8990 H       1  LIG1        0.0660
     45 H           8.2755    6.9625   -1.7776 H       1  LIG1        0.0660
     46 H           9.1656    6.3059   -3.1671 H       1  LIG1        0.0660
     47 C          13.5462    5.1385    1.2663 C.3     1  LIG1       -0.0383
     48 H          14.0158    6.1171    1.1348 H       1  LIG1        0.0278
     49 H          14.2648    4.3793    0.9362 H       1  LIG1        0.0278
     50 H          13.3869    4.9874    2.3398 H       1  LIG1        0.0278
@<TRIPOS>BOND
     1    46    43    1
     2    44    43    1
     3    43    45    1
     4    43    42    1
     5    11    10    1
     6    10     1    1
     7    42    34    1
     8     5     2    1
     9    39    34   ar
    10    39    38   ar
    11    34    35   ar
    12     1     2   ar
    13     1     3   ar
    14     2     4   ar
    15    33    32    1
    16    41    38    1
    17    38    37   ar
    18    32    27    1
    19    35    28    1
    20    35    36   ar
    21    28    27   ar
    22    28    29   ar
    23    27    26   ar
    24    29    25   ar
    25    23    16    1
    26    26    31    1
    27    26    25   ar
    28    31    30    3
    29    25    20    1
    30    21    16   ar
    31    21    20   ar
    32    16    17   ar
    33    20    19   ar
    34     9     3    1
    35     3     6   ar
    36    19    24    1
    37    19    18   ar
    38    17     4    1
    39    17    18   ar
    40     4     7   ar
    41    18    22    1
    42    37    36   ar
    43    37    47    1
    44    36    40    1
    45    49    47    1
    46     6     7   ar
    47     6     8    1
    48     7    12    1
    49    48    47    1
    50    47    50    1
    51    14    12    1
    52    12    15    1
    53    12    13    1
