@<TRIPOS>MOLECULE
mol_data/opt/b3lyp/geoms/mol2/4fl.out
 17 17 0 0 0
SMALL
GASTEIGER

@<TRIPOS>ATOM
      1 C           0.0239   -0.0171    0.0005 C.ar    1  LIG1        0.1171
      2 C           1.4148   -0.0979    0.0001 C.ar    1  LIG1       -0.0167
      3 C          -0.5921    1.2416    0.0003 C.ar    1  LIG1       -0.0167
      4 C           2.1965    1.0638   -0.0004 C.ar    1  LIG1       -0.0165
      5 H           1.9045   -1.0695    0.0002 H       1  LIG1        0.0655
      6 C           0.1797    2.3943   -0.0002 C.ar    1  LIG1       -0.0165
      7 C           1.5807    2.3173   -0.0005 C.ar    1  LIG1        0.1203
      8 H          -0.2844    3.3750   -0.0003 H       1  LIG1        0.0655
      9 H           3.2755    0.9694   -0.0007 H       1  LIG1        0.0655
     10 H          -1.6757    1.2958    0.0006 H       1  LIG1        0.0655
     11 O          -0.7929   -1.1194    0.0009 O.3     1  LIG1       -0.5068
     12 H          -0.2453   -1.9150    0.0010 H       1  LIG1        0.2921
     13 O           2.2432    3.5173   -0.0010 O.3     1  LIG1       -0.4951
     14 C           3.6588    3.4932   -0.0014 C.3     1  LIG1        0.0788
     15 H           3.9801    4.5360   -0.0018 H       1  LIG1        0.0660
     16 H           4.0587    2.9947    0.8919 H       1  LIG1        0.0660
     17 H           4.0582    2.9943   -0.8948 H       1  LIG1        0.0660
@<TRIPOS>BOND
     1    17    14    1
     2    15    14    1
     3    14    13    1
     4    14    16    1
     5    13     7    1
     6     9     4    1
     7     7     4   ar
     8     7     6   ar
     9     4     2   ar
    10     8     6    1
    11     6     3   ar
    12     2     5    1
    13     2     1   ar
    14     3     1   ar
    15     3    10    1
    16     1    11    1
    17    11    12    1
