@<TRIPOS>MOLECULE
mol_data/opt/b3lyp/geoms/mol2/4fl12ia-6ld-4eh-.out
 55 58 0 0 0
SMALL
GASTEIGER

@<TRIPOS>ATOM
      1 C          -0.2662    0.4457   -0.5400 C.ar    1  LIG1        0.1178
      2 C           1.1021    0.5802   -0.7847 C.ar    1  LIG1       -0.0060
      3 C          -0.8213    1.0484    0.5874 C.ar    1  LIG1       -0.0167
      4 C           1.9350    1.2974    0.0863 C.ar    1  LIG1        0.0626
      5 H           1.5368    0.1463   -1.6815 H       1  LIG1        0.0662
      6 C          -0.0105    1.7685    1.4646 C.ar    1  LIG1       -0.0158
      7 C           1.3631    1.8960    1.2339 C.ar    1  LIG1        0.1310
      8 H          -0.4624    2.2216    2.3385 H       1  LIG1        0.0655
      9 H          -1.8861    0.9509    0.7698 H       1  LIG1        0.0655
     10 O          -1.1050   -0.2465   -1.3749 O.3     1  LIG1       -0.5067
     11 H          -0.5919   -0.6029   -2.1115 H       1  LIG1        0.2921
     12 O           2.2210    2.5513    2.0696 O.3     1  LIG1       -0.4944
     13 C           1.6931    3.1610    3.2344 C.3     1  LIG1        0.0788
     14 H           2.5420    3.6202    3.7426 H       1  LIG1        0.0660
     15 H           0.9575    3.9381    2.9888 H       1  LIG1        0.0660
     16 H           1.2266    2.4260    3.9037 H       1  LIG1        0.0660
     17 C           3.3705    1.3830   -0.2010 C.ar    1  LIG1        0.1422
     18 C           4.2991    0.4347   -0.5708 C.ar    1  LIG1       -0.0040
     19 C           5.5300    1.1415   -0.7292 C.ar    1  LIG1       -0.0122
     20 C           5.2806    2.4613   -0.4486 C.ar    1  LIG1        0.1411
     21 O           3.9646    2.6146   -0.1277 O.2     1  LIG1       -0.4543
     22 C           4.0949   -1.0413   -0.7439 C.3     1  LIG1       -0.0361
     23 H           4.8924   -1.6053   -0.2485 H       1  LIG1        0.0279
     24 H           4.1055   -1.3335   -1.8013 H       1  LIG1        0.0279
     25 H           3.1412   -1.3630   -0.3187 H       1  LIG1        0.0279
     26 H           6.4794    0.7191   -1.0283 H       1  LIG1        0.0658
     27 C           5.7547    4.9555   -0.6962 C.ar    1  LIG1        0.2260
     28 C           6.1648    3.6200   -0.4150 C.ar    1  LIG1        0.0800
     29 C           7.5196    3.4576   -0.1446 C.ar    1  LIG1       -0.0265
     30 C           8.4008    4.5530   -0.1364 C.ar    1  LIG1        0.0786
     31 C           7.8735    5.8365   -0.3787 C.ar    1  LIG1        0.0934
     32 N           6.5736    5.9989   -0.6712 N.ar    1  LIG1       -0.2110
     33 H           7.9068    2.4681    0.0721 H       1  LIG1        0.0640
     34 O           4.4671    5.1535   -1.0173 O.3     1  LIG1       -0.4792
     35 C           4.0511    6.4960   -1.2949 C.3     1  LIG1        0.0804
     36 H           2.9837    6.4231   -1.5038 H       1  LIG1        0.0660
     37 H           4.2320    7.1476   -0.4366 H       1  LIG1        0.0660
     38 H           4.5835    6.9020   -2.1592 H       1  LIG1        0.0660
     39 N          10.9266    4.0644    0.1906 N.1     1  LIG1       -0.1908
     40 C           9.7976    4.3152    0.0624 C.1     1  LIG1        0.1013
     41 C           9.4370    7.4943    0.7540 C.ar    1  LIG1        0.0340
     42 C          10.1931    8.6781    0.6521 C.ar    1  LIG1       -0.0440
     43 C           8.7071    7.0722   -0.3841 C.ar    1  LIG1        0.0188
     44 C          10.2307    9.4202   -0.5173 C.ar    1  LIG1       -0.0399
     45 H          10.7531    9.0109    1.5195 H       1  LIG1        0.0630
     46 C           8.7288    7.8396   -1.5487 C.ar    1  LIG1       -0.0307
     47 C           9.4917    9.0132   -1.6427 C.ar    1  LIG1        0.0252
     48 H           8.1402    7.5115   -2.4004 H       1  LIG1        0.0643
     49 H          10.8262   10.3282   -0.5635 H       1  LIG1        0.0636
     50 C           9.3876    6.8012    2.0011 C.1     1  LIG1       -0.0690
     51 C           9.3534    6.2548    3.0809 C.1     1  LIG1       -0.1139
     52 H           9.3360    5.7503    4.0187 H       1  LIG1        0.1232
     53 N           9.4732    9.7830   -2.8010 N.pl3   1  LIG1       -0.3579
     54 H          10.2694   10.3904   -2.9347 H       1  LIG1        0.1423
     55 H           9.2170    9.2942   -3.6472 H       1  LIG1        0.1423
@<TRIPOS>BOND
     1    55    53    1
     2    54    53    1
     3    53    47    1
     4    48    46    1
     5    38    35    1
     6    11    10    1
     7    24    22    1
     8     5     2    1
     9    47    46   ar
    10    47    44   ar
    11    46    43   ar
    12    36    35    1
    13    10     1    1
    14    35    34    1
    15    35    37    1
    16    26    19    1
    17    34    27    1
    18     2     1   ar
    19     2     4   ar
    20    22    18    1
    21    22    25    1
    22    22    23    1
    23    19    18   ar
    24    19    20   ar
    25    27    32   ar
    26    27    28   ar
    27    32    31   ar
    28    18    17   ar
    29    49    44    1
    30     1     3   ar
    31    44    42   ar
    32    20    28    1
    33    20    21   ar
    34    28    29   ar
    35    43    31    1
    36    43    41   ar
    37    31    30   ar
    38    17    21   ar
    39    17     4    1
    40    29    30   ar
    41    29    33    1
    42    30    40    1
    43    40    39    3
    44     4     7   ar
    45     3     9    1
    46     3     6   ar
    47    42    41   ar
    48    42    45    1
    49    41    50    1
    50     7     6   ar
    51     7    12    1
    52     6     8    1
    53    50    51    3
    54    12    13    1
    55    15    13    1
    56    51    52    1
    57    13    14    1
    58    13    16    1
