@<TRIPOS>MOLECULE
mol_data/opt/b3lyp/geoms/mol2/4fl13el-12ha-13fa-.out
 49 52 0 0 0
SMALL
GASTEIGER

@<TRIPOS>ATOM
      1 C          -0.2059    0.2380   -0.6312 C.ar    1  LIG1        0.1177
      2 C           1.1840    0.1531   -0.5992 C.ar    1  LIG1       -0.0075
      3 C          -0.8503    1.4434   -0.3326 C.ar    1  LIG1       -0.0167
      4 C           1.9844    1.2588   -0.2475 C.ar    1  LIG1        0.0447
      5 H           1.6679   -0.7831   -0.8560 H       1  LIG1        0.0662
      6 C          -0.0763    2.5472    0.0075 C.ar    1  LIG1       -0.0159
      7 C           1.3139    2.4671    0.0582 C.ar    1  LIG1        0.1294
      8 H          -0.5442    3.5005    0.2335 H       1  LIG1        0.0655
      9 H          -1.9320    1.4986   -0.3787 H       1  LIG1        0.0655
     10 O          -0.9934   -0.8285   -0.9685 O.3     1  LIG1       -0.5067
     11 H          -0.4268   -1.5891   -1.1528 H       1  LIG1        0.2921
     12 O           2.0281    3.6186    0.3971 O.3     1  LIG1       -0.4944
     13 C           2.1459    3.8254    1.8103 C.3     1  LIG1        0.0788
     14 H           2.6919    4.7616    1.9476 H       1  LIG1        0.0660
     15 H           1.1577    3.9095    2.2767 H       1  LIG1        0.0660
     16 H           2.6995    3.0074    2.2864 H       1  LIG1        0.0660
     17 C           3.4397    1.1397   -0.2370 C.ar    1  LIG1        0.0699
     18 C           4.2939    0.0184   -0.2236 C.ar    1  LIG1        0.0923
     19 C           5.6336    0.5175   -0.2438 C.ar    1  LIG1        0.1643
     20 C           5.5889    1.9106   -0.2758 C.ar    1  LIG1        0.1278
     21 N           4.2547    2.2454   -0.2726 N.ar    1  LIG1       -0.3477
     22 H           3.8852    3.1851   -0.2749 H       1  LIG1        0.1661
     23 C           3.9585   -1.3572   -0.1826 C.1     1  LIG1       -0.0638
     24 C           3.7221   -2.5461   -0.1423 C.1     1  LIG1       -0.1137
     25 H           3.5159   -3.5903   -0.1085 H       1  LIG1        0.1232
     26 O           6.7776   -0.2449   -0.2646 O.3     1  LIG1       -0.4916
     27 C           7.0857   -0.8848    0.9851 C.3     1  LIG1        0.0789
     28 H           7.9928   -1.4684    0.8152 H       1  LIG1        0.0660
     29 H           7.2701   -0.1392    1.7668 H       1  LIG1        0.0660
     30 H           6.2741   -1.5518    1.2897 H       1  LIG1        0.0660
     31 C           6.6011    2.9256   -0.3251 C.ar    1  LIG1        0.1760
     32 C           7.9822    2.9388   -0.4035 C.ar    1  LIG1        0.0732
     33 C           8.3762    4.3134   -0.4342 C.ar    1  LIG1        0.0072
     34 C           7.2281    5.0612   -0.3779 C.ar    1  LIG1        0.1572
     35 O           6.1363    4.2388   -0.3032 O.2     1  LIG1       -0.4497
     36 N           8.8449    1.8498   -0.3902 N.pl3   1  LIG1       -0.3550
     37 H           8.3887    0.9712   -0.6142 H       1  LIG1        0.1424
     38 H           9.6939    1.9958   -0.9196 H       1  LIG1        0.1424
     39 H           9.3806    4.7053   -0.4885 H       1  LIG1        0.0675
     40 C           6.9684    6.4702   -0.3835 C.ar    1  LIG1        0.1241
     41 C           7.8352    7.5595   -0.4084 C.ar    1  LIG1        0.1450
     42 C           7.0613    8.7474   -0.4064 C.ar    1  LIG1       -0.0021
     43 C           5.7327    8.3602   -0.3818 C.ar    1  LIG1        0.0058
     44 N           5.6858    6.9958   -0.3658 N.ar    1  LIG1       -0.3553
     45 H           4.8549    6.4274   -0.3696 H       1  LIG1        0.1655
     46 H           4.8318    8.9544   -0.3755 H       1  LIG1        0.0808
     47 O           9.1957    7.4217   -0.4300 O.3     1  LIG1       -0.5045
     48 H           9.5938    8.3006   -0.4311 H       1  LIG1        0.2922
     49 H           7.4304    9.7638   -0.4203 H       1  LIG1        0.0669
@<TRIPOS>BOND
     1    11    10    1
     2    10     1    1
     3    38    36    1
     4     5     2    1
     5     1     2   ar
     6     1     3   ar
     7    37    36    1
     8     2     4   ar
     9    39    33    1
    10    33    32   ar
    11    33    34   ar
    12    48    47    1
    13    47    41    1
    14    49    42    1
    15    41    42   ar
    16    41    40   ar
    17    42    43   ar
    18    32    36    1
    19    32    31   ar
    20    40    34    1
    21    40    44   ar
    22    43    46    1
    23    43    44   ar
    24     9     3    1
    25    34    35   ar
    26    45    44    1
    27     3     6   ar
    28    31    35   ar
    29    31    20    1
    30    20    21   ar
    31    20    19   ar
    32    22    21    1
    33    21    17   ar
    34    26    19    1
    35    26    27    1
    36     4    17    1
    37     4     7   ar
    38    19    18   ar
    39    17    18   ar
    40    18    23    1
    41    23    24    3
    42    24    25    1
    43     6     7   ar
    44     6     8    1
    45     7    12    1
    46    12    13    1
    47    28    27    1
    48    27    30    1
    49    27    29    1
    50    13    14    1
    51    13    15    1
    52    13    16    1
