@<TRIPOS>MOLECULE
mol_data/opt/b3lyp/geoms/mol2/4fl6hi-6dh-6ia.out
 55 58 0 0 0
SMALL
GASTEIGER

@<TRIPOS>ATOM
      1 C          -0.0509    0.1477   -1.0521 C.ar    1  LIG1        0.1177
      2 C           1.3329    0.2638   -0.9063 C.ar    1  LIG1       -0.0089
      3 C          -0.8746    1.1892   -0.6274 C.ar    1  LIG1       -0.0167
      4 C           1.9267    1.4042   -0.3452 C.ar    1  LIG1        0.0305
      5 H           1.9803   -0.5398   -1.2494 H       1  LIG1        0.0661
      6 C          -0.3090    2.3331   -0.0679 C.ar    1  LIG1       -0.0159
      7 C           1.0765    2.4488    0.0770 C.ar    1  LIG1        0.1281
      8 H          -0.9626    3.1327    0.2591 H       1  LIG1        0.0655
      9 H          -1.9492    1.0985   -0.7423 H       1  LIG1        0.0655
     10 O          -0.6481   -0.9545   -1.6042 O.3     1  LIG1       -0.5067
     11 H           0.0352   -1.5847   -1.8668 H       1  LIG1        0.2921
     12 O           1.6911    3.5525    0.6240 O.3     1  LIG1       -0.4945
     13 C           0.8848    4.5394    1.2539 C.3     1  LIG1        0.0788
     14 H           1.5795    5.2585    1.6897 H       1  LIG1        0.0660
     15 H           0.2345    5.0549    0.5358 H       1  LIG1        0.0660
     16 H           0.2684    4.1006    2.0474 H       1  LIG1        0.0660
     17 C           4.2654    2.4425   -0.6713 C.ar    1  LIG1        0.1247
     18 C           3.4055    1.4225   -0.1712 C.ar    1  LIG1        0.0255
     19 C           4.0305    0.3484    0.4594 C.ar    1  LIG1       -0.0457
     20 C           5.4219    0.2437    0.5896 C.ar    1  LIG1       -0.0237
     21 C           6.1639    1.2947    0.0246 C.ar    1  LIG1        0.0788
     22 N           5.5957    2.3516   -0.5728 N.ar    1  LIG1       -0.2315
     23 H           3.4045   -0.4307    0.8876 H       1  LIG1        0.0628
     24 N           3.7879    3.5457   -1.3497 N.pl3   1  LIG1       -0.3426
     25 H           4.5143    4.2387   -1.4812 H       1  LIG1        0.1437
     26 H           2.9294    3.9282   -0.9733 H       1  LIG1        0.1437
     27 C           6.0263   -0.9236    1.3365 C.3     1  LIG1       -0.0377
     28 H           6.9485   -0.6463    1.8528 H       1  LIG1        0.0278
     29 H           6.2666   -1.7649    0.6736 H       1  LIG1        0.0278
     30 H           5.3235   -1.3000    2.0859 H       1  LIG1        0.0278
     31 C           8.3557    2.4872    0.5029 C.ar    1  LIG1        0.1500
     32 C           7.6548    1.3444    0.0553 C.ar    1  LIG1        0.0383
     33 C           8.4271    0.2837   -0.4100 C.ar    1  LIG1       -0.0270
     34 C           9.8270    0.3536   -0.4255 C.ar    1  LIG1        0.0517
     35 C          10.4297    1.5445    0.0672 C.ar    1  LIG1        0.0947
     36 N           9.6940    2.5658    0.5055 N.ar    1  LIG1       -0.2338
     37 H           7.9361   -0.6046   -0.7971 H       1  LIG1        0.0644
     38 N           7.1740    4.5912    1.4828 N.1     1  LIG1       -0.1893
     39 C           7.6762    3.6463    1.0276 C.1     1  LIG1        0.1198
     40 N          10.5810   -0.7136   -0.8810 N.pl3   1  LIG1       -0.3563
     41 H          10.1066   -1.3630   -1.4923 H       1  LIG1        0.1424
     42 H          11.5256   -0.5015   -1.1703 H       1  LIG1        0.1424
     43 C          12.5730    2.8116   -0.4681 C.ar    1  LIG1        0.0474
     44 C          11.9131    1.7047    0.1225 C.ar    1  LIG1        0.0232
     45 C          12.6942    0.7624    0.8032 C.ar    1  LIG1       -0.0494
     46 C          14.0735    0.9346    0.8886 C.ar    1  LIG1       -0.0430
     47 C          14.6256    2.0566    0.2780 C.ar    1  LIG1        0.0279
     48 N          13.9035    2.9670   -0.3853 N.ar    1  LIG1       -0.2595
     49 H          12.2164   -0.0925    1.2731 H       1  LIG1        0.0625
     50 H          15.6985    2.2371    0.3180 H       1  LIG1        0.0829
     51 C          11.8332    3.8814   -1.2310 C.3     1  LIG1       -0.0217
     52 H          11.2217    4.4863   -0.5557 H       1  LIG1        0.0293
     53 H          11.1508    3.4525   -1.9724 H       1  LIG1        0.0293
     54 H          12.5590    4.5217   -1.7339 H       1  LIG1        0.0293
     55 H          14.6990    0.2240    1.4191 H       1  LIG1        0.0633
@<TRIPOS>BOND
     1    53    51    1
     2    11    10    1
     3    54    51    1
     4    10     1    1
     5    41    40    1
     6    25    24    1
     7    24    26    1
     8    24    17    1
     9     5     2    1
    10    51    52    1
    11    51    43    1
    12    42    40    1
    13     1     2   ar
    14     1     3   ar
    15     2     4   ar
    16    40    34    1
    17    37    33    1
    18     9     3    1
    19    17    22   ar
    20    17    18   ar
    21     3     6   ar
    22    22    21   ar
    23    43    48   ar
    24    43    44   ar
    25    34    33   ar
    26    34    35   ar
    27    33    32   ar
    28    48    47   ar
    29     4    18    1
    30     4     7   ar
    31    18    19   ar
    32     6     7   ar
    33     6     8    1
    34    21    32    1
    35    21    20   ar
    36    32    31   ar
    37    35    44    1
    38    35    36   ar
    39     7    12    1
    40    44    45   ar
    41    47    50    1
    42    47    46   ar
    43    19    20   ar
    44    19    23    1
    45    31    36   ar
    46    31    39    1
    47    15    13    1
    48    20    27    1
    49    12    13    1
    50    29    27    1
    51    45    46   ar
    52    45    49    1
    53    46    55    1
    54    39    38    3
    55    13    14    1
    56    13    16    1
    57    27    28    1
    58    27    30    1
