@<TRIPOS>MOLECULE
mol_data/opt/b3lyp/geoms/mol2/4ga.out
 13 13 0 0 0
SMALL
GASTEIGER

@<TRIPOS>ATOM
      1 C           0.1251    0.0985    0.0004 C.ar    1  LIG1        0.0047
      2 C           1.5253    0.0906   -0.0000 C.ar    1  LIG1       -0.0486
      3 C          -0.5584    1.3219    0.0003 C.ar    1  LIG1       -0.0486
      4 C           2.2293    1.2949   -0.0005 C.ar    1  LIG1       -0.0607
      5 H           2.0678   -0.8503    0.0000 H       1  LIG1        0.0628
      6 C           0.1545    2.5194   -0.0002 C.ar    1  LIG1       -0.0607
      7 C           1.5505    2.5136   -0.0005 C.ar    1  LIG1       -0.0617
      8 H          -0.3867    3.4611   -0.0002 H       1  LIG1        0.0618
      9 H           3.3154    1.2752   -0.0007 H       1  LIG1        0.0618
     10 H          -1.6444    1.3369    0.0006 H       1  LIG1        0.0628
     11 S          -0.8521   -1.4004    0.0009 S.3     1  LIG1       -0.1426
     12 H           0.1794   -2.2664    0.0010 H       1  LIG1        0.1071
     13 H           2.1025    3.4483   -0.0009 H       1  LIG1        0.0618
@<TRIPOS>BOND
     1    13     7    1
     2     9     4    1
     3     7     4   ar
     4     7     6   ar
     5     4     2   ar
     6     8     6    1
     7     6     3   ar
     8     2     5    1
     9     2     1   ar
    10     3     1   ar
    11     3    10    1
    12     1    11    1
    13    11    12    1
