@<TRIPOS>MOLECULE
mol_data/opt/b3lyp/geoms/mol2/4ga4ga4ga-4ga-.out
 46 49 0 0 0
SMALL
GASTEIGER

@<TRIPOS>ATOM
      1 C          -0.3020    0.3641    0.4989 C.ar    1  LIG1        0.0053
      2 C           1.0917    0.2462    0.4966 C.ar    1  LIG1       -0.0408
      3 C          -0.9063    1.4762   -0.1011 C.ar    1  LIG1       -0.0485
      4 C           1.8926    1.2252   -0.1100 C.ar    1  LIG1       -0.0158
      5 H           1.5667   -0.5998    0.9825 H       1  LIG1        0.0635
      6 C          -0.1127    2.4573   -0.6911 C.ar    1  LIG1       -0.0602
      7 C           1.2762    2.3388   -0.6995 C.ar    1  LIG1       -0.0539
      8 H          -0.5844    3.3171   -1.1577 H       1  LIG1        0.0618
      9 H          -1.9880    1.5712   -0.1091 H       1  LIG1        0.0628
     10 S          -1.3662   -0.8465    1.2739 S.3     1  LIG1       -0.1426
     11 H          -0.4141   -1.7680    1.5153 H       1  LIG1        0.1071
     12 H           1.8878    3.0978   -1.1768 H       1  LIG1        0.0624
     13 C           4.0822    0.0088   -0.6048 C.ar    1  LIG1        0.0130
     14 C           5.4803   -0.0242   -0.5428 C.ar    1  LIG1       -0.0402
     15 C           3.3790    1.1178   -0.0862 C.ar    1  LIG1       -0.0047
     16 C           6.2141    1.0259    0.0239 C.ar    1  LIG1       -0.0158
     17 H           6.0148   -0.8690   -0.9646 H       1  LIG1        0.0635
     18 C           4.1273    2.1701    0.4628 C.ar    1  LIG1       -0.0524
     19 C           5.5158    2.1355    0.5211 C.ar    1  LIG1       -0.0534
     20 H           3.5931    3.0224    0.8718 H       1  LIG1        0.0624
     21 S           3.1754   -1.3222   -1.3953 S.3     1  LIG1       -0.1420
     22 H           4.2662   -2.0034   -1.7968 H       1  LIG1        0.1071
     23 H           6.0624    2.9569    0.9731 H       1  LIG1        0.0624
     24 C           8.4460   -0.0541    0.6344 C.ar    1  LIG1        0.0130
     25 C           9.8453   -0.0115    0.6203 C.ar    1  LIG1       -0.0402
     26 C           7.7030    0.9973    0.0545 C.ar    1  LIG1       -0.0047
     27 C          10.5415    1.0591    0.0453 C.ar    1  LIG1       -0.0158
     28 H          10.4094   -0.8119    1.0880 H       1  LIG1        0.0635
     29 C           8.4134    2.0715   -0.5032 C.ar    1  LIG1       -0.0524
     30 C           9.8028    2.1125   -0.5118 C.ar    1  LIG1       -0.0534
     31 H           7.8495    2.8797   -0.9592 H       1  LIG1        0.0624
     32 S           7.5877   -1.4065    1.4429 S.3     1  LIG1       -0.1420
     33 H           8.7001   -2.0100    1.9045 H       1  LIG1        0.1071
     34 H          10.3203    2.9488   -0.9707 H       1  LIG1        0.0624
     35 C          12.8444    0.0896   -0.4692 C.ar    1  LIG1        0.0124
     36 C          14.2398    0.2066   -0.4051 C.ar    1  LIG1       -0.0480
     37 C          12.0306    1.1109    0.0683 C.ar    1  LIG1       -0.0047
     38 C          14.8365    1.3251    0.1709 C.ar    1  LIG1       -0.0607
     39 H          14.8660   -0.5794   -0.8167 H       1  LIG1        0.0629
     40 C          12.6583    2.2302    0.6381 C.ar    1  LIG1       -0.0530
     41 C          14.0444    2.3466    0.6938 C.ar    1  LIG1       -0.0611
     42 H          12.0318    3.0121    1.0569 H       1  LIG1        0.0624
     43 H          15.9196    1.3943    0.2071 H       1  LIG1        0.0618
     44 S          12.0820   -1.3248   -1.2697 S.3     1  LIG1       -0.1420
     45 H          13.2331   -1.8458   -1.7377 H       1  LIG1        0.1071
     46 H          14.4999    3.2221    1.1456 H       1  LIG1        0.0618
@<TRIPOS>BOND
     1    22    21    1
     2    45    44    1
     3    21    13    1
     4    44    35    1
     5    12     7    1
     6     8     6    1
     7    34    30    1
     8    17    14    1
     9    31    29    1
    10    39    36    1
    11     7     6   ar
    12     7     4   ar
    13     6     3   ar
    14    13    14   ar
    15    13    15   ar
    16    14    16   ar
    17    30    29   ar
    18    30    27   ar
    19    29    26   ar
    20    35    36   ar
    21    35    37   ar
    22    36    38   ar
    23     4    15    1
    24     4     2   ar
    25     9     3    1
    26     3     1   ar
    27    15    18   ar
    28    16    26    1
    29    16    19   ar
    30    27    37    1
    31    27    25   ar
    32    26    24   ar
    33    37    40   ar
    34    38    43    1
    35    38    41   ar
    36    18    19   ar
    37    18    20    1
    38     2     1   ar
    39     2     5    1
    40     1    10    1
    41    19    23    1
    42    25    24   ar
    43    25    28    1
    44    24    32    1
    45    40    41   ar
    46    40    42    1
    47    41    46    1
    48    10    11    1
    49    32    33    1
