@<TRIPOS>MOLECULE
mol_data/opt/b3lyp/geoms/mol2/4ga4ga4ga.out
 35 37 0 0 0
SMALL
GASTEIGER

@<TRIPOS>ATOM
      1 C          -0.1910    0.6167    0.7023 C.ar    1  LIG1        0.0053
      2 C           1.2031    0.5310    0.7771 C.ar    1  LIG1       -0.0408
      3 C          -0.7884    1.3126   -0.3561 C.ar    1  LIG1       -0.0485
      4 C           2.0115    1.1237   -0.2041 C.ar    1  LIG1       -0.0158
      5 H           1.6715    0.0188    1.6115 H       1  LIG1        0.0635
      6 C           0.0124    1.9162   -1.3232 C.ar    1  LIG1       -0.0602
      7 C           1.4015    1.8256   -1.2546 C.ar    1  LIG1       -0.0539
      8 H          -0.4540    2.4520   -2.1447 H       1  LIG1        0.0618
      9 H          -1.8700    1.3773   -0.4249 H       1  LIG1        0.0628
     10 S          -1.2644   -0.1066    1.9366 S.3     1  LIG1       -0.1426
     11 H          -0.3174   -0.8171    2.5785 H       1  LIG1        0.1071
     12 H           2.0186    2.2804   -2.0228 H       1  LIG1        0.0624
     13 C           4.2129   -0.1573   -0.0282 C.ar    1  LIG1        0.0130
     14 C           5.6102   -0.1405    0.0618 C.ar    1  LIG1       -0.0402
     15 C           3.4974    1.0566   -0.1124 C.ar    1  LIG1       -0.0047
     16 C           6.3320    1.0593    0.0466 C.ar    1  LIG1       -0.0158
     17 H           6.1513   -1.0765    0.1538 H       1  LIG1        0.0635
     18 C           4.2332    2.2517   -0.1208 C.ar    1  LIG1       -0.0524
     19 C           5.6210    2.2643   -0.0437 C.ar    1  LIG1       -0.0534
     20 H           3.6898    3.1899   -0.1819 H       1  LIG1        0.0624
     21 S           3.3276   -1.7180   -0.0686 S.3     1  LIG1       -0.1420
     22 H           4.4257   -2.4861   -0.2066 H       1  LIG1        0.1071
     23 H           6.1591    3.2066   -0.0636 H       1  LIG1        0.0624
     24 C           8.6662    0.3639   -0.7125 C.ar    1  LIG1        0.0124
     25 C          10.0549    0.4131   -0.5284 C.ar    1  LIG1       -0.0480
     26 C           7.8172    1.0662    0.1710 C.ar    1  LIG1       -0.0047
     27 C          10.6113    1.1579    0.5082 C.ar    1  LIG1       -0.0607
     28 H          10.7079   -0.1287   -1.2062 H       1  LIG1        0.0629
     29 C           8.4050    1.8137    1.2042 C.ar    1  LIG1       -0.0530
     30 C           9.7850    1.8664    1.3796 C.ar    1  LIG1       -0.0611
     31 H           7.7510    2.3485    1.8865 H       1  LIG1        0.0624
     32 H          11.6902    1.1827    0.6296 H       1  LIG1        0.0618
     33 S           7.9584   -0.5460   -2.0889 S.3     1  LIG1       -0.1420
     34 H           9.1372   -0.8357   -2.6735 H       1  LIG1        0.1071
     35 H          10.2092    2.4493    2.1910 H       1  LIG1        0.0618
@<TRIPOS>BOND
     1    34    33    1
     2     8     6    1
     3    33    24    1
     4    12     7    1
     5     6     7   ar
     6     6     3   ar
     7     7     4   ar
     8    28    25    1
     9    24    25   ar
    10    24    26   ar
    11    25    27   ar
    12     9     3    1
    13     3     1   ar
    14    22    21    1
    15     4    15    1
    16     4     2   ar
    17    20    18    1
    18    18    15   ar
    19    18    19   ar
    20    15    13   ar
    21    21    13    1
    22    23    19    1
    23    19    16   ar
    24    13    14   ar
    25    16    14   ar
    26    16    26    1
    27    14    17    1
    28    26    29   ar
    29    27    32    1
    30    27    30   ar
    31     1     2   ar
    32     1    10    1
    33     2     5    1
    34    29    30   ar
    35    29    31    1
    36    30    35    1
    37    10    11    1
