@<TRIPOS>MOLECULE
mol_data/opt/b3lyp/geoms/mol2/4ga4ga4ga4ga-.out
 46 49 0 0 0
SMALL
GASTEIGER

@<TRIPOS>ATOM
      1 C          -0.2638    0.6945    0.9146 C.ar    1  LIG1        0.0053
      2 C           1.1304    0.5820    0.9039 C.ar    1  LIG1       -0.0408
      3 C          -0.9120    1.4012   -0.1059 C.ar    1  LIG1       -0.0485
      4 C           1.8881    1.1571   -0.1272 C.ar    1  LIG1       -0.0158
      5 H           1.6390    0.0628    1.7097 H       1  LIG1        0.0635
      6 C          -0.1608    1.9888   -1.1216 C.ar    1  LIG1       -0.0602
      7 C           1.2278    1.8700   -1.1392 C.ar    1  LIG1       -0.0539
      8 H          -0.6664    2.5331   -1.9138 H       1  LIG1        0.0618
      9 H          -1.9944    1.4858   -0.1083 H       1  LIG1        0.0628
     10 S          -1.2718   -0.0049    2.2167 S.3     1  LIG1       -0.1426
     11 H          -0.3131   -0.7730    2.7687 H       1  LIG1        0.1071
     12 H           1.8048    2.3116   -1.9454 H       1  LIG1        0.0624
     13 C           4.0729   -0.1638   -0.0827 C.ar    1  LIG1        0.0130
     14 C           5.4730   -0.1723   -0.0780 C.ar    1  LIG1       -0.0402
     15 C           3.3752    1.0626   -0.1270 C.ar    1  LIG1       -0.0047
     16 C           6.2139    1.0147   -0.1396 C.ar    1  LIG1       -0.0158
     17 H           6.0019   -1.1176   -0.0169 H       1  LIG1        0.0635
     18 C           4.1301    2.2442   -0.1842 C.ar    1  LIG1       -0.0524
     19 C           5.5200    2.2321   -0.1909 C.ar    1  LIG1       -0.0534
     20 H           3.6007    3.1918   -0.2155 H       1  LIG1        0.0624
     21 S           3.1587   -1.7081   -0.0652 S.3     1  LIG1       -0.1420
     22 H           4.2341   -2.4977   -0.2523 H       1  LIG1        0.1071
     23 H           6.0724    3.1647   -0.2463 H       1  LIG1        0.0624
     24 C           8.4938    0.2722   -1.0185 C.ar    1  LIG1        0.0130
     25 C           9.8897    0.3029   -0.9152 C.ar    1  LIG1       -0.0402
     26 C           7.7029    0.9975   -0.1009 C.ar    1  LIG1       -0.0047
     27 C          10.5356    1.0443    0.0822 C.ar    1  LIG1       -0.0158
     28 H          10.4916   -0.2378   -1.6384 H       1  LIG1        0.0635
     29 C           8.3638    1.7494    0.8826 C.ar    1  LIG1       -0.0524
     30 C           9.7500    1.7800    0.9806 C.ar    1  LIG1       -0.0534
     31 H           7.7623    2.3029    1.5975 H       1  LIG1        0.0624
     32 S           7.7018   -0.6317   -2.3508 S.3     1  LIG1       -0.1420
     33 H           8.8464   -1.0062   -2.9543 H       1  LIG1        0.1071
     34 H          10.2278    2.3553    1.7670 H       1  LIG1        0.0624
     35 C          12.8294   -0.0545    0.2828 C.ar    1  LIG1        0.0124
     36 C          14.2235    0.0765    0.3476 C.ar    1  LIG1       -0.0480
     37 C          12.0229    1.0984    0.1611 C.ar    1  LIG1       -0.0047
     38 C          14.8252    1.3316    0.3068 C.ar    1  LIG1       -0.0607
     39 H          14.8443   -0.8098    0.4394 H       1  LIG1        0.0629
     40 C          12.6552    2.3517    0.1275 C.ar    1  LIG1       -0.0530
     41 C          14.0396    2.4786    0.1992 C.ar    1  LIG1       -0.0611
     42 H          12.0343    3.2371    0.0279 H       1  LIG1        0.0624
     43 H          15.9071    1.4079    0.3607 H       1  LIG1        0.0618
     44 S          12.0570   -1.6705    0.3992 S.3     1  LIG1       -0.1420
     45 H          13.1939   -2.3375    0.6785 H       1  LIG1        0.1071
     46 H          14.4991    3.4613    0.1654 H       1  LIG1        0.0618
@<TRIPOS>BOND
     1    33    32    1
     2    32    24    1
     3    12     7    1
     4     8     6    1
     5    28    25    1
     6     7     6   ar
     7     7     4   ar
     8     6     3   ar
     9    24    25   ar
    10    24    26   ar
    11    25    27   ar
    12    22    21    1
    13    23    19    1
    14    20    18    1
    15    19    18   ar
    16    19    16   ar
    17    18    15   ar
    18    16    26    1
    19    16    14   ar
    20     4    15    1
    21     4     2   ar
    22    15    13   ar
    23     9     3    1
    24     3     1   ar
    25    26    29   ar
    26    13    14   ar
    27    13    21    1
    28    14    17    1
    29    42    40    1
    30    27    37    1
    31    27    30   ar
    32    40    37   ar
    33    40    41   ar
    34    37    35   ar
    35    46    41    1
    36    41    38   ar
    37    35    36   ar
    38    35    44    1
    39    38    36   ar
    40    38    43    1
    41    36    39    1
    42    44    45    1
    43    29    30   ar
    44    29    31    1
    45     2     1   ar
    46     2     5    1
    47     1    10    1
    48    30    34    1
    49    10    11    1
