@<TRIPOS>MOLECULE
mol_data/opt/b3lyp/geoms/mol2/4ga4ga-.out
 24 25 0 0 0
SMALL
GASTEIGER

@<TRIPOS>ATOM
      1 C          -0.0495    0.2297   -0.4212 C.ar    1  LIG1        0.0053
      2 C           1.3464    0.1799   -0.4939 C.ar    1  LIG1       -0.0408
      3 C          -0.6744    1.3149    0.2059 C.ar    1  LIG1       -0.0485
      4 C           2.1302    1.1991    0.0671 C.ar    1  LIG1       -0.0158
      5 H           1.8349   -0.6442   -1.0037 H       1  LIG1        0.0635
      6 C           0.1009    2.3371    0.7487 C.ar    1  LIG1       -0.0602
      7 C           1.4924    2.2852    0.6845 C.ar    1  LIG1       -0.0539
      8 H          -0.3865    3.1760    1.2367 H       1  LIG1        0.0618
      9 H          -1.7574    1.3565    0.2727 H       1  LIG1        0.0628
     10 S          -1.0929   -1.0354   -1.1357 S.3     1  LIG1       -0.1426
     11 H          -0.1165   -1.9295   -1.3827 H       1  LIG1        0.1071
     12 H           2.0911    3.0751    1.1266 H       1  LIG1        0.0624
     13 C           4.3950    0.0903    0.4570 C.ar    1  LIG1        0.0124
     14 C           5.7900    0.1246    0.3232 C.ar    1  LIG1       -0.0480
     15 C           3.6178    1.1624   -0.0331 C.ar    1  LIG1       -0.0047
     16 C           6.4227    1.2099   -0.2774 C.ar    1  LIG1       -0.0607
     17 H           6.3878   -0.7006    0.6990 H       1  LIG1        0.0629
     18 C           4.2816    2.2463   -0.6297 C.ar    1  LIG1       -0.0530
     19 C           5.6676    2.2803   -0.7553 C.ar    1  LIG1       -0.0611
     20 H           3.6822    3.0671   -1.0122 H       1  LIG1        0.0624
     21 H           7.5048    1.2149   -0.3683 H       1  LIG1        0.0618
     22 S           3.5893   -1.2836    1.2853 S.3     1  LIG1       -0.1420
     23 H           4.7290   -1.8803    1.6860 H       1  LIG1        0.1071
     24 H           6.1514    3.1303   -1.2262 H       1  LIG1        0.0618
@<TRIPOS>BOND
     1    11    10    1
     2    24    19    1
     3    10     1    1
     4    20    18    1
     5     5     2    1
     6    19    18   ar
     7    19    16   ar
     8    18    15   ar
     9     2     1   ar
    10     2     4   ar
    11     1     3   ar
    12    21    16    1
    13    16    14   ar
    14    15     4    1
    15    15    13   ar
    16     4     7   ar
    17     3     9    1
    18     3     6   ar
    19    14    13   ar
    20    14    17    1
    21    13    22    1
    22     7     6   ar
    23     7    12    1
    24     6     8    1
    25    22    23    1
