@<TRIPOS>MOLECULE
mol_data/opt/b3lyp/geoms/mol2/4ga4ga-4ga-.out
 35 37 0 0 0
SMALL
GASTEIGER

@<TRIPOS>ATOM
      1 C          -0.1584    0.1830   -0.4030 C.ar    1  LIG1        0.0053
      2 C           1.2377    0.1041   -0.3700 C.ar    1  LIG1       -0.0408
      3 C          -0.7966    1.3704   -0.0225 C.ar    1  LIG1       -0.0485
      4 C           2.0074    1.1986    0.0514 C.ar    1  LIG1       -0.0158
      5 H           1.7386   -0.8040   -0.6893 H       1  LIG1        0.0635
      6 C          -0.0341    2.4639    0.3816 C.ar    1  LIG1       -0.0602
      7 C           1.3570    2.3852    0.4213 C.ar    1  LIG1       -0.0539
      8 H          -0.5321    3.3823    0.6783 H       1  LIG1        0.0618
      9 H          -1.8802    1.4367   -0.0394 H       1  LIG1        0.0628
     10 S          -1.1837   -1.1773   -0.9481 S.3     1  LIG1       -0.1426
     11 H          -0.2068   -2.1024   -1.0075 H       1  LIG1        0.1071
     12 H           1.9443    3.2349    0.7547 H       1  LIG1        0.0624
     13 C           4.2208    0.1511    0.7745 C.ar    1  LIG1        0.0130
     14 C           5.6202    0.1471    0.7316 C.ar    1  LIG1       -0.0402
     15 C           3.4961    1.1283    0.0586 C.ar    1  LIG1       -0.0047
     16 C           6.3342    1.0979   -0.0086 C.ar    1  LIG1       -0.0158
     17 H           6.1706   -0.5920    1.3046 H       1  LIG1        0.0635
     18 C           4.2245    2.0843   -0.6657 C.ar    1  LIG1       -0.0524
     19 C           5.6142    2.0789   -0.7047 C.ar    1  LIG1       -0.0534
     20 H           3.6742    2.8336   -1.2267 H       1  LIG1        0.0624
     21 S           3.3394   -1.0411    1.7855 S.3     1  LIG1       -0.1420
     22 H           4.4428   -1.6107    2.3082 H       1  LIG1        0.1071
     23 H           6.1454    2.8207   -1.2924 H       1  LIG1        0.0624
     24 C           8.5985   -0.0067   -0.4124 C.ar    1  LIG1        0.0124
     25 C           9.9977    0.0762   -0.3894 C.ar    1  LIG1       -0.0480
     26 C           7.8246    1.1067   -0.0176 C.ar    1  LIG1       -0.0047
     27 C          10.6368    1.2483    0.0060 C.ar    1  LIG1       -0.0607
     28 H          10.5931   -0.7803   -0.6914 H       1  LIG1        0.0629
     29 C           8.4947    2.2777    0.3712 C.ar    1  LIG1       -0.0530
     30 C           9.8843    2.3589    0.3863 C.ar    1  LIG1       -0.0611
     31 H           7.8986    3.1312    0.6803 H       1  LIG1        0.0624
     32 H          11.7220    1.2892    0.0138 H       1  LIG1        0.0618
     33 S           7.7808   -1.4992   -0.9824 S.3     1  LIG1       -0.1420
     34 H           8.9073   -2.1183   -1.3864 H       1  LIG1        0.1071
     35 H          10.3731    3.2768    0.6970 H       1  LIG1        0.0618
@<TRIPOS>BOND
     1    34    33    1
     2    23    19    1
     3    20    18    1
     4    11    10    1
     5    33    24    1
     6    10     1    1
     7    19    18   ar
     8    19    16   ar
     9    28    25    1
    10     5     2    1
    11    18    15   ar
    12    24    25   ar
    13    24    26   ar
    14     1     2   ar
    15     1     3   ar
    16    25    27   ar
    17     2     4   ar
    18     9     3    1
    19     3     6   ar
    20    26    16    1
    21    26    29   ar
    22    16    14   ar
    23    27    32    1
    24    27    30   ar
    25     4    15    1
    26     4     7   ar
    27    15    13   ar
    28    29    30   ar
    29    29    31    1
    30     6     7   ar
    31     6     8    1
    32    30    35    1
    33     7    12    1
    34    14    13   ar
    35    14    17    1
    36    13    21    1
    37    21    22    1
