@<TRIPOS>MOLECULE
mol_data/opt/b3lyp/geoms/mol2/4ga4ga-4ga-4ga-.out
 46 49 0 0 0
SMALL
GASTEIGER

@<TRIPOS>ATOM
      1 C          -0.2982    0.1806   -0.2354 C.ar    1  LIG1        0.0053
      2 C           1.0939    0.0792   -0.1460 C.ar    1  LIG1       -0.0408
      3 C          -0.9018    1.4439   -0.2765 C.ar    1  LIG1       -0.0485
      4 C           1.8938    1.2302   -0.0850 C.ar    1  LIG1       -0.0158
      5 H           1.5689   -0.8963   -0.1412 H       1  LIG1        0.0635
      6 C          -0.1091    2.5884   -0.2317 C.ar    1  LIG1       -0.0602
      7 C           1.2780    2.4897   -0.1358 C.ar    1  LIG1       -0.0539
      8 H          -0.5804    3.5664   -0.2614 H       1  LIG1        0.0618
      9 H          -1.9823    1.5304   -0.3399 H       1  LIG1        0.0628
     10 S          -1.3607   -1.2550   -0.3304 S.3     1  LIG1       -0.1426
     11 H          -0.4111   -2.1756   -0.0768 H       1  LIG1        0.1071
     12 H           1.8884    3.3855   -0.0827 H       1  LIG1        0.0624
     13 C           4.0611    0.4072    0.9859 C.ar    1  LIG1        0.0130
     14 C           5.4599    0.3504    0.9783 C.ar    1  LIG1       -0.0402
     15 C           3.3792    1.1262   -0.0197 C.ar    1  LIG1       -0.0047
     16 C           6.2151    0.9982   -0.0075 C.ar    1  LIG1       -0.0158
     17 H           5.9775   -0.1841    1.7682 H       1  LIG1        0.0635
     18 C           4.1490    1.7833   -0.9917 C.ar    1  LIG1       -0.0524
     19 C           5.5380    1.7285   -0.9943 C.ar    1  LIG1       -0.0534
     20 H           3.6315    2.3299   -1.7743 H       1  LIG1        0.0624
     21 S           3.1275   -0.3758    2.3028 S.3     1  LIG1       -0.1420
     22 H           4.2041   -0.7800    3.0046 H       1  LIG1        0.1071
     23 H           6.1013    2.2305   -1.7744 H       1  LIG1        0.0624
     24 C           8.4476   -0.2395    0.0185 C.ar    1  LIG1        0.0130
     25 C           9.8468   -0.1944    0.0469 C.ar    1  LIG1       -0.0402
     26 C           7.7039    0.9603    0.0144 C.ar    1  LIG1       -0.0047
     27 C          10.5418    1.0212    0.0488 C.ar    1  LIG1       -0.0158
     28 H          10.4111   -1.1208    0.0763 H       1  LIG1        0.0635
     29 C           8.4132    2.1714    0.0199 C.ar    1  LIG1       -0.0524
     30 C           9.8024    2.2124    0.0371 C.ar    1  LIG1       -0.0534
     31 H           7.8481    3.0987    0.0194 H       1  LIG1        0.0624
     32 S           7.5936   -1.8164   -0.0448 S.3     1  LIG1       -0.1420
     33 H           8.7005   -2.5551   -0.2548 H       1  LIG1        0.1071
     34 H          10.3196    3.1666    0.0314 H       1  LIG1        0.0624
     35 C          12.8561    0.4203   -0.8409 C.ar    1  LIG1        0.0124
     36 C          14.2499    0.4956   -0.7135 C.ar    1  LIG1       -0.0480
     37 C          12.0306    1.0579    0.1110 C.ar    1  LIG1       -0.0047
     38 C          14.8333    1.2026    0.3348 C.ar    1  LIG1       -0.0607
     39 H          14.8854    0.0045   -1.4445 H       1  LIG1        0.0629
     40 C          12.6448    1.7691    1.1542 C.ar    1  LIG1       -0.0530
     41 C          14.0295    1.8472    1.2743 C.ar    1  LIG1       -0.0611
     42 H          12.0084    2.2545    1.8882 H       1  LIG1        0.0624
     43 H          15.9156    1.2483    0.4118 H       1  LIG1        0.0618
     44 S          12.1091   -0.4391   -2.2284 S.3     1  LIG1       -0.1420
     45 H          13.2681   -0.6836   -2.8703 H       1  LIG1        0.1071
     46 H          14.4750    2.4005    2.0950 H       1  LIG1        0.0618
@<TRIPOS>BOND
     1    45    44    1
     2    44    35    1
     3    23    19    1
     4    20    18    1
     5    39    36    1
     6    19    18   ar
     7    19    16   ar
     8    18    15   ar
     9    35    36   ar
    10    35    37   ar
    11    36    38   ar
    12     9     3    1
    13    10     1    1
    14    10    11    1
    15     3     1   ar
    16     3     6   ar
    17     8     6    1
    18    33    32    1
    19     1     2   ar
    20     6     7   ar
    21     2     5    1
    22     2     4   ar
    23     7     4   ar
    24     7    12    1
    25     4    15    1
    26    32    24    1
    27    15    13   ar
    28    16    26    1
    29    16    14   ar
    30    26    24   ar
    31    26    29   ar
    32    24    25   ar
    33    31    29    1
    34    29    30   ar
    35    34    30    1
    36    30    27   ar
    37    25    27   ar
    38    25    28    1
    39    27    37    1
    40    37    40   ar
    41    38    43    1
    42    38    41   ar
    43    14    13   ar
    44    14    17    1
    45    13    21    1
    46    40    41   ar
    47    40    42    1
    48    41    46    1
    49    21    22    1
