@<TRIPOS>MOLECULE
mol_data/opt/b3lyp/geoms/mol2/4ga4ga.out
 24 25 0 0 0
SMALL
GASTEIGER

@<TRIPOS>ATOM
      1 C          -0.0500    0.2348    0.4279 C.ar    1  LIG1        0.0053
      2 C           1.3459    0.1859    0.5029 C.ar    1  LIG1       -0.0408
      3 C          -0.6741    1.3126   -0.2127 C.ar    1  LIG1       -0.0485
      4 C           2.1304    1.1985   -0.0688 C.ar    1  LIG1       -0.0158
      5 H           1.8337   -0.6322    1.0230 H       1  LIG1        0.0635
      6 C           0.1020    2.3285   -0.7663 C.ar    1  LIG1       -0.0602
      7 C           1.4934    2.2774   -0.6997 C.ar    1  LIG1       -0.0539
      8 H          -0.3848    3.1616   -1.2647 H       1  LIG1        0.0618
      9 H          -1.7570    1.3535   -0.2814 H       1  LIG1        0.0628
     10 S          -1.0941   -1.0220    1.1559 S.3     1  LIG1       -0.1426
     11 H          -0.1181   -1.9135    1.4135 H       1  LIG1        0.1071
     12 H           2.0926    3.0621   -1.1501 H       1  LIG1        0.0624
     13 C           4.3955    0.0850   -0.4424 C.ar    1  LIG1        0.0124
     14 C           5.7902    0.1207   -0.3070 C.ar    1  LIG1       -0.0480
     15 C           3.6176    1.1630    0.0340 C.ar    1  LIG1       -0.0047
     16 C           6.4222    1.2129    0.2818 C.ar    1  LIG1       -0.0607
     17 H           6.3885   -0.7088   -0.6725 H       1  LIG1        0.0629
     18 C           4.2807    2.2535    0.6188 C.ar    1  LIG1       -0.0530
     19 C           5.6667    2.2889    0.7461 C.ar    1  LIG1       -0.0611
     20 H           3.6810    3.0789    0.9908 H       1  LIG1        0.0624
     21 H           7.5043    1.2187    0.3742 H       1  LIG1        0.0618
     22 S           3.5906   -1.2980   -1.2559 S.3     1  LIG1       -0.1420
     23 H           4.7307   -1.9005   -1.6465 H       1  LIG1        0.1071
     24 H           6.1498    3.1442    1.2078 H       1  LIG1        0.0618
@<TRIPOS>BOND
     1    23    22    1
     2     8     6    1
     3    22    13    1
     4    12     7    1
     5     6     7   ar
     6     6     3   ar
     7     7     4   ar
     8    17    14    1
     9    13    14   ar
    10    13    15   ar
    11    14    16   ar
    12     9     3    1
    13     3     1   ar
    14     4    15    1
    15     4     2   ar
    16    15    18   ar
    17    16    21    1
    18    16    19   ar
    19     1     2   ar
    20     1    10    1
    21     2     5    1
    22    18    19   ar
    23    18    20    1
    24    19    24    1
    25    10    11    1
