@<TRIPOS>MOLECULE
mol_data/opt/b3lyp/geoms/mol2/4ga4ga4ga-.out
 35 37 0 0 0
SMALL
GASTEIGER

@<TRIPOS>ATOM
      1 C          -0.1591    0.2079    0.4466 C.ar    1  LIG1        0.0053
      2 C           1.2363    0.1226    0.4069 C.ar    1  LIG1       -0.0408
      3 C          -0.7944    1.3936    0.0562 C.ar    1  LIG1       -0.0485
      4 C           2.0084    1.2089   -0.0310 C.ar    1  LIG1       -0.0158
      5 H           1.7351   -0.7840    0.7337 H       1  LIG1        0.0635
      6 C          -0.0295    2.4793   -0.3642 C.ar    1  LIG1       -0.0602
      7 C           1.3610    2.3942   -0.4107 C.ar    1  LIG1       -0.0539
      8 H          -0.5253    3.3964   -0.6686 H       1  LIG1        0.0618
      9 H          -1.8777    1.4647    0.0781 H       1  LIG1        0.0628
     10 S          -1.1872   -1.1419    1.0128 S.3     1  LIG1       -0.1426
     11 H          -0.2147   -2.0714    1.0732 H       1  LIG1        0.1071
     12 H           1.9501    3.2374   -0.7568 H       1  LIG1        0.0624
     13 C           4.2136    0.1446   -0.7549 C.ar    1  LIG1        0.0130
     14 C           5.6132    0.1358   -0.7200 C.ar    1  LIG1       -0.0402
     15 C           3.4968    1.1325   -0.0457 C.ar    1  LIG1       -0.0047
     16 C           6.3351    1.0919    0.0056 C.ar    1  LIG1       -0.0158
     17 H           6.1575   -0.6117   -1.2879 H       1  LIG1        0.0635
     18 C           4.2330    2.0935    0.6639 C.ar    1  LIG1       -0.0524
     19 C           5.6228    2.0831    0.6951 C.ar    1  LIG1       -0.0534
     20 H           3.6886    2.8510    1.2198 H       1  LIG1        0.0624
     21 S           3.3222   -1.0553   -1.7474 S.3     1  LIG1       -0.1420
     22 H           4.4205   -1.6376   -2.2667 H       1  LIG1        0.1071
     23 H           6.1602    2.8293    1.2716 H       1  LIG1        0.0624
     24 C           8.5976   -0.0163    0.4095 C.ar    1  LIG1        0.0124
     25 C           9.9969    0.0611    0.3778 C.ar    1  LIG1       -0.0480
     26 C           7.8255    1.0951    0.0059 C.ar    1  LIG1       -0.0047
     27 C          10.6381    1.2260   -0.0354 C.ar    1  LIG1       -0.0607
     28 H          10.5910   -0.7939    0.6868 H       1  LIG1        0.0629
     29 C           8.4976    2.2589   -0.4007 C.ar    1  LIG1       -0.0530
     30 C           9.8874    2.3347   -0.4247 C.ar    1  LIG1       -0.0611
     31 H           7.9029    3.1109   -0.7166 H       1  LIG1        0.0624
     32 H          11.7233    1.2627   -0.0497 H       1  LIG1        0.0618
     33 S           7.7776   -1.4989    1.0019 S.3     1  LIG1       -0.1420
     34 H           8.9046   -2.1196    1.4019 H       1  LIG1        0.1071
     35 H          10.3779    3.2470   -0.7491 H       1  LIG1        0.0618
@<TRIPOS>BOND
     1    22    21    1
     2    21    13    1
     3    17    14    1
     4    12     7    1
     5    13    14   ar
     6    13    15   ar
     7    35    30    1
     8    14    16   ar
     9    31    29    1
    10     8     6    1
    11    30    29   ar
    12    30    27   ar
    13     7     6   ar
    14     7     4   ar
    15    29    26   ar
    16     6     3   ar
    17    32    27    1
    18    15     4    1
    19    15    18   ar
    20    27    25   ar
    21     4     2   ar
    22    16    26    1
    23    16    19   ar
    24    26    24   ar
    25     3     9    1
    26     3     1   ar
    27    25    24   ar
    28    25    28    1
    29     2     1   ar
    30     2     5    1
    31    24    33    1
    32     1    10    1
    33    18    19   ar
    34    18    20    1
    35    19    23    1
    36    33    34    1
    37    10    11    1
