@<TRIPOS>MOLECULE
mol_data/opt/b3lyp/geoms/mol2/4ga4ga-4ga4ga.out
 46 49 0 0 0
SMALL
GASTEIGER

@<TRIPOS>ATOM
      1 C          -0.3010    0.3577   -0.4949 C.ar    1  LIG1        0.0053
      2 C           1.0927    0.2406   -0.4904 C.ar    1  LIG1       -0.0408
      3 C          -0.9069    1.4713    0.1005 C.ar    1  LIG1       -0.0485
      4 C           1.8922    1.2222    0.1140 C.ar    1  LIG1       -0.0158
      5 H           1.5689   -0.6067   -0.9728 H       1  LIG1        0.0635
      6 C          -0.1147    2.4549    0.6884 C.ar    1  LIG1       -0.0602
      7 C           1.2742    2.3374    0.6990 C.ar    1  LIG1       -0.0539
      8 H          -0.5876    3.3159    1.1515 H       1  LIG1        0.0618
      9 H          -1.9886    1.5656    0.1068 H       1  LIG1        0.0628
     10 S          -1.3633   -0.8563   -1.2673 S.3     1  LIG1       -0.1426
     11 H          -0.4102   -1.7776   -1.5050 H       1  LIG1        0.1071
     12 H           1.8847    3.0983    1.1745 H       1  LIG1        0.0624
     13 C           4.0820    0.0091    0.6160 C.ar    1  LIG1        0.0130
     14 C           5.4802   -0.0231    0.5561 C.ar    1  LIG1       -0.0402
     15 C           3.3788    1.1158    0.0926 C.ar    1  LIG1       -0.0047
     16 C           6.2141    1.0254   -0.0132 C.ar    1  LIG1       -0.0158
     17 H           6.0147   -0.8661    0.9815 H       1  LIG1        0.0635
     18 C           4.1271    2.1666   -0.4590 C.ar    1  LIG1       -0.0524
     19 C           5.5157    2.1328   -0.5153 C.ar    1  LIG1       -0.0534
     20 H           3.5929    3.0172   -0.8717 H       1  LIG1        0.0624
     21 S           3.1751   -1.3199    1.4097 S.3     1  LIG1       -0.1420
     22 H           4.2657   -1.9987    1.8155 H       1  LIG1        0.1071
     23 H           6.0623    2.9531   -0.9694 H       1  LIG1        0.0624
     24 C           8.4476   -0.0550   -0.6172 C.ar    1  LIG1        0.0130
     25 C           9.8468   -0.0115   -0.6013 C.ar    1  LIG1       -0.0402
     26 C           7.7030    0.9978   -0.0418 C.ar    1  LIG1       -0.0047
     27 C          10.5415    1.0616   -0.0290 C.ar    1  LIG1       -0.0158
     28 H          10.4120   -0.8130   -1.0656 H       1  LIG1        0.0635
     29 C           8.4120    2.0743    0.5134 C.ar    1  LIG1       -0.0524
     30 C           9.8013    2.1162    0.5237 C.ar    1  LIG1       -0.0534
     31 H           7.8469    2.8836    0.9659 H       1  LIG1        0.0624
     32 S           7.5913   -1.4107   -1.4222 S.3     1  LIG1       -0.1420
     33 H           8.7047   -2.0149   -1.8804 H       1  LIG1        0.1071
     34 H          10.3176    2.9544    0.9805 H       1  LIG1        0.0624
     35 C          12.8442    0.0952    0.4922 C.ar    1  LIG1        0.0124
     36 C          14.2396    0.2128    0.4296 C.ar    1  LIG1       -0.0480
     37 C          12.0305    1.1142   -0.0500 C.ar    1  LIG1       -0.0047
     38 C          14.8365    1.3296   -0.1494 C.ar    1  LIG1       -0.0607
     39 H          14.8656   -0.5715    0.8448 H       1  LIG1        0.0629
     40 C          12.6585    2.2318   -0.6229 C.ar    1  LIG1       -0.0530
     41 C          14.0446    2.3488   -0.6770 C.ar    1  LIG1       -0.0611
     42 H          12.0321    3.0119   -1.0453 H       1  LIG1        0.0624
     43 H          15.9196    1.3993   -0.1843 H       1  LIG1        0.0618
     44 S          12.0814   -1.3169    1.2965 S.3     1  LIG1       -0.1420
     45 H          13.2320   -1.8349    1.7691 H       1  LIG1        0.1071
     46 H          14.5002    3.2230   -1.1313 H       1  LIG1        0.0618
@<TRIPOS>BOND
     1    33    32    1
     2    11    10    1
     3    32    24    1
     4    10     1    1
     5    46    41    1
     6    28    25    1
     7    42    40    1
     8     5     2    1
     9    23    19    1
    10    20    18    1
    11    41    40   ar
    12    41    38   ar
    13    40    37   ar
    14    24    25   ar
    15    24    26   ar
    16    25    27   ar
    17    19    18   ar
    18    19    16   ar
    19     1     2   ar
    20     1     3   ar
    21     2     4   ar
    22    18    15   ar
    23    43    38    1
    24    38    36   ar
    25    37    27    1
    26    37    35   ar
    27    26    16    1
    28    26    29   ar
    29    27    30   ar
    30    16    14   ar
    31    15     4    1
    32    15    13   ar
    33     3     9    1
    34     3     6   ar
    35     4     7   ar
    36    36    35   ar
    37    36    39    1
    38    35    44    1
    39    29    30   ar
    40    29    31    1
    41    30    34    1
    42    14    13   ar
    43    14    17    1
    44    13    21    1
    45     6     7   ar
    46     6     8    1
    47     7    12    1
    48    44    45    1
    49    21    22    1
