@<TRIPOS>MOLECULE
mol_data/opt/b3lyp/geoms/mol2/4ga4ga4ga-4ga.out
 46 49 0 0 0
SMALL
GASTEIGER

@<TRIPOS>ATOM
      1 C          -0.3027    0.3638    0.4873 C.ar    1  LIG1        0.0053
      2 C           1.0909    0.2449    0.4845 C.ar    1  LIG1       -0.0408
      3 C          -0.9058    1.4838   -0.0989 C.ar    1  LIG1       -0.0485
      4 C           1.8930    1.2309   -0.1091 C.ar    1  LIG1       -0.0158
      5 H           1.5650   -0.6076    0.9600 H       1  LIG1        0.0635
      6 C          -0.1111    2.4718   -0.6758 C.ar    1  LIG1       -0.0602
      7 C           1.2777    2.3524   -0.6849 C.ar    1  LIG1       -0.0539
      8 H          -0.5819    3.3378   -1.1318 H       1  LIG1        0.0618
      9 H          -1.9874    1.5797   -0.1064 H       1  LIG1        0.0628
     10 S          -1.3682   -0.8559    1.2463 S.3     1  LIG1       -0.1426
     11 H          -0.4171   -1.7812    1.4761 H       1  LIG1        0.1071
     12 H           1.8902    3.1169   -1.1521 H       1  LIG1        0.0624
     13 C           4.0819    0.0193   -0.6181 C.ar    1  LIG1        0.0130
     14 C           5.4800   -0.0156   -0.5558 C.ar    1  LIG1       -0.0402
     15 C           3.3793    1.1221   -0.0858 C.ar    1  LIG1       -0.0047
     16 C           6.2143    1.0266    0.0247 C.ar    1  LIG1       -0.0158
     17 H           6.0140   -0.8553   -0.9880 H       1  LIG1        0.0635
     18 C           4.1281    2.1667    0.4770 C.ar    1  LIG1       -0.0524
     19 C           5.5165    2.1302    0.5357 C.ar    1  LIG1       -0.0534
     20 H           3.5944    3.0142    0.8966 H       1  LIG1        0.0624
     21 S           3.1746   -1.3009   -1.4261 S.3     1  LIG1       -0.1420
     22 H           4.2650   -1.9780   -1.8352 H       1  LIG1        0.1071
     23 H           6.0635    2.9455    0.9985 H       1  LIG1        0.0624
     24 C           8.4448   -0.0630    0.6229 C.ar    1  LIG1        0.0130
     25 C           9.8442   -0.0216    0.6100 C.ar    1  LIG1       -0.0402
     26 C           7.7031    0.9963    0.0558 C.ar    1  LIG1       -0.0047
     27 C          10.5416    1.0555    0.0488 C.ar    1  LIG1       -0.0158
     28 H          10.4072   -0.8283    1.0680 H       1  LIG1        0.0635
     29 C           8.4148    2.0767   -0.4882 C.ar    1  LIG1       -0.0524
     30 C           9.8042    2.1164   -0.4955 C.ar    1  LIG1       -0.0534
     31 H           7.8519    2.8911   -0.9343 H       1  LIG1        0.0624
     32 S           7.5847   -1.4245    1.4140 S.3     1  LIG1       -0.1420
     33 H           8.6963   -2.0347    1.8687 H       1  LIG1        0.1071
     34 H          10.3228    2.9579   -0.9437 H       1  LIG1        0.0624
     35 C          12.8440    0.0903   -0.4768 C.ar    1  LIG1        0.0124
     36 C          14.2394    0.2053   -0.4105 C.ar    1  LIG1       -0.0480
     37 C          12.0308    1.1056    0.0731 C.ar    1  LIG1       -0.0047
     38 C          14.8369    1.3160    0.1796 C.ar    1  LIG1       -0.0607
     39 H          14.8650   -0.5761   -0.8317 H       1  LIG1        0.0629
     40 C          12.6593    2.2171    0.6572 C.ar    1  LIG1       -0.0530
     41 C          14.0455    2.3315    0.7149 C.ar    1  LIG1       -0.0611
     42 H          12.0333    2.9943    1.0854 H       1  LIG1        0.0624
     43 H          15.9200    1.3837    0.2171 H       1  LIG1        0.0618
     44 S          12.0807   -1.3133   -1.2951 S.3     1  LIG1       -0.1420
     45 H          13.2314   -1.8293   -1.7693 H       1  LIG1        0.1071
     46 H          14.5016    3.2009    1.1778 H       1  LIG1        0.0618
@<TRIPOS>BOND
     1    22    21    1
     2    45    44    1
     3    21    13    1
     4    44    35    1
     5    12     7    1
     6     8     6    1
     7    17    14    1
     8    34    30    1
     9    31    29    1
    10    39    36    1
    11     7     6   ar
    12     7     4   ar
    13     6     3   ar
    14    13    14   ar
    15    13    15   ar
    16    14    16   ar
    17    30    29   ar
    18    30    27   ar
    19    29    26   ar
    20    35    36   ar
    21    35    37   ar
    22    36    38   ar
    23     4    15    1
    24     4     2   ar
    25     9     3    1
    26     3     1   ar
    27    15    18   ar
    28    16    26    1
    29    16    19   ar
    30    27    37    1
    31    27    25   ar
    32    26    24   ar
    33    37    40   ar
    34    38    43    1
    35    38    41   ar
    36    18    19   ar
    37    18    20    1
    38     2     1   ar
    39     2     5    1
    40     1    10    1
    41    19    23    1
    42    25    24   ar
    43    25    28    1
    44    24    32    1
    45    40    41   ar
    46    40    42    1
    47    41    46    1
    48    10    11    1
    49    32    33    1
