@<TRIPOS>MOLECULE
mol_data/opt/b3lyp/geoms/mol2/4ga4ga-4ga-4ga.out
 46 49 0 0 0
SMALL
GASTEIGER

@<TRIPOS>ATOM
      1 C          -0.2975    0.1741   -0.2400 C.ar    1  LIG1        0.0053
      2 C           1.0948    0.0737   -0.1520 C.ar    1  LIG1       -0.0408
      3 C          -0.9027    1.4370   -0.2694 C.ar    1  LIG1       -0.0485
      4 C           1.8933    1.2250   -0.0808 C.ar    1  LIG1       -0.0158
      5 H           1.5710   -0.9013   -0.1563 H       1  LIG1        0.0635
      6 C          -0.1113    2.5820   -0.2144 C.ar    1  LIG1       -0.0602
      7 C           1.2759    2.4842   -0.1199 C.ar    1  LIG1       -0.0539
      8 H          -0.5839    3.5596   -0.2349 H       1  LIG1        0.0618
      9 H          -1.9833    1.5228   -0.3316 H       1  LIG1        0.0628
     10 S          -1.3582   -1.2618   -0.3476 S.3     1  LIG1       -0.1426
     11 H          -0.4069   -2.1836   -0.1048 H       1  LIG1        0.1071
     12 H           1.8852    3.3802   -0.0588 H       1  LIG1        0.0624
     13 C           4.0622    0.3948    0.9813 C.ar    1  LIG1        0.0130
     14 C           5.4611    0.3401    0.9727 C.ar    1  LIG1       -0.0402
     15 C           3.3788    1.1223   -0.0172 C.ar    1  LIG1       -0.0047
     16 C           6.2150    0.9979   -0.0073 C.ar    1  LIG1       -0.0158
     17 H           5.9797   -0.2009    1.7576 H       1  LIG1        0.0635
     18 C           4.1474    1.7894   -0.9833 C.ar    1  LIG1       -0.0524
     19 C           5.5365    1.7365   -0.9870 C.ar    1  LIG1       -0.0534
     20 H           3.6289    2.3427   -1.7606 H       1  LIG1        0.0624
     21 S           3.1302   -0.4014    2.2915 S.3     1  LIG1       -0.1420
     22 H           4.2077   -0.8140    2.9871 H       1  LIG1        0.1071
     23 H           6.0987    2.2465   -1.7627 H       1  LIG1        0.0624
     24 C           8.4489   -0.2371    0.0064 C.ar    1  LIG1        0.0130
     25 C           9.8481   -0.1906    0.0349 C.ar    1  LIG1       -0.0402
     26 C           7.7037    0.9618    0.0138 C.ar    1  LIG1       -0.0047
     27 C          10.5416    1.0258    0.0481 C.ar    1  LIG1       -0.0158
     28 H          10.4135   -1.1166    0.0556 H       1  LIG1        0.0635
     29 C           8.4116    2.1736    0.0305 C.ar    1  LIG1       -0.0524
     30 C           9.8008    2.2161    0.0478 C.ar    1  LIG1       -0.0534
     31 H           7.8455    3.1002    0.0390 H       1  LIG1        0.0624
     32 S           7.5968   -1.8145   -0.0714 S.3     1  LIG1       -0.1420
     33 H           8.7043   -2.5497   -0.2896 H       1  LIG1        0.1071
     34 H          10.3168    3.1710    0.0510 H       1  LIG1        0.0624
     35 C          12.8561    0.4356   -0.8480 C.ar    1  LIG1        0.0124
     36 C          14.2499    0.5105   -0.7202 C.ar    1  LIG1       -0.0480
     37 C          12.0304    1.0632    0.1104 C.ar    1  LIG1       -0.0047
     38 C          14.8331    1.2077    0.3347 C.ar    1  LIG1       -0.0607
     39 H          14.8855    0.0270   -1.4562 H       1  LIG1        0.0629
     40 C          12.6444    1.7647    1.1603 C.ar    1  LIG1       -0.0530
     41 C          14.0291    1.8425    1.2807 C.ar    1  LIG1       -0.0611
     42 H          12.0080    2.2425    1.8992 H       1  LIG1        0.0624
     43 H          15.9154    1.2535    0.4118 H       1  LIG1        0.0618
     44 S          12.1091   -0.4108   -2.2435 S.3     1  LIG1       -0.1420
     45 H          13.2679   -0.6472   -2.8887 H       1  LIG1        0.1071
     46 H          14.4745    2.3882    2.1066 H       1  LIG1        0.0618
@<TRIPOS>BOND
     1    45    44    1
     2    44    35    1
     3    23    19    1
     4    20    18    1
     5    39    36    1
     6    19    18   ar
     7    19    16   ar
     8    18    15   ar
     9    35    36   ar
    10    35    37   ar
    11    36    38   ar
    12    10     1    1
    13    10    11    1
    14     9     3    1
    15    33    32    1
    16     3     1   ar
    17     3     6   ar
    18     1     2   ar
    19     8     6    1
    20     6     7   ar
    21     5     2    1
    22     2     4   ar
    23     7     4   ar
    24     7    12    1
    25     4    15    1
    26    32    24    1
    27    15    13   ar
    28    16    26    1
    29    16    14   ar
    30    24    26   ar
    31    24    25   ar
    32    26    29   ar
    33    29    31    1
    34    29    30   ar
    35    25    27   ar
    36    25    28    1
    37    30    27   ar
    38    30    34    1
    39    27    37    1
    40    37    40   ar
    41    38    43    1
    42    38    41   ar
    43    14    13   ar
    44    14    17    1
    45    13    21    1
    46    40    41   ar
    47    40    42    1
    48    41    46    1
    49    21    22    1
