@<TRIPOS>MOLECULE
mol_data/opt/b3lyp/geoms/mol2/4ga4ga-4ga.out
 35 37 0 0 0
SMALL
GASTEIGER

@<TRIPOS>ATOM
      1 C          -0.1594    0.1949   -0.4146 C.ar    1  LIG1        0.0053
      2 C           1.2364    0.1127   -0.3794 C.ar    1  LIG1       -0.0408
      3 C          -0.7955    1.3828   -0.0324 C.ar    1  LIG1       -0.0485
      4 C           2.0080    1.2044    0.0458 C.ar    1  LIG1       -0.0158
      5 H           1.7357   -0.7958   -0.7001 H       1  LIG1        0.0635
      6 C          -0.0311    2.4737    0.3754 C.ar    1  LIG1       -0.0602
      7 C           1.3597    2.3918    0.4173 C.ar    1  LIG1       -0.0539
      8 H          -0.5276    3.3925    0.6734 H       1  LIG1        0.0618
      9 H          -1.8790    1.4517   -0.0507 H       1  LIG1        0.0628
     10 S          -1.1869   -1.1617   -0.9646 S.3     1  LIG1       -0.1426
     11 H          -0.2127   -2.0897   -1.0212 H       1  LIG1        0.1071
     12 H           1.9484    3.2392    0.7536 H       1  LIG1        0.0624
     13 C           4.2180    0.1499    0.7696 C.ar    1  LIG1        0.0130
     14 C           5.6174    0.1432    0.7292 C.ar    1  LIG1       -0.0402
     15 C           3.4966    1.1308    0.0554 C.ar    1  LIG1       -0.0047
     16 C           6.3347    1.0949   -0.0067 C.ar    1  LIG1       -0.0158
     17 H           6.1654   -0.5989    1.3007 H       1  LIG1        0.0635
     18 C           4.2283    2.0875   -0.6646 C.ar    1  LIG1       -0.0524
     19 C           5.6180    2.0795   -0.7011 C.ar    1  LIG1       -0.0534
     20 H           3.6804    2.8397   -1.2243 H       1  LIG1        0.0624
     21 S           3.3326   -1.0436    1.7753 S.3     1  LIG1       -0.1420
     22 H           4.4340   -1.6178    2.2970 H       1  LIG1        0.1071
     23 H           6.1517    2.8221   -1.2855 H       1  LIG1        0.0624
     24 C           8.5973   -0.0127   -0.4115 C.ar    1  LIG1        0.0124
     25 C           9.9965    0.0669   -0.3858 C.ar    1  LIG1       -0.0480
     26 C           7.8251    1.1005   -0.0129 C.ar    1  LIG1       -0.0047
     27 C          10.6376    1.2358    0.0163 C.ar    1  LIG1       -0.0607
     28 H          10.5907   -0.7894   -0.6909 H       1  LIG1        0.0629
     29 C           8.4971    2.2682    0.3826 C.ar    1  LIG1       -0.0530
     30 C           9.8869    2.3461    0.4006 C.ar    1  LIG1       -0.0611
     31 H           7.9024    3.1216    0.6946 H       1  LIG1        0.0624
     32 H          11.7229    1.2742    0.0262 H       1  LIG1        0.0618
     33 S           7.7769   -1.5008   -0.9898 S.3     1  LIG1       -0.1420
     34 H           8.9031   -2.1226   -1.3905 H       1  LIG1        0.1071
     35 H          10.3772    3.2616    0.7165 H       1  LIG1        0.0618
@<TRIPOS>BOND
     1    34    33    1
     2    23    19    1
     3    20    18    1
     4    11    10    1
     5    33    24    1
     6    10     1    1
     7    19    18   ar
     8    19    16   ar
     9     5     2    1
    10    28    25    1
    11    18    15   ar
    12     1     2   ar
    13     1     3   ar
    14    24    25   ar
    15    24    26   ar
    16    25    27   ar
    17     2     4   ar
    18     9     3    1
    19     3     6   ar
    20    26    16    1
    21    26    29   ar
    22    16    14   ar
    23    27    32    1
    24    27    30   ar
    25     4    15    1
    26     4     7   ar
    27    15    13   ar
    28     6     7   ar
    29     6     8    1
    30    29    30   ar
    31    29    31    1
    32    30    35    1
    33     7    12    1
    34    14    13   ar
    35    14    17    1
    36    13    21    1
    37    21    22    1
