@<TRIPOS>MOLECULE
mol_data/opt/b3lyp/geoms/mol2/4ga4ga-4ga4ga-.out
 46 49 0 0 0
SMALL
GASTEIGER

@<TRIPOS>ATOM
      1 C          -0.3019    0.3585   -0.4839 C.ar    1  LIG1        0.0053
      2 C           1.0917    0.2402   -0.4794 C.ar    1  LIG1       -0.0408
      3 C          -0.9063    1.4784    0.1013 C.ar    1  LIG1       -0.0485
      4 C           1.8926    1.2268    0.1149 C.ar    1  LIG1       -0.0158
      5 H           1.5667   -0.6121   -0.9540 H       1  LIG1        0.0635
      6 C          -0.1127    2.4669    0.6789 C.ar    1  LIG1       -0.0602
      7 C           1.2761    2.3481    0.6896 C.ar    1  LIG1       -0.0539
      8 H          -0.5845    3.3327    1.1342 H       1  LIG1        0.0618
      9 H          -1.9879    1.5737    0.1075 H       1  LIG1        0.0628
     10 S          -1.3660   -0.8617   -1.2437 S.3     1  LIG1       -0.1426
     11 H          -0.4141   -1.7862   -1.4733 H       1  LIG1        0.1071
     12 H           1.8877    3.1131    1.1573 H       1  LIG1        0.0624
     13 C           4.0818    0.0166    0.6265 C.ar    1  LIG1        0.0130
     14 C           5.4799   -0.0171    0.5659 C.ar    1  LIG1       -0.0402
     15 C           3.3790    1.1190    0.0935 C.ar    1  LIG1       -0.0047
     16 C           6.2142    1.0257   -0.0134 C.ar    1  LIG1       -0.0158
     17 H           6.0141   -0.8565    0.9988 H       1  LIG1        0.0635
     18 C           4.1277    2.1642   -0.4683 C.ar    1  LIG1       -0.0524
     19 C           5.5162    2.1288   -0.5252 C.ar    1  LIG1       -0.0534
     20 H           3.5938    3.0113   -0.8885 H       1  LIG1        0.0624
     21 S           3.1745   -1.3044    1.4330 S.3     1  LIG1       -0.1420
     22 H           4.2650   -1.9807    1.8435 H       1  LIG1        0.1071
     23 H           6.0631    2.9445   -0.9872 H       1  LIG1        0.0624
     24 C           8.4465   -0.0620   -0.6088 C.ar    1  LIG1        0.0130
     25 C           9.8458   -0.0193   -0.5942 C.ar    1  LIG1       -0.0402
     26 C           7.7031    0.9967   -0.0427 C.ar    1  LIG1       -0.0047
     27 C          10.5416    1.0585   -0.0321 C.ar    1  LIG1       -0.0158
     28 H          10.4101   -0.8255   -1.0514 H       1  LIG1        0.0635
     29 C           8.4131    2.0777    0.5021 C.ar    1  LIG1       -0.0524
     30 C           9.8025    2.1188    0.5112 C.ar    1  LIG1       -0.0534
     31 H           7.8490    2.8916    0.9475 H       1  LIG1        0.0624
     32 S           7.5886   -1.4244   -1.4009 S.3     1  LIG1       -0.1420
     33 H           8.7013   -2.0333   -1.8545 H       1  LIG1        0.1071
     34 H          10.3197    2.9608    0.9600 H       1  LIG1        0.0624
     35 C          12.8440    0.0952    0.4963 C.ar    1  LIG1        0.0124
     36 C          14.2394    0.2112    0.4317 C.ar    1  LIG1       -0.0480
     37 C          12.0307    1.1099   -0.0545 C.ar    1  LIG1       -0.0047
     38 C          14.8367    1.3225   -0.1576 C.ar    1  LIG1       -0.0607
     39 H          14.8651   -0.5697    0.8535 H       1  LIG1        0.0629
     40 C          12.6590    2.2219   -0.6377 C.ar    1  LIG1       -0.0530
     41 C          14.0451    2.3375   -0.6938 C.ar    1  LIG1       -0.0611
     42 H          12.0329    2.9986   -1.0667 H       1  LIG1        0.0624
     43 H          15.9199    1.3910   -0.1937 H       1  LIG1        0.0618
     44 S          12.0808   -1.3091    1.3135 S.3     1  LIG1       -0.1420
     45 H          13.2312   -1.8235    1.7903 H       1  LIG1        0.1071
     46 H          14.5011    3.2072   -1.1561 H       1  LIG1        0.0618
@<TRIPOS>BOND
     1    33    32    1
     2    11    10    1
     3    32    24    1
     4    10     1    1
     5    46    41    1
     6    42    40    1
     7    28    25    1
     8    23    19    1
     9     5     2    1
    10    20    18    1
    11    41    40   ar
    12    41    38   ar
    13    40    37   ar
    14    24    25   ar
    15    24    26   ar
    16    25    27   ar
    17    19    18   ar
    18    19    16   ar
    19     1     2   ar
    20     1     3   ar
    21     2     4   ar
    22    18    15   ar
    23    43    38    1
    24    38    36   ar
    25    37    27    1
    26    37    35   ar
    27    26    16    1
    28    26    29   ar
    29    27    30   ar
    30    16    14   ar
    31    15     4    1
    32    15    13   ar
    33     3     9    1
    34     3     6   ar
    35     4     7   ar
    36    36    35   ar
    37    36    39    1
    38    35    44    1
    39    29    30   ar
    40    29    31    1
    41    30    34    1
    42    14    13   ar
    43    14    17    1
    44    13    21    1
    45     6     7   ar
    46     6     8    1
    47     7    12    1
    48    44    45    1
    49    21    22    1
