@<TRIPOS>MOLECULE
mol_data/opt/b3lyp/geoms/mol2/4ga4ga4ga4ga.out
 46 49 0 0 0
SMALL
GASTEIGER

@<TRIPOS>ATOM
      1 C          -0.2893    1.1639    0.7924 C.ar    1  LIG1        0.0053
      2 C           1.1024    1.0489    0.8746 C.ar    1  LIG1       -0.0408
      3 C          -0.9010    1.3187   -0.4579 C.ar    1  LIG1       -0.0485
      4 C           1.8933    1.0728   -0.2837 C.ar    1  LIG1       -0.0158
      5 H           1.5832    0.9596    1.8434 H       1  LIG1        0.0635
      6 C          -0.1167    1.3600   -1.6085 C.ar    1  LIG1       -0.0602
      7 C           1.2695    1.2373   -1.5296 C.ar    1  LIG1       -0.0539
      8 H          -0.5943    1.4770   -2.5769 H       1  LIG1        0.0618
      9 H          -1.9812    1.4014   -0.5301 H       1  LIG1        0.0628
     10 S          -1.3395    1.1565    2.2403 S.3     1  LIG1       -0.1426
     11 H          -0.3998    0.7599    3.1197 H       1  LIG1        0.1071
     12 H           1.8726    1.2494   -2.4317 H       1  LIG1        0.0624
     13 C           4.0494   -0.0956    0.4266 C.ar    1  LIG1        0.0130
     14 C           5.4488   -0.1134    0.4718 C.ar    1  LIG1       -0.0402
     15 C           3.3780    0.9774   -0.1980 C.ar    1  LIG1       -0.0047
     16 C           6.2148    0.9031   -0.1123 C.ar    1  LIG1       -0.0158
     17 H           5.9565   -0.9279    0.9782 H       1  LIG1        0.0635
     18 C           4.1579    1.9919   -0.7745 C.ar    1  LIG1       -0.0524
     19 C           5.5471    1.9655   -0.7380 C.ar    1  LIG1       -0.0534
     20 H           3.6485    2.8222   -1.2543 H       1  LIG1        0.0624
     21 S           3.1032   -1.4474    1.1320 S.3     1  LIG1       -0.1420
     22 H           4.1644   -2.2474    1.3535 H       1  LIG1        0.1071
     23 H           6.1194    2.7610   -1.2044 H       1  LIG1        0.0624
     24 C           8.4911   -0.1896   -0.4893 C.ar    1  LIG1        0.0130
     25 C           9.8856   -0.1322   -0.3757 C.ar    1  LIG1       -0.0402
     26 C           7.7019    0.8891   -0.0346 C.ar    1  LIG1       -0.0047
     27 C          10.5327    0.9884    0.1596 C.ar    1  LIG1       -0.0158
     28 H          10.4835   -0.9771   -0.7013 H       1  LIG1        0.0635
     29 C           8.3635    2.0038    0.5039 C.ar    1  LIG1       -0.0524
     30 C           9.7485    2.0627    0.6034 C.ar    1  LIG1       -0.0534
     31 H           7.7635    2.8366    0.8584 H       1  LIG1        0.0624
     32 S           7.7028   -1.6154   -1.2416 S.3     1  LIG1       -0.1420
     33 H           8.8446   -2.1754   -1.6863 H       1  LIG1        0.1071
     34 H          10.2282    2.9445    1.0158 H       1  LIG1        0.0624
     35 C          12.8981    0.8493   -0.7862 C.ar    1  LIG1        0.0124
     36 C          14.2827    0.8968   -0.5733 C.ar    1  LIG1       -0.0480
     37 C          12.0157    1.0279    0.3019 C.ar    1  LIG1       -0.0047
     38 C          14.8017    1.1317    0.6973 C.ar    1  LIG1       -0.0607
     39 H          14.9615    0.7579   -1.4095 H       1  LIG1        0.0629
     40 C          12.5657    1.2684    1.5712 C.ar    1  LIG1       -0.0530
     41 C          13.9413    1.3222    1.7779 C.ar    1  LIG1       -0.0611
     42 H          11.8865    1.4001    2.4083 H       1  LIG1        0.0624
     43 H          15.8780    1.1664    0.8371 H       1  LIG1        0.0618
     44 S          12.2348    0.6108   -2.4372 S.3     1  LIG1       -0.1420
     45 H          13.4226    0.6917   -3.0679 H       1  LIG1        0.1071
     46 H          14.3362    1.5051    2.7722 H       1  LIG1        0.0618
@<TRIPOS>BOND
     1    45    44    1
     2     8     6    1
     3    44    35    1
     4    12     7    1
     5    33    32    1
     6     6     7   ar
     7     6     3   ar
     8     7     4   ar
     9    39    36    1
    10    20    18    1
    11    32    24    1
    12    23    19    1
    13    35    36   ar
    14    35    37   ar
    15    18    19   ar
    16    18    15   ar
    17    19    16   ar
    18    28    25    1
    19    36    38   ar
    20     9     3    1
    21    24    25   ar
    22    24    26   ar
    23     3     1   ar
    24    25    27   ar
    25     4    15    1
    26     4     2   ar
    27    15    13   ar
    28    16    26    1
    29    16    14   ar
    30    26    29   ar
    31    27    37    1
    32    27    30   ar
    33    37    40   ar
    34    13    14   ar
    35    13    21    1
    36    14    17    1
    37    29    30   ar
    38    29    31    1
    39    30    34    1
    40    38    43    1
    41    38    41   ar
    42     1     2   ar
    43     1    10    1
    44     2     5    1
    45    21    22    1
    46    40    41   ar
    47    40    42    1
    48    41    46    1
    49    10    11    1
