@<TRIPOS>MOLECULE
mol_data/opt/b3lyp/geoms/mol2/4gd.out
 14 14 0 0 0
SMALL
GASTEIGER

@<TRIPOS>ATOM
      1 C           0.1044    0.0606    0.0004 C.ar    1  LIG1        0.0048
      2 C           1.5068    0.0528   -0.0000 C.ar    1  LIG1       -0.0473
      3 C          -0.5786    1.2869    0.0003 C.ar    1  LIG1       -0.0473
      4 C           2.2144    1.2489   -0.0005 C.ar    1  LIG1       -0.0433
      5 H           2.0504   -0.8867    0.0001 H       1  LIG1        0.0629
      6 C           0.1266    2.4827   -0.0002 C.ar    1  LIG1       -0.0433
      7 C           1.5320    2.4762   -0.0006 C.ar    1  LIG1        0.0518
      8 H          -0.4054    3.4279   -0.0003 H       1  LIG1        0.0631
      9 H           3.2991    1.2377   -0.0008 H       1  LIG1        0.0631
     10 H          -1.6639    1.3043    0.0006 H       1  LIG1        0.0629
     11 S          -0.8709   -1.4292    0.0010 S.3     1  LIG1       -0.1426
     12 H           0.1590   -2.2971    0.0010 H       1  LIG1        0.1071
     13 N           2.8546    4.7101   -0.0015 N.1     1  LIG1       -0.1909
     14 C           2.2616    3.7088   -0.0011 C.1     1  LIG1        0.0992
@<TRIPOS>BOND
     1    13    14    3
     2    14     7    1
     3     9     4    1
     4     7     4   ar
     5     7     6   ar
     6     4     2   ar
     7     8     6    1
     8     6     3   ar
     9     2     5    1
    10     2     1   ar
    11     3     1   ar
    12     3    10    1
    13     1    11    1
    14    11    12    1
