@<TRIPOS>MOLECULE
mol_data/opt/b3lyp/geoms/mol2/4gd4gd-4gd-.out
 38 40 0 0 0
SMALL
GASTEIGER

@<TRIPOS>ATOM
      1 C          -0.1243    0.1328   -0.4540 C.ar    1  LIG1        0.0054
      2 C           1.2760    0.1234   -0.4218 C.ar    1  LIG1       -0.0396
      3 C          -0.8159    1.2714   -0.0143 C.ar    1  LIG1       -0.0473
      4 C           1.9981    1.2252    0.0451 C.ar    1  LIG1        0.0016
      5 H           1.8234   -0.7456   -0.7719 H       1  LIG1        0.0635
      6 C          -0.1135    2.3742    0.4482 C.ar    1  LIG1       -0.0427
      7 C           1.2912    2.3668    0.4862 C.ar    1  LIG1        0.0596
      8 H          -0.6472    3.2536    0.7919 H       1  LIG1        0.0631
      9 H          -1.9008    1.2930   -0.0328 H       1  LIG1        0.0629
     10 S          -1.0830   -1.2427   -1.0479 S.3     1  LIG1       -0.1426
     11 H          -0.0488   -2.0743   -1.2770 H       1  LIG1        0.1071
     12 N           2.5179    4.4636    1.4023 N.1     1  LIG1       -0.1909
     13 C           1.9814    3.5173    0.9895 C.1     1  LIG1        0.0998
     14 C           4.2197    0.3255    0.8887 C.ar    1  LIG1        0.0131
     15 C           5.6201    0.3259    0.8374 C.ar    1  LIG1       -0.0390
     16 C           3.4909    1.1891    0.0424 C.ar    1  LIG1       -0.0022
     17 C           6.3263    1.1567   -0.0335 C.ar    1  LIG1        0.0016
     18 H           6.1828   -0.3252    1.4981 H       1  LIG1        0.0635
     19 C           4.1949    2.0267   -0.8238 C.ar    1  LIG1       -0.0350
     20 C           5.5953    2.0211   -0.8787 C.ar    1  LIG1        0.0601
     21 H           3.6463    2.6935   -1.4797 H       1  LIG1        0.0637
     22 S           3.3346   -0.7221    2.0284 S.3     1  LIG1       -0.1420
     23 H           4.4299   -1.2283    2.6272 H       1  LIG1        0.1071
     24 N           6.7705    3.5800   -2.5903 N.1     1  LIG1       -0.1908
     25 C           6.2571    2.8802   -1.8157 C.1     1  LIG1        0.0998
     26 C           8.5495    0.0158   -0.4808 C.ar    1  LIG1        0.0126
     27 C           9.9519    0.0443   -0.4505 C.ar    1  LIG1       -0.0468
     28 C           7.8194    1.1399   -0.0360 C.ar    1  LIG1       -0.0022
     29 C          10.6311    1.1635    0.0089 C.ar    1  LIG1       -0.0433
     30 H          10.5192   -0.8152   -0.7928 H       1  LIG1        0.0629
     31 C           8.5138    2.2636    0.4198 C.ar    1  LIG1       -0.0355
     32 C           9.9146    2.2868    0.4504 C.ar    1  LIG1        0.0524
     33 H           7.9579    3.1304    0.7603 H       1  LIG1        0.0637
     34 H          11.7153    1.1736    0.0272 H       1  LIG1        0.0631
     35 S           7.6622   -1.4074   -1.0927 S.3     1  LIG1       -0.1420
     36 H           8.7541   -2.0853   -1.4961 H       1  LIG1        0.1071
     37 N          11.1824    4.3714    1.3371 N.1     1  LIG1       -0.1909
     38 C          10.6096    3.4416    0.9361 C.1     1  LIG1        0.0992
@<TRIPOS>BOND
     1    24    25    3
     2    25    20    1
     3    36    35    1
     4    21    19    1
     5    11    10    1
     6    35    26    1
     7    10     1    1
     8    20    19   ar
     9    20    17   ar
    10    19    16   ar
    11    30    27    1
    12     5     2    1
    13    26    27   ar
    14    26    28   ar
    15     1     2   ar
    16     1     3   ar
    17    27    29   ar
    18     2     4   ar
    19    28    17    1
    20    28    31   ar
    21    17    15   ar
    22     9     3    1
    23     3     6   ar
    24    29    34    1
    25    29    32   ar
    26    16     4    1
    27    16    14   ar
    28     4     7   ar
    29    31    32   ar
    30    31    33    1
    31     6     7   ar
    32     6     8    1
    33    32    38    1
    34     7    13    1
    35    15    14   ar
    36    15    18    1
    37    14    22    1
    38    38    37    3
    39    13    12    3
    40    22    23    1
