@<TRIPOS>MOLECULE
mol_data/opt/b3lyp/geoms/mol2/4gd4gd4gd4gd.out
 50 53 0 0 0
SMALL
GASTEIGER

@<TRIPOS>ATOM
      1 C          -0.1747    1.4930    1.2502 C.ar    1  LIG1        0.0054
      2 C           1.2229    1.4275    1.1842 C.ar    1  LIG1       -0.0396
      3 C          -0.9292    1.2880    0.0854 C.ar    1  LIG1       -0.0473
      4 C           1.8809    1.1560   -0.0186 C.ar    1  LIG1        0.0016
      5 H           1.8185    1.5995    2.0749 H       1  LIG1        0.0635
      6 C          -0.2909    1.0213   -1.1166 C.ar    1  LIG1       -0.0427
      7 C           1.1110    0.9499   -1.1858 C.ar    1  LIG1        0.0596
      8 H          -0.8734    0.8586   -2.0168 H       1  LIG1        0.0631
      9 H          -2.0129    1.3357    0.1204 H       1  LIG1        0.0629
     10 S          -1.0528    1.8429    2.7566 S.3     1  LIG1       -0.1426
     11 H           0.0240    1.8978    3.5637 H       1  LIG1        0.1071
     12 N           2.2072    0.4082   -3.4760 N.1     1  LIG1       -0.1909
     13 C           1.7314    0.6518   -2.4425 C.1     1  LIG1        0.0998
     14 C           4.1132    0.1174    0.6104 C.ar    1  LIG1        0.0131
     15 C           5.5136    0.1454    0.5635 C.ar    1  LIG1       -0.0390
     16 C           3.3735    1.1197   -0.0539 C.ar    1  LIG1       -0.0022
     17 C           6.2087    1.1369   -0.1303 C.ar    1  LIG1        0.0016
     18 H           6.0842   -0.6167    1.0838 H       1  LIG1        0.0635
     19 C           4.0665    2.1091   -0.7529 C.ar    1  LIG1       -0.0350
     20 C           5.4670    2.1350   -0.8004 C.ar    1  LIG1        0.0601
     21 H           3.5092    2.8804   -1.2729 H       1  LIG1        0.0637
     22 S           3.2414   -1.1673    1.4873 S.3     1  LIG1       -0.1420
     23 H           4.3349   -1.8967    1.7822 H       1  LIG1        0.1071
     24 N           6.6225    4.0408   -2.1322 N.1     1  LIG1       -0.1908
     25 C           6.1176    3.1787   -1.5361 C.1     1  LIG1        0.0998
     26 C           8.4580    0.1342   -0.7582 C.ar    1  LIG1        0.0131
     27 C           9.8575    0.1769   -0.6939 C.ar    1  LIG1       -0.0390
     28 C           7.7017    1.1427   -0.1221 C.ar    1  LIG1       -0.0022
     29 C          10.5354    1.1955   -0.0229 C.ar    1  LIG1        0.0016
     30 H          10.4416   -0.6026   -1.1718 H       1  LIG1        0.0635
     31 C           8.3769    2.1665    0.5435 C.ar    1  LIG1       -0.0350
     32 C           9.7765    2.2081    0.6050 C.ar    1  LIG1        0.0601
     33 H           7.8067    2.9513    1.0281 H       1  LIG1        0.0637
     34 S           7.6085   -1.1617   -1.6389 S.3     1  LIG1       -0.1420
     35 H           8.7189   -1.7336   -2.1432 H       1  LIG1        0.1071
     36 N          10.8951    4.1666    1.8908 N.1     1  LIG1       -0.1908
     37 C          10.4081    3.2862    1.3068 C.1     1  LIG1        0.0998
     38 C          12.8279    1.3837   -1.1005 C.ar    1  LIG1        0.0126
     39 C          14.2259    1.3425   -0.9828 C.ar    1  LIG1       -0.0468
     40 C          12.0274    1.1795    0.0457 C.ar    1  LIG1       -0.0022
     41 C          14.8318    1.1052    0.2424 C.ar    1  LIG1       -0.0433
     42 H          14.8475    1.5021   -1.8579 H       1  LIG1        0.0629
     43 C          12.6483    0.9476    1.2752 C.ar    1  LIG1       -0.0355
     44 C          14.0446    0.9040    1.3870 C.ar    1  LIG1        0.0524
     45 H          12.0383    0.7935    2.1585 H       1  LIG1        0.0637
     46 H          15.9132    1.0758    0.3190 H       1  LIG1        0.0631
     47 S          12.0331    1.7126   -2.6626 S.3     1  LIG1       -0.1420
     48 H          13.1706    1.9372   -3.3484 H       1  LIG1        0.1071
     49 N          15.1615    0.4262    3.6810 N.1     1  LIG1       -0.1909
     50 C          14.6593    0.6458    2.6548 C.1     1  LIG1        0.0992
@<TRIPOS>BOND
     1    12    13    3
     2    48    47    1
     3    47    38    1
     4    13     7    1
     5    35    34    1
     6    24    25    3
     7     8     6    1
     8    42    39    1
     9    34    26    1
    10    25    20    1
    11    21    19    1
    12     7     6   ar
    13     7     4   ar
    14    30    27    1
    15     6     3   ar
    16    38    39   ar
    17    38    40   ar
    18    39    41   ar
    19    20    19   ar
    20    20    17   ar
    21    26    27   ar
    22    26    28   ar
    23    19    16   ar
    24    27    29   ar
    25    17    28    1
    26    17    15   ar
    27    28    31   ar
    28    16     4    1
    29    16    14   ar
    30    29    40    1
    31    29    32   ar
    32     4     2   ar
    33    40    43   ar
    34     3     9    1
    35     3     1   ar
    36    41    46    1
    37    41    44   ar
    38    31    32   ar
    39    31    33    1
    40    15    14   ar
    41    15    18    1
    42    32    37    1
    43    14    22    1
    44     2     1   ar
    45     2     5    1
    46     1    10    1
    47    43    44   ar
    48    43    45    1
    49    37    36    3
    50    44    50    1
    51    22    23    1
    52    50    49    3
    53    10    11    1
