@<TRIPOS>MOLECULE
mol_data/opt/b3lyp/geoms/mol2/4gd4gd-4gd-4gd.out
 50 53 0 0 0
SMALL
GASTEIGER

@<TRIPOS>ATOM
      1 C          -0.2394    0.0209    0.0374 C.ar    1  LIG1        0.0054
      2 C           1.1611    0.0285    0.0569 C.ar    1  LIG1       -0.0396
      3 C          -0.9342    1.2391   -0.0010 C.ar    1  LIG1       -0.0473
      4 C           1.8804    1.2266    0.0437 C.ar    1  LIG1        0.0016
      5 H           1.7108   -0.9070    0.0724 H       1  LIG1        0.0635
      6 C          -0.2347    2.4365   -0.0174 C.ar    1  LIG1       -0.0427
      7 C           1.1704    2.4483    0.0063 C.ar    1  LIG1        0.0596
      8 H          -0.7709    3.3788   -0.0430 H       1  LIG1        0.0631
      9 H          -2.0194    1.2493   -0.0165 H       1  LIG1        0.0629
     10 S          -1.1939   -1.4798    0.0454 S.3     1  LIG1       -0.1426
     11 H          -0.1547   -2.3318    0.1350 H       1  LIG1        0.1071
     12 N           2.3925    4.7388    0.0090 N.1     1  LIG1       -0.1909
     13 C           1.8576    3.7055    0.0083 C.1     1  LIG1        0.0998
     14 C           4.1167    0.7216    1.1406 C.ar    1  LIG1        0.0131
     15 C           5.5165    0.7024    1.0743 C.ar    1  LIG1       -0.0390
     16 C           3.3733    1.1953    0.0377 C.ar    1  LIG1       -0.0022
     17 C           6.2073    1.1388   -0.0570 C.ar    1  LIG1        0.0016
     18 H           6.0904    0.3531    1.9262 H       1  LIG1        0.0635
     19 C           4.0626    1.6395   -1.0916 C.ar    1  LIG1       -0.0350
     20 C           5.4623    1.6152   -1.1585 C.ar    1  LIG1        0.0601
     21 H           3.5026    2.0047   -1.9453 H       1  LIG1        0.0637
     22 S           3.2517    0.1916    2.6070 S.3     1  LIG1       -0.1420
     23 H           4.3571   -0.0402    3.3411 H       1  LIG1        0.1071
     24 N           6.6091    2.4048   -3.3498 N.1     1  LIG1       -0.1908
     25 C           6.1083    2.0527   -2.3606 C.1     1  LIG1        0.0998
     26 C           8.4326   -0.0851   -0.0556 C.ar    1  LIG1        0.0131
     27 C           9.8330   -0.0440   -0.0459 C.ar    1  LIG1       -0.0390
     28 C           7.6999    1.1212   -0.0705 C.ar    1  LIG1       -0.0022
     29 C          10.5353    1.1618   -0.0573 C.ar    1  LIG1        0.0016
     30 H          10.3987   -0.9695   -0.0231 H       1  LIG1        0.0635
     31 C           8.3993    2.3291   -0.0876 C.ar    1  LIG1       -0.0350
     32 C           9.8003    2.3681   -0.0794 C.ar    1  LIG1        0.0601
     33 H           7.8470    3.2623   -0.1061 H       1  LIG1        0.0637
     34 S           7.5523   -1.6369   -0.0614 S.3     1  LIG1       -0.1420
     35 H           8.6443   -2.4129   -0.2021 H       1  LIG1        0.1071
     36 N          10.9785    4.6816   -0.1048 N.1     1  LIG1       -0.1908
     37 C          10.4617    3.6395   -0.0979 C.1     1  LIG1        0.0998
     38 C          12.8005    0.6824   -1.0997 C.ar    1  LIG1        0.0126
     39 C          14.2006    0.6801   -1.0018 C.ar    1  LIG1       -0.0468
     40 C          12.0283    1.1542   -0.0148 C.ar    1  LIG1       -0.0022
     41 C          14.8359    1.1352    0.1444 C.ar    1  LIG1       -0.0433
     42 H          14.8006    0.3223   -1.8322 H       1  LIG1        0.0629
     43 C          12.6787    1.6162    1.1318 C.ar    1  LIG1       -0.0355
     44 C          14.0770    1.6085    1.2262 C.ar    1  LIG1        0.0524
     45 H          12.0905    1.9830    1.9658 H       1  LIG1        0.0637
     46 H          15.9186    1.1275    0.2070 H       1  LIG1        0.0631
     47 S          11.9685    0.1234   -2.5749 S.3     1  LIG1       -0.1420
     48 H          13.0896   -0.0773   -3.2943 H       1  LIG1        0.1071
     49 N          15.2506    2.4303    3.3908 N.1     1  LIG1       -0.1909
     50 C          14.7226    2.0681    2.4194 C.1     1  LIG1        0.0992
@<TRIPOS>BOND
     1    24    25    3
     2    48    47    1
     3    47    38    1
     4    25    20    1
     5    21    19    1
     6    42    39    1
     7    20    19   ar
     8    20    17   ar
     9    38    39   ar
    10    38    40   ar
    11    19    16   ar
    12    39    41   ar
    13    35    34    1
    14    33    31    1
    15    36    37    3
    16    37    32    1
    17    31    32   ar
    18    31    28   ar
    19    32    29   ar
    20    28    17    1
    21    28    26   ar
    22    34    26    1
    23    29    27   ar
    24    29    40    1
    25    17    15   ar
    26    26    27   ar
    27    27    30    1
    28     8     6    1
    29     6     3   ar
    30     6     7   ar
    31     9     3    1
    32    40    43   ar
    33     3     1   ar
    34     7    13    1
    35     7     4   ar
    36    13    12    3
    37     1    10    1
    38     1     2   ar
    39    16     4    1
    40    16    14   ar
    41     4     2   ar
    42    10    11    1
    43     2     5    1
    44    41    46    1
    45    41    44   ar
    46    15    14   ar
    47    15    18    1
    48    43    44   ar
    49    43    45    1
    50    14    22    1
    51    44    50    1
    52    50    49    3
    53    22    23    1
