@<TRIPOS>MOLECULE
mol_data/opt/b3lyp/geoms/mol2/4gd4gd-4gd-4gd-.out
 50 53 0 0 0
SMALL
GASTEIGER

@<TRIPOS>ATOM
      1 C          -0.2423    0.0389    0.0321 C.ar    1  LIG1        0.0054
      2 C           1.1581    0.0433    0.0554 C.ar    1  LIG1       -0.0396
      3 C          -0.9340    1.2582   -0.0231 C.ar    1  LIG1       -0.0473
      4 C           1.8805    1.2394    0.0295 C.ar    1  LIG1        0.0016
      5 H           1.7054   -0.8932    0.0839 H       1  LIG1        0.0635
      6 C          -0.2314    2.4536   -0.0522 C.ar    1  LIG1       -0.0427
      7 C           1.1736    2.4622   -0.0248 C.ar    1  LIG1        0.0596
      8 H          -0.7652    3.3969   -0.0909 H       1  LIG1        0.0631
      9 H          -2.0191    1.2709   -0.0419 H       1  LIG1        0.0629
     10 S          -1.2006   -1.4591    0.0562 S.3     1  LIG1       -0.1426
     11 H          -0.1636   -2.3127    0.1561 H       1  LIG1        0.1071
     12 N           2.4015    4.7496   -0.0468 N.1     1  LIG1       -0.1909
     13 C           1.8640    3.7177   -0.0363 C.1     1  LIG1        0.0998
     14 C           4.1127    0.7422    1.1384 C.ar    1  LIG1        0.0131
     15 C           5.5125    0.7189    1.0761 C.ar    1  LIG1       -0.0390
     16 C           3.3733    1.2044    0.0279 C.ar    1  LIG1       -0.0022
     17 C           6.2073    1.1401   -0.0585 C.ar    1  LIG1        0.0016
     18 H           6.0833    0.3786    1.9337 H       1  LIG1        0.0635
     19 C           4.0667    1.6334   -1.1047 C.ar    1  LIG1       -0.0350
     20 C           5.4664    1.6050   -1.1676 C.ar    1  LIG1        0.0601
     21 H           3.5098    1.9897   -1.9643 H       1  LIG1        0.0637
     22 S           3.2425    0.2318    2.6086 S.3     1  LIG1       -0.1420
     23 H           4.3454    0.0058    3.3483 H       1  LIG1        0.1071
     24 N           6.6209    2.3653   -3.3653 N.1     1  LIG1       -0.1908
     25 C           6.1167    2.0264   -2.3732 C.1     1  LIG1        0.0998
     26 C           8.4298   -0.0889   -0.0366 C.ar    1  LIG1        0.0131
     27 C           9.8302   -0.0510   -0.0239 C.ar    1  LIG1       -0.0390
     28 C           7.7000    1.1188   -0.0679 C.ar    1  LIG1       -0.0022
     29 C          10.5354    1.1529   -0.0483 C.ar    1  LIG1        0.0016
     30 H          10.3937   -0.9775    0.0116 H       1  LIG1        0.0635
     31 C           8.4023    2.3248   -0.0979 C.ar    1  LIG1       -0.0350
     32 C           9.8034    2.3606   -0.0868 C.ar    1  LIG1        0.0601
     33 H           7.8523    3.2590   -0.1290 H       1  LIG1        0.0637
     34 S           7.5459   -1.6388   -0.0255 S.3     1  LIG1       -0.1420
     35 H           8.6363   -2.4188   -0.1552 H       1  LIG1        0.1071
     36 N          10.9869    4.6710   -0.1373 N.1     1  LIG1       -0.1908
     37 C          10.4678    3.6302   -0.1192 C.1     1  LIG1        0.0998
     38 C          12.8017    0.6540   -1.0791 C.ar    1  LIG1        0.0126
     39 C          14.2016    0.6494   -0.9781 C.ar    1  LIG1       -0.0468
     40 C          12.0283    1.1422   -0.0023 C.ar    1  LIG1       -0.0022
     41 C          14.8355    1.1181    0.1635 C.ar    1  LIG1       -0.0433
     42 H          14.8024    0.2791   -1.8023 H       1  LIG1        0.0629
     43 C          12.6774    1.6177    1.1395 C.ar    1  LIG1       -0.0355
     44 C          14.0754    1.6077    1.2371 C.ar    1  LIG1        0.0524
     45 H          12.0884    1.9971    1.9673 H       1  LIG1        0.0637
     46 H          15.9180    1.1085    0.2285 H       1  LIG1        0.0631
     47 S          11.9716    0.0778   -2.5487 S.3     1  LIG1       -0.1420
     48 H          13.0938   -0.1357   -3.2627 H       1  LIG1        0.1071
     49 N          15.2464    2.4553    3.3932 N.1     1  LIG1       -0.1909
     50 C          14.7196    2.0816    2.4255 C.1     1  LIG1        0.0992
@<TRIPOS>BOND
     1    24    25    3
     2    48    47    1
     3    47    38    1
     4    25    20    1
     5    21    19    1
     6    42    39    1
     7    20    19   ar
     8    20    17   ar
     9    19    16   ar
    10    38    39   ar
    11    38    40   ar
    12    39    41   ar
    13    35    34    1
    14    36    37    3
    15    33    31    1
    16    37    32    1
    17    31    32   ar
    18    31    28   ar
    19     8     6    1
    20    32    29   ar
    21    28    17    1
    22    28    26   ar
    23    17    15   ar
    24     6     7   ar
    25     6     3   ar
    26    29    27   ar
    27    29    40    1
    28    12    13    3
    29     9     3    1
    30    26    34    1
    31    26    27   ar
    32    13     7    1
    33     7     4   ar
    34    27    30    1
    35     3     1   ar
    36    40    43   ar
    37    16     4    1
    38    16    14   ar
    39     4     2   ar
    40     1     2   ar
    41     1    10    1
    42     2     5    1
    43    10    11    1
    44    41    46    1
    45    41    44   ar
    46    15    14   ar
    47    15    18    1
    48    14    22    1
    49    43    44   ar
    50    43    45    1
    51    44    50    1
    52    50    49    3
    53    22    23    1
