@<TRIPOS>MOLECULE
mol_data/opt/b3lyp/geoms/mol2/4gd4gd4gd4gd-.out
 50 53 0 0 0
SMALL
GASTEIGER

@<TRIPOS>ATOM
      1 C          -0.1903    0.8157    1.2180 C.ar    1  LIG1        0.0054
      2 C           1.2075    0.7766    1.1369 C.ar    1  LIG1       -0.0396
      3 C          -0.9305    1.2851    0.1226 C.ar    1  LIG1       -0.0473
      4 C           1.8793    1.1916   -0.0162 C.ar    1  LIG1        0.0016
      5 H           1.7926    0.4293    1.9823 H       1  LIG1        0.0635
      6 C          -0.2782    1.7032   -1.0276 C.ar    1  LIG1       -0.0427
      7 C           1.1239    1.6614   -1.1144 C.ar    1  LIG1        0.0596
      8 H          -0.8497    2.0623   -1.8765 H       1  LIG1        0.0631
      9 H          -2.0142    1.3212    0.1701 H       1  LIG1        0.0629
     10 S          -1.0860    0.3063    2.6676 S.3     1  LIG1       -0.1426
     11 H          -0.0198   -0.1006    3.3829 H       1  LIG1        0.1071
     12 N           2.2493    2.4316   -3.3235 N.1     1  LIG1       -0.1909
     13 C           1.7599    2.0831   -2.3270 C.1     1  LIG1        0.0998
     14 C           4.0931   -0.0542   -0.0574 C.ar    1  LIG1        0.0131
     15 C           5.4941   -0.0268   -0.0729 C.ar    1  LIG1       -0.0390
     16 C           3.3720    1.1594   -0.0554 C.ar    1  LIG1       -0.0022
     17 C           6.2073    1.1724   -0.0932 C.ar    1  LIG1        0.0016
     18 H           6.0510   -0.9579   -0.0632 H       1  LIG1        0.0635
     19 C           4.0830    2.3599   -0.0808 C.ar    1  LIG1       -0.0350
     20 C           5.4843    2.3860   -0.0980 C.ar    1  LIG1        0.0601
     21 H           3.5398    3.2984   -0.0873 H       1  LIG1        0.0637
     22 S           3.1961   -1.5951   -0.0510 S.3     1  LIG1       -0.1420
     23 H           4.2772   -2.3826   -0.2120 H       1  LIG1        0.1071
     24 N           6.6851    4.6875   -0.1375 N.1     1  LIG1       -0.1908
     25 C           6.1575    3.6508   -0.1246 C.1     1  LIG1        0.0998
     26 C           8.4521    0.6771   -1.1755 C.ar    1  LIG1        0.0131
     27 C           9.8517    0.6739   -1.1030 C.ar    1  LIG1       -0.0390
     28 C           7.7002    1.1527   -0.0790 C.ar    1  LIG1       -0.0022
     29 C          10.5340    1.1217    0.0292 C.ar    1  LIG1        0.0016
     30 H          10.4325    0.3277   -1.9515 H       1  LIG1        0.0635
     31 C           8.3795    1.6100    1.0506 C.ar    1  LIG1       -0.0350
     32 C           9.7790    1.5963    1.1249 C.ar    1  LIG1        0.0601
     33 H           7.8125    1.9764    1.8993 H       1  LIG1        0.0637
     34 S           7.5959    0.1262   -2.6379 S.3     1  LIG1       -0.1420
     35 H           8.7056   -0.1299   -3.3571 H       1  LIG1        0.1071
     36 N          10.9003    2.4018    3.3236 N.1     1  LIG1       -0.1908
     37 C          10.4127    2.0429    2.3301 C.1     1  LIG1        0.0998
     38 C          12.7716   -0.0791    0.0222 C.ar    1  LIG1        0.0126
     39 C          14.1736   -0.0245    0.0285 C.ar    1  LIG1       -0.0468
     40 C          12.0268    1.1207    0.0507 C.ar    1  LIG1       -0.0022
     41 C          14.8385    1.1925    0.0650 C.ar    1  LIG1       -0.0433
     42 H          14.7518   -0.9427    0.0091 H       1  LIG1        0.0629
     43 C          12.7073    2.3408    0.0926 C.ar    1  LIG1       -0.0355
     44 C          14.1077    2.3904    0.0972 C.ar    1  LIG1        0.0524
     45 H          12.1407    3.2652    0.1158 H       1  LIG1        0.0637
     46 H          15.9226    1.2214    0.0697 H       1  LIG1        0.0631
     47 S          11.9047   -1.6401    0.0036 S.3     1  LIG1       -0.1420
     48 H          13.0055   -2.4083    0.1150 H       1  LIG1        0.1071
     49 N          15.3493    4.6698    0.1383 N.1     1  LIG1       -0.1909
     50 C          14.7880    3.6509    0.1246 C.1     1  LIG1        0.0992
@<TRIPOS>BOND
     1    35    34    1
     2    12    13    3
     3    34    26    1
     4    13     7    1
     5    30    27    1
     6     8     6    1
     7    26    27   ar
     8    26    28   ar
     9     7     6   ar
    10     7     4   ar
    11    27    29   ar
    12     6     3   ar
    13    23    22    1
    14    24    25    3
    15    25    20    1
    16    20    17   ar
    17    20    19   ar
    18    17    28    1
    19    17    15   ar
    20    21    19    1
    21    19    16   ar
    22    28    31   ar
    23    15    18    1
    24    15    14   ar
    25    14    16   ar
    26    14    22    1
    27    16     4    1
    28     4     2   ar
    29    47    38    1
    30    47    48    1
    31    42    39    1
    32    38    39   ar
    33    38    40   ar
    34    39    41   ar
    35    29    40    1
    36    29    32   ar
    37    40    43   ar
    38    41    46    1
    39    41    44   ar
    40    43    44   ar
    41    43    45    1
    42    44    50    1
    43     3     9    1
    44     3     1   ar
    45    50    49    3
    46    31    32   ar
    47    31    33    1
    48    32    37    1
    49     2     1   ar
    50     2     5    1
    51     1    10    1
    52    37    36    3
    53    10    11    1
