@<TRIPOS>MOLECULE
mol_data/opt/b3lyp/geoms/mol2/4gd4gd.out
 26 27 0 0 0
SMALL
GASTEIGER

@<TRIPOS>ATOM
      1 C          -0.0018    0.2442    0.6655 C.ar    1  LIG1        0.0054
      2 C           1.3986    0.2397    0.6444 C.ar    1  LIG1       -0.0396
      3 C          -0.6977    1.2584   -0.0092 C.ar    1  LIG1       -0.0473
      4 C           2.1178    1.2226   -0.0413 C.ar    1  LIG1        0.0016
      5 H           1.9490   -0.5307    1.1746 H       1  LIG1        0.0635
      6 C           0.0013    2.2431   -0.6910 C.ar    1  LIG1       -0.0427
      7 C           1.4064    2.2386   -0.7190 C.ar    1  LIG1        0.0596
      8 H          -0.5354    3.0254   -1.2168 H       1  LIG1        0.0631
      9 H          -1.7829    1.2751   -0.0020 H       1  LIG1        0.0629
     10 S          -0.9558   -0.9823    1.5316 S.3     1  LIG1       -0.1426
     11 H           0.0821   -1.7395    1.9354 H       1  LIG1        0.1071
     12 N           2.6169    4.1061   -2.0560 N.1     1  LIG1       -0.1909
     13 C           2.0903    3.2622   -1.4523 C.1     1  LIG1        0.0998
     14 C           4.3494    0.1823   -0.6646 C.ar    1  LIG1        0.0126
     15 C           5.7512    0.1969   -0.6010 C.ar    1  LIG1       -0.0468
     16 C           3.6114    1.1995   -0.0199 C.ar    1  LIG1       -0.0022
     17 C           6.4227    1.1984    0.0854 C.ar    1  LIG1       -0.0433
     18 H           6.3242   -0.5804   -1.0961 H       1  LIG1        0.0629
     19 C           4.2986    2.2058    0.6634 C.ar    1  LIG1       -0.0355
     20 C           5.6986    2.2155    0.7266 C.ar    1  LIG1        0.0524
     21 H           3.7370    2.9907    1.1580 H       1  LIG1        0.0637
     22 H           7.5064    1.1983    0.1272 H       1  LIG1        0.0631
     23 S           3.4732   -1.0860   -1.5639 S.3     1  LIG1       -0.1420
     24 H           4.5736   -1.6858   -2.0581 H       1  LIG1        0.1071
     25 N           6.9415    4.0783    2.0396 N.1     1  LIG1       -0.1909
     26 C           6.3821    3.2476    1.4476 C.1     1  LIG1        0.0992
@<TRIPOS>BOND
     1    24    23    1
     2    12    13    3
     3    23    14    1
     4    13     7    1
     5     8     6    1
     6    18    15    1
     7     7     6   ar
     8     7     4   ar
     9     6     3   ar
    10    14    15   ar
    11    14    16   ar
    12    15    17   ar
    13     4    16    1
    14     4     2   ar
    15    16    19   ar
    16     3     9    1
    17     3     1   ar
    18    17    22    1
    19    17    20   ar
    20     2     1   ar
    21     2     5    1
    22    19    20   ar
    23    19    21    1
    24     1    10    1
    25    20    26    1
    26    26    25    3
    27    10    11    1
