@<TRIPOS>MOLECULE
mol_data/opt/b3lyp/geoms/mol2/4gd4gd4gd-.out
 38 40 0 0 0
SMALL
GASTEIGER

@<TRIPOS>ATOM
      1 C          -0.1265    0.1458    0.4634 C.ar    1  LIG1        0.0054
      2 C           1.2738    0.1342    0.4346 C.ar    1  LIG1       -0.0396
      3 C          -0.8159    1.2770    0.0016 C.ar    1  LIG1       -0.0473
      4 C           1.9982    1.2266   -0.0503 C.ar    1  LIG1        0.0016
      5 H           1.8193   -0.7290    0.8014 H       1  LIG1        0.0635
      6 C          -0.1111    2.3704   -0.4794 C.ar    1  LIG1       -0.0427
      7 C           1.2937    2.3608   -0.5139 C.ar    1  LIG1        0.0596
      8 H          -0.6430    3.2440   -0.8402 H       1  LIG1        0.0631
      9 H          -1.9008    1.3003    0.0174 H       1  LIG1        0.0629
     10 S          -1.0884   -1.2181    1.0792 S.3     1  LIG1       -0.1426
     11 H          -0.0551   -2.0437    1.3331 H       1  LIG1        0.1071
     12 N           2.5253    4.4392   -1.4647 N.1     1  LIG1       -0.1909
     13 C           1.9865    3.5011   -1.0363 C.1     1  LIG1        0.0998
     14 C           4.2211    0.3108   -0.8732 C.ar    1  LIG1        0.0131
     15 C           5.6214    0.3109   -0.8186 C.ar    1  LIG1       -0.0390
     16 C           3.4909    1.1893   -0.0436 C.ar    1  LIG1       -0.0022
     17 C           6.3262    1.1561    0.0395 C.ar    1  LIG1        0.0016
     18 H           6.1850   -0.3520   -1.4666 H       1  LIG1        0.0635
     19 C           4.1936    2.0410    0.8097 C.ar    1  LIG1       -0.0350
     20 C           5.5939    2.0354    0.8680 C.ar    1  LIG1        0.0601
     21 H           3.6440    2.7195    1.4528 H       1  LIG1        0.0637
     22 S           3.3379   -0.7562   -1.9965 S.3     1  LIG1       -0.1420
     23 H           4.4342   -1.2710   -2.5859 H       1  LIG1        0.1071
     24 N           6.7658    3.6229    2.5555 N.1     1  LIG1       -0.1908
     25 C           6.2539    2.9102    1.7917 C.1     1  LIG1        0.0998
     26 C           8.5473    0.0210    0.5112 C.ar    1  LIG1        0.0126
     27 C           9.9498    0.0478    0.4839 C.ar    1  LIG1       -0.0468
     28 C           7.8193    1.1381    0.0456 C.ar    1  LIG1       -0.0022
     29 C          10.6311    1.1585    0.0072 C.ar    1  LIG1       -0.0433
     30 H          10.5155   -0.8061    0.8423 H       1  LIG1        0.0629
     31 C           8.5158    2.2534   -0.4274 C.ar    1  LIG1       -0.0355
     32 C           9.9168    2.2748   -0.4550 C.ar    1  LIG1        0.0524
     33 H           7.9616    3.1148   -0.7839 H       1  LIG1        0.0637
     34 H          11.7154    1.1672   -0.0087 H       1  LIG1        0.0631
     35 S           7.6571   -1.3904    1.1452 S.3     1  LIG1       -0.1420
     36 H           8.7476   -2.0647    1.5583 H       1  LIG1        0.1071
     37 N          11.1886    4.3429   -1.3738 N.1     1  LIG1       -0.1909
     38 C          10.6140    3.4206   -0.9586 C.1     1  LIG1        0.0992
@<TRIPOS>BOND
     1    23    22    1
     2    22    14    1
     3    18    15    1
     4    12    13    3
     5    37    38    3
     6    13     7    1
     7    38    32    1
     8    14    15   ar
     9    14    16   ar
    10     8     6    1
    11    15    17   ar
    12    33    31    1
    13     7     6   ar
    14     7     4   ar
    15     6     3   ar
    16    32    31   ar
    17    32    29   ar
    18    31    28   ar
    19     4    16    1
    20     4     2   ar
    21    16    19   ar
    22    34    29    1
    23     3     9    1
    24     3     1   ar
    25    29    27   ar
    26    17    28    1
    27    17    20   ar
    28    28    26   ar
    29     2     1   ar
    30     2     5    1
    31     1    10    1
    32    27    26   ar
    33    27    30    1
    34    26    35    1
    35    19    20   ar
    36    19    21    1
    37    20    25    1
    38    10    11    1
    39    35    36    1
    40    25    24    3
