@<TRIPOS>MOLECULE
mol_data/opt/b3lyp/geoms/mol2/4gd4gd4gd.out
 38 40 0 0 0
SMALL
GASTEIGER

@<TRIPOS>ATOM
      1 C          -0.0881    0.7673    1.1484 C.ar    1  LIG1        0.0054
      2 C           1.3109    0.7378    1.0879 C.ar    1  LIG1       -0.0396
      3 C          -0.8146    1.2528    0.0509 C.ar    1  LIG1       -0.0473
      4 C           1.9980    1.1778   -0.0470 C.ar    1  LIG1        0.0016
      5 H           1.8851    0.3783    1.9356 H       1  LIG1        0.0635
      6 C          -0.1473    1.6961   -1.0812 C.ar    1  LIG1       -0.0427
      7 C           1.2561    1.6639   -1.1474 C.ar    1  LIG1        0.0596
      8 H          -0.7081    2.0681   -1.9317 H       1  LIG1        0.0631
      9 H          -1.8990    1.2827    0.0830 H       1  LIG1        0.0629
     10 S          -1.0020    0.2242    2.5744 S.3     1  LIG1       -0.1426
     11 H           0.0576   -0.1742    3.3038 H       1  LIG1        0.1071
     12 N           2.4051    2.4836   -3.3264 N.1     1  LIG1       -0.1909
     13 C           1.9063    2.1126   -2.3428 C.1     1  LIG1        0.0998
     14 C           4.2214   -0.0529   -0.0517 C.ar    1  LIG1        0.0131
     15 C           5.6222   -0.0146   -0.0434 C.ar    1  LIG1       -0.0390
     16 C           3.4911    1.1553   -0.0633 C.ar    1  LIG1       -0.0022
     17 C           6.3277    1.1894   -0.0539 C.ar    1  LIG1        0.0016
     18 H           6.1856   -0.9415   -0.0227 H       1  LIG1        0.0635
     19 C           4.1942    2.3606   -0.0795 C.ar    1  LIG1       -0.0350
     20 C           5.5953    2.3972   -0.0735 C.ar    1  LIG1        0.0601
     21 H           3.6445    3.2953   -0.0960 H       1  LIG1        0.0637
     22 S           3.3379   -1.6021   -0.0595 S.3     1  LIG1       -0.1420
     23 H           4.4293   -2.3797   -0.1963 H       1  LIG1        0.1071
     24 N           6.7699    4.7125   -0.0974 N.1     1  LIG1       -0.1908
     25 C           6.2568    3.6685   -0.0914 C.1     1  LIG1        0.0998
     26 C           8.5923    0.6984   -1.0939 C.ar    1  LIG1        0.0126
     27 C           9.9924    0.6944   -0.9960 C.ar    1  LIG1       -0.0468
     28 C           7.8207    1.1789   -0.0122 C.ar    1  LIG1       -0.0022
     29 C          10.6286    1.1565    0.1469 C.ar    1  LIG1       -0.0433
     30 H          10.5917    0.3298   -1.8239 H       1  LIG1        0.0629
     31 C           8.4723    1.6477    1.1310 C.ar    1  LIG1       -0.0355
     32 C           9.8706    1.6387    1.2253 C.ar    1  LIG1        0.0524
     33 H           7.8847    2.0210    1.9626 H       1  LIG1        0.0637
     34 H          11.7113    1.1475    0.2094 H       1  LIG1        0.0631
     35 S           7.7600    0.1312   -2.5658 S.3     1  LIG1       -0.1420
     36 H           8.8814   -0.0815   -3.2813 H       1  LIG1        0.1071
     37 N          11.0452    2.4754    3.3836 N.1     1  LIG1       -0.1909
     38 C          10.5169    2.1063    2.4151 C.1     1  LIG1        0.0992
@<TRIPOS>BOND
     1    12    13    3
     2    36    35    1
     3    35    26    1
     4    13     7    1
     5     8     6    1
     6    30    27    1
     7     7     6   ar
     8     7     4   ar
     9    26    27   ar
    10    26    28   ar
    11     6     3   ar
    12    27    29   ar
    13    23    22    1
    14    24    25    3
    15    21    19    1
    16    25    20    1
    17    19    20   ar
    18    19    16   ar
    19    20    17   ar
    20    16    14   ar
    21    16     4    1
    22    22    14    1
    23    17    15   ar
    24    17    28    1
    25    14    15   ar
    26     4     2   ar
    27    15    18    1
    28    28    31   ar
    29     3     9    1
    30     3     1   ar
    31    29    34    1
    32    29    32   ar
    33     2     1   ar
    34     2     5    1
    35    31    32   ar
    36    31    33    1
    37     1    10    1
    38    32    38    1
    39    38    37    3
    40    10    11    1
