@<TRIPOS>MOLECULE
mol_data/opt/b3lyp/geoms/mol2/4gd4gd4gd-4gd.out
 50 53 0 0 0
SMALL
GASTEIGER

@<TRIPOS>ATOM
      1 C          -0.2516    0.2836    0.6929 C.ar    1  LIG1        0.0054
      2 C           1.1484    0.2519    0.6596 C.ar    1  LIG1       -0.0396
      3 C          -0.9336    1.3099    0.0221 C.ar    1  LIG1       -0.0473
      4 C           1.8792    1.2210   -0.0330 C.ar    1  LIG1        0.0016
      5 H           1.6885   -0.5286    1.1853 H       1  LIG1        0.0635
      6 C          -0.2223    2.2804   -0.6676 C.ar    1  LIG1       -0.0427
      7 C           1.1821    2.2496   -0.7066 C.ar    1  LIG1        0.0596
      8 H          -0.7486    3.0718   -1.1899 H       1  LIG1        0.0631
      9 H          -2.0181    1.3477    0.0392 H       1  LIG1        0.0629
     10 S          -1.2216   -0.9236    1.5677 S.3     1  LIG1       -0.1426
     11 H          -0.1931   -1.6864    1.9851 H       1  LIG1        0.1071
     12 N           2.4277    4.0870   -2.0532 N.1     1  LIG1       -0.1909
     13 C           1.8821    3.2578   -1.4460 C.1     1  LIG1        0.0998
     14 C           4.0913    0.1434   -0.6704 C.ar    1  LIG1        0.0131
     15 C           5.4920    0.1451   -0.6256 C.ar    1  LIG1       -0.0390
     16 C           3.3718    1.1730   -0.0257 C.ar    1  LIG1       -0.0022
     17 C           6.2068    1.1391    0.0441 C.ar    1  LIG1        0.0016
     18 H           6.0476   -0.6355   -1.1344 H       1  LIG1        0.0635
     19 C           4.0848    2.1713    0.6394 C.ar    1  LIG1       -0.0350
     20 C           5.4853    2.1685    0.6888 C.ar    1  LIG1        0.0601
     21 H           3.5431    2.9666    1.1395 H       1  LIG1        0.0637
     22 S           3.1940   -1.1163   -1.5575 S.3     1  LIG1       -0.1420
     23 H           4.2830   -1.7465   -2.0385 H       1  LIG1        0.1071
     24 N           6.6842    4.0455    2.0233 N.1     1  LIG1       -0.1908
     25 C           6.1579    3.2025    1.4184 C.1     1  LIG1        0.0998
     26 C           8.4351    0.1005    0.6873 C.ar    1  LIG1        0.0131
     27 C           9.8352    0.1261    0.6441 C.ar    1  LIG1       -0.0390
     28 C           7.6991    1.1173    0.0413 C.ar    1  LIG1       -0.0022
     29 C          10.5344    1.1314   -0.0254 C.ar    1  LIG1        0.0016
     30 H          10.4037   -0.6450    1.1533 H       1  LIG1        0.0635
     31 C           8.3957    2.1284   -0.6229 C.ar    1  LIG1       -0.0350
     32 C           9.7961    2.1486   -0.6705 C.ar    1  LIG1        0.0601
     33 H           7.8412    2.9139   -1.1245 H       1  LIG1        0.0637
     34 S           7.5606   -1.1749    1.5770 S.3     1  LIG1       -0.1420
     35 H           8.6607   -1.7853    2.0577 H       1  LIG1        0.1071
     36 N          10.9649    4.0469   -2.0017 N.1     1  LIG1       -0.1908
     37 C          10.4524    3.1944   -1.3985 C.1     1  LIG1        0.0998
     38 C          12.7735    0.1305   -0.6822 C.ar    1  LIG1        0.0126
     39 C          14.1752    0.1662   -0.6342 C.ar    1  LIG1       -0.0468
     40 C          12.0276    1.1312   -0.0211 C.ar    1  LIG1       -0.0022
     41 C          14.8384    1.1729    0.0524 C.ar    1  LIG1       -0.0433
     42 H          14.7546   -0.5982   -1.1419 H       1  LIG1        0.0629
     43 C          12.7060    2.1438    0.6623 C.ar    1  LIG1       -0.0355
     44 C          14.1062    2.1740    0.7095 C.ar    1  LIG1        0.0524
     45 H          12.1379    2.9163    1.1690 H       1  LIG1        0.0637
     46 H          15.9223    1.1896    0.0822 H       1  LIG1        0.0631
     47 S          11.9075   -1.1437   -1.5844 S.3     1  LIG1       -0.1420
     48 H          13.0106   -1.7151   -2.1050 H       1  LIG1        0.1071
     49 N          15.3446    4.0413    2.0205 N.1     1  LIG1       -0.1909
     50 C          14.7848    3.2099    1.4300 C.1     1  LIG1        0.0992
@<TRIPOS>BOND
     1    48    47    1
     2    12    13    3
     3    23    22    1
     4    36    37    3
     5    47    38    1
     6    22    14    1
     7    13     7    1
     8    37    32    1
     9     8     6    1
    10    42    39    1
    11    18    15    1
    12    33    31    1
    13     7     6   ar
    14     7     4   ar
    15    38    39   ar
    16    38    40   ar
    17    32    31   ar
    18    32    29   ar
    19    14    15   ar
    20    14    16   ar
    21     6     3   ar
    22    39    41   ar
    23    15    17   ar
    24    31    28   ar
    25     4    16    1
    26     4     2   ar
    27    16    19   ar
    28    29    40    1
    29    29    27   ar
    30    40    43   ar
    31     3     9    1
    32     3     1   ar
    33    28    17    1
    34    28    26   ar
    35    17    20   ar
    36    41    46    1
    37    41    44   ar
    38    19    20   ar
    39    19    21    1
    40    27    26   ar
    41    27    30    1
    42     2     1   ar
    43     2     5    1
    44    43    44   ar
    45    43    45    1
    46    26    34    1
    47    20    25    1
    48     1    10    1
    49    44    50    1
    50    25    24    3
    51    50    49    3
    52    10    11    1
    53    34    35    1
