@<TRIPOS>MOLECULE
mol_data/opt/b3lyp/geoms/mol2/4gd4gd-.out
 26 27 0 0 0
SMALL
GASTEIGER

@<TRIPOS>ATOM
      1 C          -0.0043    0.2399   -0.6480 C.ar    1  LIG1        0.0054
      2 C           1.3962    0.2352   -0.6317 C.ar    1  LIG1       -0.0396
      3 C          -0.6977    1.2593    0.0213 C.ar    1  LIG1       -0.0473
      4 C           2.1180    1.2231    0.0441 C.ar    1  LIG1        0.0016
      5 H           1.9446   -0.5392   -1.1580 H       1  LIG1        0.0635
      6 C           0.0039    2.2490    0.6933 C.ar    1  LIG1       -0.0427
      7 C           1.4091    2.2443    0.7165 C.ar    1  LIG1        0.0596
      8 H          -0.5308    3.0354    1.2150 H       1  LIG1        0.0631
      9 H          -1.7829    1.2762    0.0177 H       1  LIG1        0.0629
     10 S          -0.9616   -0.9930   -1.5016 S.3     1  LIG1       -0.1426
     11 H           0.0749   -1.7532   -1.9036 H       1  LIG1        0.1071
     12 N           2.6244    4.1217    2.0353 N.1     1  LIG1       -0.1909
     13 C           2.0957    3.2734    1.4397 C.1     1  LIG1        0.0998
     14 C           4.3514    0.1863    0.6667 C.ar    1  LIG1        0.0126
     15 C           5.7530    0.2001    0.5979 C.ar    1  LIG1       -0.0468
     16 C           3.6114    1.1995    0.0178 C.ar    1  LIG1       -0.0022
     17 C           6.4223    1.1967   -0.0975 C.ar    1  LIG1       -0.0433
     18 H           6.3274   -0.5742    1.0961 H       1  LIG1        0.0629
     19 C           4.2965    2.2010   -0.6747 C.ar    1  LIG1       -0.0355
     20 C           5.6964    2.2098   -0.7429 C.ar    1  LIG1        0.0524
     21 H           3.7335    2.9828   -1.1725 H       1  LIG1        0.0637
     22 H           7.5059    1.1960   -0.1432 H       1  LIG1        0.0631
     23 S           3.4782   -1.0754    1.5776 S.3     1  LIG1       -0.1420
     24 H           4.5800   -1.6709    2.0737 H       1  LIG1        0.1071
     25 N           6.9352    4.0635   -2.0725 N.1     1  LIG1       -0.1909
     26 C           6.3776    3.2369   -1.4730 C.1     1  LIG1        0.0992
@<TRIPOS>BOND
     1    25    26    3
     2    11    10    1
     3    10     1    1
     4    26    20    1
     5    21    19    1
     6     5     2    1
     7    20    19   ar
     8    20    17   ar
     9    19    16   ar
    10     1     2   ar
    11     1     3   ar
    12     2     4   ar
    13    22    17    1
    14    17    15   ar
    15     9     3    1
    16    16     4    1
    17    16    14   ar
    18     3     6   ar
    19     4     7   ar
    20    15    14   ar
    21    15    18    1
    22    14    23    1
    23     6     7   ar
    24     6     8    1
    25     7    13    1
    26    13    12    3
    27    23    24    1
