@<TRIPOS>MOLECULE
mol_data/opt/b3lyp/geoms/mol2/4gd4gd-4gd.out
 38 40 0 0 0
SMALL
GASTEIGER

@<TRIPOS>ATOM
      1 C          -0.1279    0.1460   -0.4439 C.ar    1  LIG1        0.0054
      2 C           1.2723    0.1337   -0.4173 C.ar    1  LIG1       -0.0396
      3 C          -0.8158    1.2810    0.0108 C.ar    1  LIG1       -0.0473
      4 C           1.9983    1.2292    0.0583 C.ar    1  LIG1        0.0016
      5 H           1.8169   -0.7324   -0.7790 H       1  LIG1        0.0635
      6 C          -0.1096    2.3774    0.4825 C.ar    1  LIG1       -0.0427
      7 C           1.2953    2.3672    0.5148 C.ar    1  LIG1        0.0596
      8 H          -0.6403    3.2540    0.8378 H       1  LIG1        0.0631
      9 H          -1.9007    1.3048   -0.0034 H       1  LIG1        0.0629
     10 S          -1.0918   -1.2216   -1.0481 S.3     1  LIG1       -0.1426
     11 H          -0.0594   -2.0496   -1.2978 H       1  LIG1        0.1071
     12 N           2.5289    4.4518    1.4489 N.1     1  LIG1       -0.1909
     13 C           1.9893    3.5109    1.0277 C.1     1  LIG1        0.0998
     14 C           4.2219    0.3166    0.8830 C.ar    1  LIG1        0.0131
     15 C           5.6221    0.3154    0.8261 C.ar    1  LIG1       -0.0390
     16 C           3.4911    1.1908    0.0494 C.ar    1  LIG1       -0.0022
     17 C           6.3261    1.1548   -0.0382 C.ar    1  LIG1        0.0016
     18 H           6.1864   -0.3439    1.4774 H       1  LIG1        0.0635
     19 C           4.1931    2.0369   -0.8102 C.ar    1  LIG1       -0.0350
     20 C           5.5932    2.0297   -0.8707 C.ar    1  LIG1        0.0601
     21 H           3.6429    2.7119   -1.4564 H       1  LIG1        0.0637
     22 S           3.3400   -0.7423    2.0146 S.3     1  LIG1       -0.1420
     23 H           4.4370   -1.2568    2.6031 H       1  LIG1        0.1071
     24 N           6.7644    3.6058   -2.5693 N.1     1  LIG1       -0.1908
     25 C           6.2529    2.8982   -1.8005 C.1     1  LIG1        0.0998
     26 C           8.5456    0.0160   -0.5089 C.ar    1  LIG1        0.0126
     27 C           9.9482    0.0421   -0.4841 C.ar    1  LIG1       -0.0468
     28 C           7.8193    1.1357   -0.0472 C.ar    1  LIG1       -0.0022
     29 C          10.6310    1.1545   -0.0140 C.ar    1  LIG1       -0.0433
     30 H          10.5126   -0.8141   -0.8393 H       1  LIG1        0.0629
     31 C           8.5172    2.2527    0.4194 C.ar    1  LIG1       -0.0355
     32 C           9.9182    2.2735    0.4443 C.ar    1  LIG1        0.0524
     33 H           7.9640    3.1160    0.7728 H       1  LIG1        0.0637
     34 H          11.7153    1.1627   -0.0001 H       1  LIG1        0.0631
     35 S           7.6534   -1.3980   -1.1346 S.3     1  LIG1       -0.1420
     36 H           8.7424   -2.0724   -1.5513 H       1  LIG1        0.1071
     37 N          11.1929    4.3451    1.3510 N.1     1  LIG1       -0.1909
     38 C          10.6171    3.4211    0.9412 C.1     1  LIG1        0.0992
@<TRIPOS>BOND
     1    24    25    3
     2    25    20    1
     3    36    35    1
     4    21    19    1
     5    11    10    1
     6    35    26    1
     7    10     1    1
     8    20    19   ar
     9    20    17   ar
    10    30    27    1
    11    19    16   ar
    12     5     2    1
    13    26    27   ar
    14    26    28   ar
    15    27    29   ar
    16     1     2   ar
    17     1     3   ar
    18     2     4   ar
    19    28    17    1
    20    28    31   ar
    21    17    15   ar
    22    29    34    1
    23    29    32   ar
    24     9     3    1
    25     3     6   ar
    26    16     4    1
    27    16    14   ar
    28     4     7   ar
    29    31    32   ar
    30    31    33    1
    31    32    38    1
    32     6     7   ar
    33     6     8    1
    34     7    13    1
    35    15    14   ar
    36    15    18    1
    37    14    22    1
    38    38    37    3
    39    13    12    3
    40    22    23    1
