@<TRIPOS>MOLECULE
mol_data/opt/b3lyp/geoms/mol2/4gd4gd-4gd4gd.out
 50 53 0 0 0
SMALL
GASTEIGER

@<TRIPOS>ATOM
      1 C          -0.2515    0.2767   -0.6780 C.ar    1  LIG1        0.0054
      2 C           1.1486    0.2460   -0.6455 C.ar    1  LIG1       -0.0396
      3 C          -0.9338    1.3038   -0.0087 C.ar    1  LIG1       -0.0473
      4 C           1.8792    1.2168    0.0449 C.ar    1  LIG1        0.0016
      5 H           1.6889   -0.5352   -1.1701 H       1  LIG1        0.0635
      6 C          -0.2226    2.2760    0.6787 C.ar    1  LIG1       -0.0427
      7 C           1.1818    2.2463    0.7169 C.ar    1  LIG1        0.0596
      8 H          -0.7492    3.0681    1.1998 H       1  LIG1        0.0631
      9 H          -2.0183    1.3408   -0.0252 H       1  LIG1        0.0629
     10 S          -1.2212   -0.9327   -1.5502 S.3     1  LIG1       -0.1426
     11 H          -0.1925   -1.6965   -1.9654 H       1  LIG1        0.1071
     12 N           2.4268    4.0873    2.0591 N.1     1  LIG1       -0.1909
     13 C           1.8815    3.2564    1.4540 C.1     1  LIG1        0.0998
     14 C           4.0926    0.1419    0.6825 C.ar    1  LIG1        0.0131
     15 C           5.4932    0.1448    0.6370 C.ar    1  LIG1       -0.0390
     16 C           3.3718    1.1699    0.0367 C.ar    1  LIG1       -0.0022
     17 C           6.2067    1.1384   -0.0346 C.ar    1  LIG1        0.0016
     18 H           6.0498   -0.6345    1.1467 H       1  LIG1        0.0635
     19 C           4.0836    2.1679   -0.6302 C.ar    1  LIG1       -0.0350
     20 C           5.4840    2.1662   -0.6805 C.ar    1  LIG1        0.0601
     21 H           3.5409    2.9619   -1.1311 H       1  LIG1        0.0637
     22 S           3.1970   -1.1172    1.5720 S.3     1  LIG1       -0.1420
     23 H           4.2868   -1.7472    2.0512 H       1  LIG1        0.1071
     24 N           6.6807    4.0422   -2.0184 N.1     1  LIG1       -0.1908
     25 C           6.1554    3.1997   -1.4120 C.1     1  LIG1        0.0998
     26 C           8.4354    0.1010   -0.6784 C.ar    1  LIG1        0.0131
     27 C           9.8356    0.1278   -0.6362 C.ar    1  LIG1       -0.0390
     28 C           7.6992    1.1178   -0.0327 C.ar    1  LIG1       -0.0022
     29 C          10.5344    1.1341    0.0321 C.ar    1  LIG1        0.0016
     30 H          10.4043   -0.6432   -1.1453 H       1  LIG1        0.0635
     31 C           8.3953    2.1299    0.6303 C.ar    1  LIG1       -0.0350
     32 C           9.7957    2.1512    0.6770 C.ar    1  LIG1        0.0601
     33 H           7.8405    2.9153    1.1317 H       1  LIG1        0.0637
     34 S           7.5613   -1.1757   -1.5664 S.3     1  LIG1       -0.1420
     35 H           8.6615   -1.7858   -2.0474 H       1  LIG1        0.1071
     36 N          10.9639    4.0512    2.0062 N.1     1  LIG1       -0.1908
     37 C          10.4518    3.1979    1.4039 C.1     1  LIG1        0.0998
     38 C          12.7749    0.1354    0.6877 C.ar    1  LIG1        0.0126
     39 C          14.1766    0.1722    0.6386 C.ar    1  LIG1       -0.0468
     40 C          12.0276    1.1352    0.0268 C.ar    1  LIG1       -0.0022
     41 C          14.8383    1.1794   -0.0488 C.ar    1  LIG1       -0.0433
     42 H          14.7570   -0.5915    1.1460 H       1  LIG1        0.0629
     43 C          12.7046    2.1483   -0.6574 C.ar    1  LIG1       -0.0355
     44 C          14.1048    2.1797   -0.7056 C.ar    1  LIG1        0.0524
     45 H          12.1355    2.9200   -1.1639 H       1  LIG1        0.0637
     46 H          15.9222    1.1970   -0.0794 H       1  LIG1        0.0631
     47 S          11.9108   -1.1394    1.5909 S.3     1  LIG1       -0.1420
     48 H          13.0146   -1.7081    2.1128 H       1  LIG1        0.1071
     49 N          15.3406    4.0477   -2.0179 N.1     1  LIG1       -0.1909
     50 C          14.7819    3.2160   -1.4269 C.1     1  LIG1        0.0992
@<TRIPOS>BOND
     1    35    34    1
     2    24    25    3
     3    49    50    3
     4    11    10    1
     5    34    26    1
     6    10     1    1
     7    50    44    1
     8    25    20    1
     9     5     2    1
    10    45    43    1
    11    30    27    1
    12    21    19    1
    13    44    43   ar
    14    44    41   ar
    15    20    19   ar
    16    20    17   ar
    17    26    27   ar
    18    26    28   ar
    19     1     2   ar
    20     1     3   ar
    21    43    40   ar
    22     2     4   ar
    23    27    29   ar
    24    19    16   ar
    25    46    41    1
    26    41    39   ar
    27    17    28    1
    28    17    15   ar
    29    28    31   ar
    30     9     3    1
    31     3     6   ar
    32    40    29    1
    33    40    38   ar
    34    29    32   ar
    35    16     4    1
    36    16    14   ar
    37     4     7   ar
    38    31    32   ar
    39    31    33    1
    40    15    14   ar
    41    15    18    1
    42    39    38   ar
    43    39    42    1
    44    32    37    1
    45     6     7   ar
    46     6     8    1
    47    14    22    1
    48    38    47    1
    49     7    13    1
    50    37    36    3
    51    13    12    3
    52    22    23    1
    53    47    48    1
