@<TRIPOS>MOLECULE
mol_data/opt/b3lyp/geoms/mol2/4gd4gd4gd-4gd-.out
 50 53 0 0 0
SMALL
GASTEIGER

@<TRIPOS>ATOM
      1 C          -0.2532    0.2910    0.6848 C.ar    1  LIG1        0.0054
      2 C           1.1468    0.2592    0.6554 C.ar    1  LIG1       -0.0396
      3 C          -0.9337    1.3094    0.0007 C.ar    1  LIG1       -0.0473
      4 C           1.8793    1.2205   -0.0463 C.ar    1  LIG1        0.0016
      5 H           1.6858   -0.5153    1.1913 H       1  LIG1        0.0635
      6 C          -0.2207    2.2721   -0.6981 C.ar    1  LIG1       -0.0427
      7 C           1.1837    2.2413   -0.7332 C.ar    1  LIG1        0.0596
      8 H          -0.7459    3.0576   -1.2306 H       1  LIG1        0.0631
      9 H          -2.0182    1.3472    0.0146 H       1  LIG1        0.0629
     10 S          -1.2252   -0.9065    1.5709 S.3     1  LIG1       -0.1426
     11 H          -0.1976   -1.6644    1.9993 H       1  LIG1        0.1071
     12 N           2.4321    4.0639   -2.0972 N.1     1  LIG1       -0.1909
     13 C           1.8852    3.2413   -1.4821 C.1     1  LIG1        0.0998
     14 C           4.0927    0.1353   -0.6655 C.ar    1  LIG1        0.0131
     15 C           5.4933    0.1375   -0.6174 C.ar    1  LIG1       -0.0390
     16 C           3.3718    1.1726   -0.0347 C.ar    1  LIG1       -0.0022
     17 C           6.2066    1.1393    0.0421 C.ar    1  LIG1        0.0016
     18 H           6.0500   -0.6491   -1.1157 H       1  LIG1        0.0635
     19 C           4.0834    2.1787    0.6202 C.ar    1  LIG1       -0.0350
     20 C           5.4837    2.1764    0.6729 C.ar    1  LIG1        0.0601
     21 H           3.5407    2.9799    1.1095 H       1  LIG1        0.0637
     22 S           3.1974   -1.1346   -1.5398 S.3     1  LIG1       -0.1420
     23 H           4.2876   -1.7710   -2.0099 H       1  LIG1        0.1071
     24 N           6.6795    4.0692    1.9876 N.1     1  LIG1       -0.1908
     25 C           6.1547    3.2190    1.3916 C.1     1  LIG1        0.0998
     26 C           8.4334    0.1087    0.7035 C.ar    1  LIG1        0.0131
     27 C           9.8337    0.1339    0.6635 C.ar    1  LIG1       -0.0390
     28 C           7.6991    1.1174    0.0431 C.ar    1  LIG1       -0.0022
     29 C          10.5345    1.1307   -0.0168 C.ar    1  LIG1        0.0016
     30 H          10.4009   -0.6307    1.1838 H       1  LIG1        0.0635
     31 C           8.3972    2.1201   -0.6320 C.ar    1  LIG1       -0.0350
     32 C           9.7977    2.1397   -0.6764 C.ar    1  LIG1        0.0601
     33 H           7.8440    2.8993   -1.1447 H       1  LIG1        0.0637
     34 S           7.5568   -1.1554    1.6067 S.3     1  LIG1       -0.1420
     35 H           8.6558   -1.7609    2.0963 H       1  LIG1        0.1071
     36 N          10.9701    4.0209   -2.0287 N.1     1  LIG1       -0.1908
     37 C          10.4560    3.1762   -1.4160 C.1     1  LIG1        0.0998
     38 C          12.7755    0.1219   -0.6549 C.ar    1  LIG1        0.0126
     39 C          14.1772    0.1587   -0.6039 C.ar    1  LIG1       -0.0468
     40 C          12.0276    1.1310   -0.0090 C.ar    1  LIG1       -0.0022
     41 C          14.8382    1.1749    0.0708 C.ar    1  LIG1       -0.0433
     42 H          14.7581   -0.6121   -1.0998 H       1  LIG1        0.0629
     43 C          12.7040    2.1529    0.6624 C.ar    1  LIG1       -0.0355
     44 C          14.1041    2.1844    0.7127 C.ar    1  LIG1        0.0524
     45 H          12.1343    2.9318    1.1574 H       1  LIG1        0.0637
     46 H          15.9221    1.1924    0.1031 H       1  LIG1        0.0631
     47 S          11.9124   -1.1648   -1.5422 S.3     1  LIG1       -0.1420
     48 H          13.0169   -1.7410   -2.0544 H       1  LIG1        0.1071
     49 N          15.3385    4.0695    2.0016 N.1     1  LIG1       -0.1909
     50 C          14.7805    3.2301    1.4209 C.1     1  LIG1        0.0992
@<TRIPOS>BOND
     1    12    13    3
     2    48    47    1
     3    36    37    3
     4    23    22    1
     5    47    38    1
     6    22    14    1
     7    13     7    1
     8    37    32    1
     9     8     6    1
    10    33    31    1
    11    18    15    1
    12    42    39    1
    13     7     6   ar
    14     7     4   ar
    15     6     3   ar
    16    32    31   ar
    17    32    29   ar
    18    14    15   ar
    19    14    16   ar
    20    38    39   ar
    21    38    40   ar
    22    31    28   ar
    23    15    17   ar
    24    39    41   ar
    25     4    16    1
    26     4     2   ar
    27    16    19   ar
    28    29    40    1
    29    29    27   ar
    30    40    43   ar
    31     3     9    1
    32     3     1   ar
    33    17    28    1
    34    17    20   ar
    35    28    26   ar
    36    41    46    1
    37    41    44   ar
    38    19    20   ar
    39    19    21    1
    40     2     1   ar
    41     2     5    1
    42    43    44   ar
    43    43    45    1
    44    27    26   ar
    45    27    30    1
    46    20    25    1
    47     1    10    1
    48    26    34    1
    49    44    50    1
    50    25    24    3
    51    50    49    3
    52    10    11    1
    53    34    35    1
