@<TRIPOS>MOLECULE
mol_data/opt/b3lyp/geoms/mol2/4gd4gd-4gd4gd-.out
 50 53 0 0 0
SMALL
GASTEIGER

@<TRIPOS>ATOM
      1 C          -0.2502    0.2715   -0.6824 C.ar    1  LIG1        0.0054
      2 C           1.1498    0.2414   -0.6474 C.ar    1  LIG1       -0.0396
      3 C          -0.9337    1.3044   -0.0232 C.ar    1  LIG1       -0.0473
      4 C           1.8792    1.2184    0.0356 C.ar    1  LIG1        0.0016
      5 H           1.6911   -0.5443   -1.1643 H       1  LIG1        0.0635
      6 C          -0.2238    2.2827    0.6566 C.ar    1  LIG1       -0.0427
      7 C           1.1805    2.2536    0.6973 C.ar    1  LIG1        0.0596
      8 H          -0.7513    3.0793    1.1699 H       1  LIG1        0.0631
      9 H          -2.0182    1.3410   -0.0417 H       1  LIG1        0.0629
     10 S          -1.2183   -0.9455   -1.5456 S.3     1  LIG1       -0.1426
     11 H          -0.1890   -1.7137   -1.9511 H       1  LIG1        0.1071
     12 N           2.4233    4.1066    2.0251 N.1     1  LIG1       -0.1909
     13 C           1.8789    3.2704    1.4265 C.1     1  LIG1        0.0998
     14 C           4.0913    0.1490    0.6862 C.ar    1  LIG1        0.0131
     15 C           5.4920    0.1513    0.6429 C.ar    1  LIG1       -0.0390
     16 C           3.3718    1.1714    0.0301 C.ar    1  LIG1       -0.0022
     17 C           6.2068    1.1389   -0.0363 C.ar    1  LIG1        0.0016
     18 H           6.0476   -0.6236    1.1603 H       1  LIG1        0.0635
     19 C           4.0848    2.1634   -0.6444 C.ar    1  LIG1       -0.0350
     20 C           5.4853    2.1611   -0.6923 C.ar    1  LIG1        0.0601
     21 H           3.5431    2.9531   -1.1531 H       1  LIG1        0.0637
     22 S           3.1939   -1.1021    1.5852 S.3     1  LIG1       -0.1420
     23 H           4.2829   -1.7269    2.0733 H       1  LIG1        0.1071
     24 N           6.6842    4.0253   -2.0446 N.1     1  LIG1       -0.1908
     25 C           6.1580    3.1881   -1.4317 C.1     1  LIG1        0.0998
     26 C           8.4362    0.0952   -0.6672 C.ar    1  LIG1        0.0131
     27 C           9.8363    0.1218   -0.6228 C.ar    1  LIG1       -0.0390
     28 C           7.6992    1.1179   -0.0316 C.ar    1  LIG1       -0.0022
     29 C          10.5344    1.1338    0.0377 C.ar    1  LIG1        0.0016
     30 H          10.4056   -0.6539   -1.1240 H       1  LIG1        0.0635
     31 C           8.3947    2.1356    0.6235 C.ar    1  LIG1       -0.0350
     32 C           9.7950    2.1568    0.6723 C.ar    1  LIG1        0.0601
     33 H           7.8394    2.9256    1.1171 H       1  LIG1        0.0637
     34 S           7.5630   -1.1890   -1.5452 S.3     1  LIG1       -0.1420
     35 H           8.6637   -1.8032   -2.0198 H       1  LIG1        0.1071
     36 N          10.9619    4.0682    1.9863 N.1     1  LIG1       -0.1908
     37 C          10.4503    3.2097    1.3909 C.1     1  LIG1        0.0998
     38 C          12.7733    0.1399    0.7058 C.ar    1  LIG1        0.0126
     39 C          14.1751    0.1759    0.6588 C.ar    1  LIG1       -0.0468
     40 C          12.0275    1.1342    0.0349 C.ar    1  LIG1       -0.0022
     41 C          14.8384    1.1768   -0.0362 C.ar    1  LIG1       -0.0433
     42 H          14.7544   -0.5835    1.1739 H       1  LIG1        0.0629
     43 C          12.7061    2.1411   -0.6568 C.ar    1  LIG1       -0.0355
     44 C          14.1064    2.1716   -0.7029 C.ar    1  LIG1        0.0524
     45 H          12.1382    2.9087   -1.1710 H       1  LIG1        0.0637
     46 H          15.9224    1.1938   -0.0650 H       1  LIG1        0.0631
     47 S          11.9071   -1.1267    1.6185 S.3     1  LIG1       -0.1420
     48 H          13.0099   -1.6922    2.1460 H       1  LIG1        0.1071
     49 N          15.3451    4.0277   -2.0294 N.1     1  LIG1       -0.1909
     50 C          14.7852    3.2013   -1.4320 C.1     1  LIG1        0.0992
@<TRIPOS>BOND
     1    24    25    3
     2    49    50    3
     3    35    34    1
     4    11    10    1
     5    10     1    1
     6    34    26    1
     7    50    44    1
     8    25    20    1
     9    45    43    1
    10     5     2    1
    11    21    19    1
    12    30    27    1
    13    44    43   ar
    14    44    41   ar
    15    20    19   ar
    16    20    17   ar
    17     1     2   ar
    18     1     3   ar
    19    26    27   ar
    20    26    28   ar
    21    43    40   ar
    22     2     4   ar
    23    19    16   ar
    24    27    29   ar
    25    46    41    1
    26     9     3    1
    27    17    28    1
    28    17    15   ar
    29    41    39   ar
    30    28    31   ar
    31     3     6   ar
    32    16     4    1
    33    16    14   ar
    34    40    29    1
    35    40    38   ar
    36     4     7   ar
    37    29    32   ar
    38    31    32   ar
    39    31    33    1
    40    15    14   ar
    41    15    18    1
    42     6     7   ar
    43     6     8    1
    44    39    38   ar
    45    39    42    1
    46    32    37    1
    47    14    22    1
    48     7    13    1
    49    38    47    1
    50    37    36    3
    51    13    12    3
    52    22    23    1
    53    47    48    1
