@<TRIPOS>MOLECULE
mol_data/opt/b3lyp/geoms/mol2/4ge.out
 15 15 0 0 0
SMALL
GASTEIGER

@<TRIPOS>ATOM
      1 C           0.0969    0.0492    0.0004 C.ar    1  LIG1        0.0048
      2 C           1.4979    0.0414   -0.0000 C.ar    1  LIG1       -0.0474
      3 C          -0.5816    1.2764    0.0003 C.ar    1  LIG1       -0.0474
      4 C           2.2062    1.2379   -0.0005 C.ar    1  LIG1       -0.0453
      5 H           2.0410   -0.8990    0.0001 H       1  LIG1        0.0629
      6 C           0.1275    2.4709   -0.0002 C.ar    1  LIG1       -0.0453
      7 C           1.5351    2.4739   -0.0007 C.ar    1  LIG1        0.0247
      8 H          -0.4050    3.4161   -0.0003 H       1  LIG1        0.0630
      9 H           3.2917    1.2227   -0.0009 H       1  LIG1        0.0630
     10 H          -1.6667    1.2968    0.0006 H       1  LIG1        0.0629
     11 S          -0.8812   -1.4437    0.0011 S.3     1  LIG1       -0.1426
     12 H           0.1480   -2.3125    0.0011 H       1  LIG1        0.1071
     13 C           2.2640    3.7022   -0.0012 C.1     1  LIG1       -0.0697
     14 C           2.8819    4.7430   -0.0016 C.1     1  LIG1       -0.1139
     15 H           3.4253    5.6592   -0.0016 H       1  LIG1        0.1232
@<TRIPOS>BOND
     1    15    14    1
     2    14    13    3
     3    13     7    1
     4     9     4    1
     5     7     4   ar
     6     7     6   ar
     7     4     2   ar
     8     8     6    1
     9     6     3   ar
    10     2     5    1
    11     2     1   ar
    12     3     1   ar
    13     3    10    1
    14     1    11    1
    15    11    12    1
