@<TRIPOS>MOLECULE
mol_data/opt/b3lyp/geoms/mol2/4ge4ge4ge-4ge.out
 54 57 0 0 0
SMALL
GASTEIGER

@<TRIPOS>ATOM
      1 C          -0.2024    0.2585    0.7993 C.ar    1  LIG1        0.0054
      2 C           1.1944    0.2597    0.7280 C.ar    1  LIG1       -0.0396
      3 C          -0.9205    1.2900    0.1793 C.ar    1  LIG1       -0.0474
      4 C           1.8889    1.2645    0.0456 C.ar    1  LIG1       -0.0004
      5 H           1.7650   -0.5240    1.2160 H       1  LIG1        0.0635
      6 C          -0.2439    2.2961   -0.4950 C.ar    1  LIG1       -0.0447
      7 C           1.1613    2.3070   -0.5791 C.ar    1  LIG1        0.0325
      8 H          -0.8010    3.0921   -0.9775 H       1  LIG1        0.0630
      9 H          -2.0053    1.3044    0.2223 H       1  LIG1        0.0629
     10 S          -1.1232   -0.9974    1.6691 S.3     1  LIG1       -0.1426
     11 H          -0.0736   -1.7821    1.9788 H       1  LIG1        0.1071
     12 C           1.8091    3.3562   -1.3007 C.1     1  LIG1       -0.0691
     13 C           2.3203    4.2604   -1.9220 C.1     1  LIG1       -0.1139
     14 H           2.7845    5.0495   -2.4667 H       1  LIG1        0.1232
     15 C           4.1012    0.2055   -0.6230 C.ar    1  LIG1        0.0131
     16 C           5.5007    0.2172   -0.5878 C.ar    1  LIG1       -0.0390
     17 C           3.3814    1.2324    0.0224 C.ar    1  LIG1       -0.0023
     18 C           6.2169    1.2193    0.0706 C.ar    1  LIG1       -0.0004
     19 H           6.0574   -0.5638   -1.0956 H       1  LIG1        0.0635
     20 C           4.0986    2.2381    0.6727 C.ar    1  LIG1       -0.0369
     21 C           5.5018    2.2577    0.7151 C.ar    1  LIG1        0.0330
     22 H           3.5533    3.0321    1.1705 H       1  LIG1        0.0636
     23 S           3.2090   -1.0682   -1.5060 S.3     1  LIG1       -0.1420
     24 H           4.3038   -1.6900   -1.9853 H       1  LIG1        0.1071
     25 C           6.1618    3.3110    1.4198 C.1     1  LIG1       -0.0690
     26 C           6.6866    4.2168    2.0270 C.1     1  LIG1       -0.1139
     27 H           7.1604    5.0084    2.5597 H       1  LIG1        0.1232
     28 C           8.4512    0.1569    0.6549 C.ar    1  LIG1        0.0131
     29 C           9.8489    0.1731    0.5759 C.ar    1  LIG1       -0.0390
     30 C           7.7088    1.1909    0.0476 C.ar    1  LIG1       -0.0023
     31 C          10.5420    1.1864   -0.0898 C.ar    1  LIG1       -0.0004
     32 H          10.4230   -0.6140    1.0540 H       1  LIG1        0.0635
     33 C           8.4033    2.2084   -0.6094 C.ar    1  LIG1       -0.0369
     34 C           9.8043    2.2324   -0.6955 C.ar    1  LIG1        0.0330
     35 H           7.8408    3.0081   -1.0779 H       1  LIG1        0.0636
     36 S           7.5914   -1.1327    1.5478 S.3     1  LIG1       -0.1420
     37 H           8.7027   -1.7528    1.9896 H       1  LIG1        0.1071
     38 C          10.4401    3.2979   -1.4041 C.1     1  LIG1       -0.0690
     39 C          10.9450    4.2140   -2.0126 C.1     1  LIG1       -0.1139
     40 H          11.4028    5.0140   -2.5468 H       1  LIG1        0.1232
     41 C          12.7533    0.1444   -0.7800 C.ar    1  LIG1        0.0126
     42 C          14.1555    0.1554   -0.7483 C.ar    1  LIG1       -0.0468
     43 C          12.0346    1.1613   -0.1160 C.ar    1  LIG1       -0.0024
     44 C          14.8457    1.1558   -0.0784 C.ar    1  LIG1       -0.0453
     45 H          14.7145   -0.6246   -1.2562 H       1  LIG1        0.0629
     46 C          12.7451    2.1641    0.5501 C.ar    1  LIG1       -0.0375
     47 C          14.1483    2.1819    0.5835 C.ar    1  LIG1        0.0253
     48 H          12.1945    2.9490    1.0565 H       1  LIG1        0.0636
     49 H          15.9304    1.1507   -0.0639 H       1  LIG1        0.0630
     50 S          11.8558   -1.1229   -1.6697 S.3     1  LIG1       -0.1420
     51 H          12.9459   -1.7049   -2.2067 H       1  LIG1        0.1071
     52 C          14.8487    3.2162    1.2761 C.1     1  LIG1       -0.0696
     53 C          15.4454    4.0908    1.8626 C.1     1  LIG1       -0.1139
     54 H          15.9681    4.8617    2.3795 H       1  LIG1        0.1232
@<TRIPOS>BOND
     1    40    39    1
     2    14    13    1
     3    51    50    1
     4    39    38    3
     5    24    23    1
     6    13    12    3
     7    50    41    1
     8    23    15    1
     9    38    34    1
    10    12     7    1
    11    45    42    1
    12    19    16    1
    13    35    33    1
    14     8     6    1
    15    41    42   ar
    16    41    43   ar
    17    42    44   ar
    18    34    33   ar
    19    34    31   ar
    20    15    16   ar
    21    15    17   ar
    22    33    30   ar
    23    16    18   ar
    24     7     6   ar
    25     7     4   ar
    26     6     3   ar
    27    43    31    1
    28    43    46   ar
    29    31    29   ar
    30    44    49    1
    31    44    47   ar
    32    17     4    1
    33    17    20   ar
    34     4     2   ar
    35    30    18    1
    36    30    28   ar
    37    18    21   ar
    38     3     9    1
    39     3     1   ar
    40    46    47   ar
    41    46    48    1
    42    29    28   ar
    43    29    32    1
    44    47    52    1
    45    28    36    1
    46    20    21   ar
    47    20    22    1
    48    21    25    1
    49     2     1   ar
    50     2     5    1
    51     1    10    1
    52    52    53    3
    53    25    26    3
    54    36    37    1
    55    10    11    1
    56    53    54    1
    57    26    27    1
