@<TRIPOS>MOLECULE
mol_data/opt/b3lyp/geoms/mol2/4ge4ge-.out
 28 29 0 0 0
SMALL
GASTEIGER

@<TRIPOS>ATOM
      1 C           0.0624    0.2354   -0.8088 C.ar    1  LIG1        0.0054
      2 C           1.4561    0.2443   -0.6914 C.ar    1  LIG1       -0.0396
      3 C          -0.6792    1.2801   -0.2409 C.ar    1  LIG1       -0.0474
      4 C           2.1247    1.2680   -0.0112 C.ar    1  LIG1       -0.0004
      5 H           2.0449   -0.5484   -1.1420 H       1  LIG1        0.0635
      6 C          -0.0283    2.3059    0.4291 C.ar    1  LIG1       -0.0447
      7 C           1.3732    2.3234    0.5614 C.ar    1  LIG1        0.0325
      8 H          -0.6035    3.1120    0.8720 H       1  LIG1        0.0630
      9 H          -1.7619    1.2887   -0.3196 H       1  LIG1        0.0629
     10 S          -0.8250   -1.0449   -1.6781 S.3     1  LIG1       -0.1426
     11 H           0.2286   -1.8563   -1.8915 H       1  LIG1        0.1071
     12 C           1.9930    3.3923    1.2785 C.1     1  LIG1       -0.0691
     13 C           2.4801    4.3136    1.8938 C.1     1  LIG1       -0.1139
     14 H           2.9249    5.1172    2.4336 H       1  LIG1        0.1232
     15 C           4.3120    0.2343    0.7647 C.ar    1  LIG1        0.0126
     16 C           5.7146    0.2440    0.7779 C.ar    1  LIG1       -0.0468
     17 C           3.6164    1.2420    0.0632 C.ar    1  LIG1       -0.0024
     18 C           6.4273    1.2334    0.1153 C.ar    1  LIG1       -0.0453
     19 H           6.2560   -0.5286    1.3153 H       1  LIG1        0.0629
     20 C           4.3492    2.2336   -0.5954 C.ar    1  LIG1       -0.0375
     21 C           5.7528    2.2498   -0.5843 C.ar    1  LIG1        0.0253
     22 H           3.8162    3.0111   -1.1311 H       1  LIG1        0.0636
     23 H           7.5120    1.2271    0.1356 H       1  LIG1        0.0630
     24 S           3.3851   -1.0192    1.6434 S.3     1  LIG1       -0.1420
     25 H           4.4584   -1.6037    2.2108 H       1  LIG1        0.1071
     26 C           6.4760    3.2727   -1.2702 C.1     1  LIG1       -0.0696
     27 C           7.0912    4.1382   -1.8510 C.1     1  LIG1       -0.1139
     28 H           7.6302    4.9010   -2.3633 H       1  LIG1        0.1232
@<TRIPOS>BOND
     1    28    27    1
     2    11    10    1
     3    27    26    3
     4    10     1    1
     5    26    21    1
     6     5     2    1
     7    22    20    1
     8     1     2   ar
     9     1     3   ar
    10     2     4   ar
    11    20    21   ar
    12    20    17   ar
    13    21    18   ar
    14     9     3    1
    15     3     6   ar
    16     4    17    1
    17     4     7   ar
    18    17    15   ar
    19    18    23    1
    20    18    16   ar
    21     6     7   ar
    22     6     8    1
    23     7    12    1
    24    15    16   ar
    25    15    24    1
    26    16    19    1
    27    12    13    3
    28    24    25    1
    29    13    14    1
