@<TRIPOS>MOLECULE
mol_data/opt/b3lyp/geoms/mol2/4ge4ge-4ge-4ge-.out
 54 57 0 0 0
SMALL
GASTEIGER

@<TRIPOS>ATOM
      1 C          -0.1882    0.0177    0.2108 C.ar    1  LIG1        0.0054
      2 C           1.2095    0.0639    0.1923 C.ar    1  LIG1       -0.0396
      3 C          -0.9129    1.2172    0.2150 C.ar    1  LIG1       -0.0474
      4 C           1.8991    1.2813    0.1850 C.ar    1  LIG1       -0.0004
      5 H           1.7841   -0.8566    0.1728 H       1  LIG1        0.0635
      6 C          -0.2415    2.4313    0.2012 C.ar    1  LIG1       -0.0447
      7 C           1.1650    2.4926    0.1879 C.ar    1  LIG1        0.0325
      8 H          -0.8035    3.3591    0.2080 H       1  LIG1        0.0630
      9 H          -1.9983    1.2010    0.2313 H       1  LIG1        0.0629
     10 S          -1.1027   -1.5137    0.2094 S.3     1  LIG1       -0.1426
     11 H          -0.0411   -2.3354    0.3173 H       1  LIG1        0.1071
     12 C           1.8079    3.7685    0.1920 C.1     1  LIG1       -0.0691
     13 C           2.3150    4.8674    0.1971 C.1     1  LIG1       -0.1139
     14 H           2.7758    5.8279    0.2025 H       1  LIG1        0.1232
     15 C           4.1727    0.7532    1.1914 C.ar    1  LIG1        0.0131
     16 C           5.5680    0.7446    1.0754 C.ar    1  LIG1       -0.0390
     17 C           3.3914    1.2720    0.1382 C.ar    1  LIG1       -0.0023
     18 C           6.2204    1.2361   -0.0574 C.ar    1  LIG1       -0.0004
     19 H           6.1718    0.3588    1.8905 H       1  LIG1        0.0635
     20 C           4.0453    1.7725   -0.9892 C.ar    1  LIG1       -0.0369
     21 C           5.4435    1.7672   -1.1155 C.ar    1  LIG1        0.0330
     22 H           3.4524    2.1745   -1.8031 H       1  LIG1        0.0636
     23 S           3.3641    0.1529    2.6694 S.3     1  LIG1       -0.1420
     24 H           4.4997   -0.1096    3.3452 H       1  LIG1        0.1071
     25 C           6.0375    2.2775   -2.3105 C.1     1  LIG1       -0.0690
     26 C           6.5087    2.7156   -3.3354 C.1     1  LIG1       -0.1139
     27 H           6.9390    3.0953   -4.2330 H       1  LIG1        0.1232
     28 C           8.4506    0.0189   -0.1105 C.ar    1  LIG1        0.0131
     29 C           9.8497    0.0695   -0.1266 C.ar    1  LIG1       -0.0390
     30 C           7.7117    1.2200   -0.1101 C.ar    1  LIG1       -0.0023
     31 C          10.5476    1.2788   -0.1569 C.ar    1  LIG1       -0.0004
     32 H          10.4204   -0.8534   -0.1094 H       1  LIG1        0.0635
     33 C           8.4104    2.4284   -0.1412 C.ar    1  LIG1       -0.0369
     34 C           9.8128    2.4893   -0.1654 C.ar    1  LIG1        0.0330
     35 H           7.8504    3.3567   -0.1502 H       1  LIG1        0.0636
     36 S           7.5846   -1.5466   -0.1053 S.3     1  LIG1       -0.1420
     37 H           8.6811   -2.3054   -0.2976 H       1  LIG1        0.1071
     38 C          10.4532    3.7659   -0.2073 C.1     1  LIG1       -0.0690
     39 C          10.9615    4.8635   -0.2433 C.1     1  LIG1       -0.1139
     40 H          11.4226    5.8233   -0.2763 H       1  LIG1        0.1232
     41 C          12.7937    0.7221   -1.2064 C.ar    1  LIG1        0.0126
     42 C          14.1940    0.7086   -1.1249 C.ar    1  LIG1       -0.0468
     43 C          12.0407    1.2653   -0.1434 C.ar    1  LIG1       -0.0024
     44 C          14.8492    1.2268   -0.0167 C.ar    1  LIG1       -0.0453
     45 H          14.7792    0.2916   -1.9388 H       1  LIG1        0.0629
     46 C          12.7164    1.7876    0.9633 C.ar    1  LIG1       -0.0375
     47 C          14.1174    1.7787    1.0497 C.ar    1  LIG1        0.0253
     48 H          12.1400    2.2095    1.7790 H       1  LIG1        0.0636
     49 H          15.9329    1.2092    0.0306 H       1  LIG1        0.0630
     50 S          11.9430    0.0860   -2.6466 S.3     1  LIG1       -0.1420
     51 H          13.0590   -0.1607   -3.3603 H       1  LIG1        0.1071
     52 C          14.7814    2.3146    2.1951 C.1     1  LIG1       -0.0696
     53 C          15.3473    2.7671    3.1646 C.1     1  LIG1       -0.1139
     54 H          15.8428    3.1664    4.0189 H       1  LIG1        0.1232
@<TRIPOS>BOND
     1    27    26    1
     2    51    50    1
     3    26    25    3
     4    50    41    1
     5    25    21    1
     6    45    42    1
     7    22    20    1
     8    41    42   ar
     9    41    43   ar
    10    42    44   ar
    11    21    20   ar
    12    21    18   ar
    13    20    17   ar
    14    37    36    1
    15    40    39    1
    16    39    38    3
    17    38    34    1
    18    34    31   ar
    19    34    33   ar
    20    31    43    1
    21    31    29   ar
    22    35    33    1
    23    43    46   ar
    24    33    30   ar
    25    29    28   ar
    26    29    32    1
    27    28    30   ar
    28    28    36    1
    29    30    18    1
    30    18    16   ar
    31    44    49    1
    32    44    47   ar
    33    17     4    1
    34    17    15   ar
    35     5     2    1
    36     4     7   ar
    37     4     2   ar
    38     7    12    1
    39     7     6   ar
    40    12    13    3
    41     2     1   ar
    42    13    14    1
    43     6     8    1
    44     6     3   ar
    45    10     1    1
    46    10    11    1
    47     1     3   ar
    48     3     9    1
    49    46    47   ar
    50    46    48    1
    51    47    52    1
    52    16    15   ar
    53    16    19    1
    54    15    23    1
    55    52    53    3
    56    23    24    1
    57    53    54    1
