@<TRIPOS>MOLECULE
mol_data/opt/b3lyp/geoms/mol2/4ge4ge-4ge4ge-.out
 54 57 0 0 0
SMALL
GASTEIGER

@<TRIPOS>ATOM
      1 C          -0.2034    0.2530   -0.7762 C.ar    1  LIG1        0.0054
      2 C           1.1935    0.2548   -0.7068 C.ar    1  LIG1       -0.0396
      3 C          -0.9208    1.2887   -0.1624 C.ar    1  LIG1       -0.0474
      4 C           1.8888    1.2644   -0.0322 C.ar    1  LIG1       -0.0004
      5 H           1.7635   -0.5322   -1.1901 H       1  LIG1        0.0635
      6 C          -0.2434    2.2995    0.5040 C.ar    1  LIG1       -0.0447
      7 C           1.1620    2.3111    0.5862 C.ar    1  LIG1        0.0325
      8 H          -0.7999    3.0988    0.9818 H       1  LIG1        0.0630
      9 H          -2.0056    1.3027   -0.2040 H       1  LIG1        0.0629
     10 S          -1.1253   -1.0088   -1.6362 S.3     1  LIG1       -0.1426
     11 H          -0.0760   -1.7957   -1.9416 H       1  LIG1        0.1071
     12 C           1.8106    3.3654    1.2996 C.1     1  LIG1       -0.0691
     13 C           2.3224    4.2741    1.9137 C.1     1  LIG1       -0.1139
     14 H           2.7874    5.0670    2.4523 H       1  LIG1        0.1232
     15 C           4.1021    0.2107    0.6414 C.ar    1  LIG1        0.0131
     16 C           5.5016    0.2221    0.6043 C.ar    1  LIG1       -0.0390
     17 C           3.3814    1.2326   -0.0109 C.ar    1  LIG1       -0.0023
     18 C           6.2168    1.2190   -0.0629 C.ar    1  LIG1       -0.0004
     19 H           6.0590   -0.5549    1.1173 H       1  LIG1        0.0635
     20 C           4.0977    2.2332   -0.6699 C.ar    1  LIG1       -0.0369
     21 C           5.5008    2.2524   -0.7145 C.ar    1  LIG1        0.0330
     22 H           3.5517    3.0233   -1.1731 H       1  LIG1        0.0636
     23 S           3.2111   -1.0561    1.5354 S.3     1  LIG1       -0.1420
     24 H           4.3065   -1.6746    2.0176 H       1  LIG1        0.1071
     25 C           6.1598    3.3003   -1.4282 C.1     1  LIG1       -0.0690
     26 C           6.6837    4.2015   -2.0430 C.1     1  LIG1       -0.1139
     27 H           7.1567    4.9889   -2.5825 H       1  LIG1        0.1232
     28 C           8.4503    0.1523   -0.6423 C.ar    1  LIG1        0.0131
     29 C           9.8482    0.1690   -0.5652 C.ar    1  LIG1       -0.0390
     30 C           7.7088    1.1908   -0.0417 C.ar    1  LIG1       -0.0023
     31 C          10.5421    1.1872    0.0920 C.ar    1  LIG1       -0.0004
     32 H          10.4217   -0.6217   -1.0382 H       1  LIG1        0.0635
     33 C           8.4041    2.2132    0.6067 C.ar    1  LIG1       -0.0369
     34 C           9.8053    2.2377    0.6908 C.ar    1  LIG1        0.0330
     35 H           7.8423    3.0164    1.0700 H       1  LIG1        0.0636
     36 S           7.5893   -1.1439   -1.5244 S.3     1  LIG1       -0.1420
     37 H           8.7001   -1.7680   -1.9621 H       1  LIG1        0.1071
     38 C          10.4420    3.3086    1.3905 C.1     1  LIG1       -0.0690
     39 C          10.9477    4.2292    1.9916 C.1     1  LIG1       -0.1139
     40 H          11.4061    5.0332    2.5191 H       1  LIG1        0.1232
     41 C          12.7542    0.1505    0.7875 C.ar    1  LIG1        0.0126
     42 C          14.1564    0.1611    0.7540 C.ar    1  LIG1       -0.0468
     43 C          12.0348    1.1622    0.1165 C.ar    1  LIG1       -0.0024
     44 C          14.8459    1.1562    0.0754 C.ar    1  LIG1       -0.0453
     45 H          14.7160   -0.6149    1.2673 H       1  LIG1        0.0629
     46 C          12.7445    2.1597   -0.5584 C.ar    1  LIG1       -0.0375
     47 C          14.1477    2.1771   -0.5937 C.ar    1  LIG1        0.0253
     48 H          12.1934    2.9407   -1.0702 H       1  LIG1        0.0636
     49 H          15.9306    1.1509    0.0596 H       1  LIG1        0.0630
     50 S          11.8578   -1.1098    1.6881 S.3     1  LIG1       -0.1420
     51 H          12.9486   -1.6883    2.2275 H       1  LIG1        0.1071
     52 C          14.8473    3.2059   -1.2953 C.1     1  LIG1       -0.0696
     53 C          15.4433    4.0757   -1.8894 C.1     1  LIG1       -0.1139
     54 H          15.9655    4.8426   -2.4130 H       1  LIG1        0.1232
@<TRIPOS>BOND
     1    27    26    1
     2    54    53    1
     3    26    25    3
     4    37    36    1
     5    11    10    1
     6    53    52    3
     7    10     1    1
     8    36    28    1
     9    25    21    1
    10    52    47    1
    11     5     2    1
    12    22    20    1
    13    48    46    1
    14    32    29    1
    15     1     2   ar
    16     1     3   ar
    17    21    20   ar
    18    21    18   ar
    19     2     4   ar
    20    20    17   ar
    21    28    29   ar
    22    28    30   ar
    23    47    46   ar
    24    47    44   ar
    25    29    31   ar
    26    46    43   ar
    27     9     3    1
    28     3     6   ar
    29    18    30    1
    30    18    16   ar
    31    30    33   ar
    32     4    17    1
    33     4     7   ar
    34    17    15   ar
    35    49    44    1
    36    44    42   ar
    37    31    43    1
    38    31    34   ar
    39    43    41   ar
    40     6     7   ar
    41     6     8    1
    42     7    12    1
    43    16    15   ar
    44    16    19    1
    45    33    34   ar
    46    33    35    1
    47    15    23    1
    48    34    38    1
    49    42    41   ar
    50    42    45    1
    51    41    50    1
    52    12    13    3
    53    38    39    3
    54    23    24    1
    55    50    51    1
    56    13    14    1
    57    39    40    1
