@<TRIPOS>MOLECULE
mol_data/opt/b3lyp/geoms/mol2/4ge4ge.out
 28 29 0 0 0
SMALL
GASTEIGER

@<TRIPOS>ATOM
      1 C           0.0754    0.2325    0.8502 C.ar    1  LIG1        0.0054
      2 C           1.4673    0.2421    0.7117 C.ar    1  LIG1       -0.0396
      3 C          -0.6750    1.2780    0.2956 C.ar    1  LIG1       -0.0474
      4 C           2.1250    1.2674    0.0234 C.ar    1  LIG1       -0.0004
      5 H           2.0630   -0.5512    1.1517 H       1  LIG1        0.0635
      6 C          -0.0348    2.3053   -0.3823 C.ar    1  LIG1       -0.0447
      7 C           1.3645    2.3236   -0.5358 C.ar    1  LIG1        0.0325
      8 H          -0.6170    3.1119   -0.8149 H       1  LIG1        0.0630
      9 H          -1.7565    1.2859    0.3908 H       1  LIG1        0.0629
     10 S          -0.7981   -1.0498    1.7303 S.3     1  LIG1       -0.1426
     11 H           0.2591   -1.8606    1.9273 H       1  LIG1        0.1071
     12 C           1.9730    3.3942   -1.2601 C.1     1  LIG1       -0.0691
     13 C           2.4504    4.3168   -1.8811 C.1     1  LIG1       -0.1139
     14 H           2.8866    5.1215   -2.4260 H       1  LIG1        0.1232
     15 C           4.3007    0.2366   -0.7882 C.ar    1  LIG1        0.0126
     16 C           5.7030    0.2470   -0.8229 C.ar    1  LIG1       -0.0468
     17 C           3.6154    1.2422   -0.0739 C.ar    1  LIG1       -0.0024
     18 C           6.4252    1.2353   -0.1690 C.ar    1  LIG1       -0.0453
     19 H           6.2365   -0.5241   -1.3703 H       1  LIG1        0.0629
     20 C           4.3577    2.2327    0.5757 C.ar    1  LIG1       -0.0375
     21 C           5.7610    2.2496    0.5432 C.ar    1  LIG1        0.0253
     22 H           3.8326    3.0087    1.1214 H       1  LIG1        0.0636
     23 H           7.5094    1.2296   -0.2060 H       1  LIG1        0.0630
     24 S           3.3612   -1.0157   -1.6555 S.3     1  LIG1       -0.1420
     25 H           4.4259   -1.5974   -2.2416 H       1  LIG1        0.1071
     26 C           6.4941    3.2714    1.2203 C.1     1  LIG1       -0.0696
     27 C           7.1177    4.1358    1.7938 C.1     1  LIG1       -0.1139
     28 H           7.6640    4.8978    2.2995 H       1  LIG1        0.1232
@<TRIPOS>BOND
     1    14    13    1
     2    25    24    1
     3    13    12    3
     4    24    15    1
     5    19    16    1
     6    12     7    1
     7    16    15   ar
     8    16    18   ar
     9     8     6    1
    10    15    17   ar
    11     7     6   ar
    12     7     4   ar
    13     6     3   ar
    14    23    18    1
    15    18    21   ar
    16    17     4    1
    17    17    20   ar
    18     4     2   ar
    19     3     9    1
    20     3     1   ar
    21    21    20   ar
    22    21    26    1
    23    20    22    1
    24     2     1   ar
    25     2     5    1
    26     1    10    1
    27    26    27    3
    28    10    11    1
    29    27    28    1
