@<TRIPOS>MOLECULE
mol_data/opt/b3lyp/geoms/mol2/4ge4ge-4ge-4ge.out
 54 57 0 0 0
SMALL
GASTEIGER

@<TRIPOS>ATOM
      1 C          -0.1902    0.0282    0.2175 C.ar    1  LIG1        0.0054
      2 C           1.2075    0.0721    0.1953 C.ar    1  LIG1       -0.0396
      3 C          -0.9126    1.2289    0.2403 C.ar    1  LIG1       -0.0474
      4 C           1.8994    1.2882    0.2021 C.ar    1  LIG1       -0.0004
      5 H           1.7803   -0.8491    0.1621 H       1  LIG1        0.0635
      6 C          -0.2390    2.4418    0.2411 C.ar    1  LIG1       -0.0447
      7 C           1.1676    2.5007    0.2239 C.ar    1  LIG1        0.0325
      8 H          -0.7992    3.3705    0.2622 H       1  LIG1        0.0630
      9 H          -1.9980    1.2145    0.2594 H       1  LIG1        0.0629
     10 S          -1.1076   -1.5013    0.1997 S.3     1  LIG1       -0.1426
     11 H          -0.0464   -2.3267    0.2784 H       1  LIG1        0.1071
     12 C           1.8130    3.7752    0.2430 C.1     1  LIG1       -0.0691
     13 C           2.3222    4.8730    0.2612 C.1     1  LIG1       -0.1139
     14 H           2.7849    5.8324    0.2779 H       1  LIG1        0.1232
     15 C           4.1754    0.7437    1.1941 C.ar    1  LIG1        0.0131
     16 C           5.5703    0.7343    1.0735 C.ar    1  LIG1       -0.0390
     17 C           3.3915    1.2769    0.1501 C.ar    1  LIG1       -0.0023
     18 C           6.2197    1.2387   -0.0553 C.ar    1  LIG1       -0.0004
     19 H           6.1761    0.3374    1.8817 H       1  LIG1        0.0635
     20 C           4.0425    1.7903   -0.9731 C.ar    1  LIG1       -0.0369
     21 C           5.4403    1.7842   -1.1041 C.ar    1  LIG1        0.0330
     22 H           3.4476    2.2034   -1.7800 H       1  LIG1        0.0636
     23 S           3.3706    0.1261    2.6671 S.3     1  LIG1       -0.1420
     24 H           4.5080   -0.1477    3.3355 H       1  LIG1        0.1071
     25 C           6.0312    2.3084   -2.2947 C.1     1  LIG1       -0.0690
     26 C           6.4999    2.7583   -3.3156 C.1     1  LIG1       -0.1139
     27 H           6.9279    3.1484   -4.2098 H       1  LIG1        0.1232
     28 C           8.4475    0.0184   -0.1321 C.ar    1  LIG1        0.0131
     29 C           9.8467    0.0668   -0.1523 C.ar    1  LIG1       -0.0390
     30 C           7.7109    1.2208   -0.1131 C.ar    1  LIG1       -0.0023
     31 C          10.5467    1.2751   -0.1689 C.ar    1  LIG1       -0.0004
     32 H          10.4156   -0.8573   -0.1493 H       1  LIG1        0.0635
     33 C           8.4116    2.4282   -0.1306 C.ar    1  LIG1       -0.0369
     34 C           9.8140    2.4869   -0.1588 C.ar    1  LIG1        0.0330
     35 H           7.8533    3.3576   -0.1254 H       1  LIG1        0.0636
     36 S           7.5786   -1.5452   -0.1447 S.3     1  LIG1       -0.1420
     37 H           8.6732   -2.3036   -0.3497 H       1  LIG1        0.1071
     38 C          10.4566    3.7629   -0.1860 C.1     1  LIG1       -0.0690
     39 C          10.9668    4.8600   -0.2091 C.1     1  LIG1       -0.1139
     40 H          11.4294    5.8194   -0.2309 H       1  LIG1        0.1232
     41 C          12.7883    0.7274   -1.2325 C.ar    1  LIG1        0.0126
     42 C          14.1889    0.7103   -1.1557 C.ar    1  LIG1       -0.0468
     43 C          12.0397    1.2588   -0.1605 C.ar    1  LIG1       -0.0024
     44 C          14.8486    1.2136   -0.0433 C.ar    1  LIG1       -0.0453
     45 H          14.7707    0.3023   -1.9766 H       1  LIG1        0.0629
     46 C          12.7200    1.7661    0.9504 C.ar    1  LIG1       -0.0375
     47 C          14.1213    1.7536    1.0321 C.ar    1  LIG1        0.0253
     48 H          12.1470    2.1789    1.7731 H       1  LIG1        0.0636
     49 H          15.9323    1.1933    0.0003 H       1  LIG1        0.0630
     50 S          11.9321    0.1108   -2.6778 S.3     1  LIG1       -0.1420
     51 H          13.0454   -0.1289   -3.3981 H       1  LIG1        0.1071
     52 C          14.7899    2.2740    2.1820 C.1     1  LIG1       -0.0696
     53 C          15.3596    2.7135    3.1552 C.1     1  LIG1       -0.1139
     54 H          15.8587    3.1013    4.0128 H       1  LIG1        0.1232
@<TRIPOS>BOND
     1    27    26    1
     2    51    50    1
     3    26    25    3
     4    50    41    1
     5    25    21    1
     6    45    42    1
     7    22    20    1
     8    41    42   ar
     9    41    43   ar
    10    42    44   ar
    11    21    20   ar
    12    21    18   ar
    13    20    17   ar
    14    37    36    1
    15    40    39    1
    16    39    38    3
    17    38    34    1
    18    31    43    1
    19    31    34   ar
    20    31    29   ar
    21    43    46   ar
    22    34    33   ar
    23    29    32    1
    24    29    28   ar
    25    36    28    1
    26    28    30   ar
    27    33    35    1
    28    33    30   ar
    29    30    18    1
    30    18    16   ar
    31    44    49    1
    32    44    47   ar
    33    17     4    1
    34    17    15   ar
    35     5     2    1
    36     2     4   ar
    37     2     1   ar
    38    10     1    1
    39    10    11    1
    40     4     7   ar
    41     1     3   ar
    42     7     6   ar
    43     7    12    1
    44     3     6   ar
    45     3     9    1
    46     6     8    1
    47    12    13    3
    48    13    14    1
    49    46    47   ar
    50    46    48    1
    51    47    52    1
    52    16    15   ar
    53    16    19    1
    54    15    23    1
    55    52    53    3
    56    23    24    1
    57    53    54    1
