@<TRIPOS>MOLECULE
mol_data/opt/b3lyp/geoms/mol2/4ge4ge4ge-.out
 41 43 0 0 0
SMALL
GASTEIGER

@<TRIPOS>ATOM
      1 C          -0.1012    0.1570    0.4639 C.ar    1  LIG1        0.0054
      2 C           1.2970    0.1654    0.4253 C.ar    1  LIG1       -0.0396
      3 C          -0.8050    1.2867    0.0251 C.ar    1  LIG1       -0.0474
      4 C           2.0066    1.2741   -0.0487 C.ar    1  LIG1       -0.0004
      5 H           1.8562   -0.6960    0.7761 H       1  LIG1        0.0635
      6 C          -0.1133    2.3957   -0.4401 C.ar    1  LIG1       -0.0447
      7 C           1.2935    2.4157   -0.4897 C.ar    1  LIG1        0.0325
      8 H          -0.6593    3.2683   -0.7826 H       1  LIG1        0.0630
      9 H          -1.8904    1.2971    0.0453 H       1  LIG1        0.0629
     10 S          -1.0417   -1.2316    1.0713 S.3     1  LIG1       -0.1426
     11 H          -0.0009   -2.0685    1.2442 H       1  LIG1        0.1071
     12 C           1.9580    3.5755   -0.9940 C.1     1  LIG1       -0.0691
     13 C           2.4840    4.5752   -1.4284 C.1     1  LIG1       -0.1139
     14 H           2.9611    5.4482   -1.8094 H       1  LIG1        0.1232
     15 C           4.2305    0.3444   -0.8550 C.ar    1  LIG1        0.0131
     16 C           5.6292    0.3417   -0.7899 C.ar    1  LIG1       -0.0390
     17 C           3.4992    1.2393   -0.0468 C.ar    1  LIG1       -0.0023
     18 C           6.3331    1.2014    0.0561 C.ar    1  LIG1       -0.0004
     19 H           6.1949   -0.3363   -1.4208 H       1  LIG1        0.0635
     20 C           4.2044    2.1044    0.7919 C.ar    1  LIG1       -0.0369
     21 C           5.6064    2.1078    0.8656 C.ar    1  LIG1        0.0330
     22 H           3.6500    2.7965    1.4158 H       1  LIG1        0.0636
     23 S           3.3545   -0.7420   -1.9735 S.3     1  LIG1       -0.1420
     24 H           4.4580   -1.2698   -2.5382 H       1  LIG1        0.1071
     25 C           6.2548    3.0102    1.7638 C.1     1  LIG1       -0.0690
     26 C           6.7710    3.7861    2.5357 C.1     1  LIG1       -0.1139
     27 H           7.2383    4.4635    3.2123 H       1  LIG1        0.1232
     28 C           8.5459    0.0424    0.5139 C.ar    1  LIG1        0.0126
     29 C           9.9479    0.0561    0.4729 C.ar    1  LIG1       -0.0468
     30 C           7.8258    1.1684    0.0614 C.ar    1  LIG1       -0.0024
     31 C          10.6363    1.1640   -0.0011 C.ar    1  LIG1       -0.0453
     32 H          10.5079   -0.8075    0.8185 H       1  LIG1        0.0629
     33 C           8.5344    2.2774   -0.4096 C.ar    1  LIG1       -0.0375
     34 C           9.9373    2.2981   -0.4512 C.ar    1  LIG1        0.0253
     35 H           7.9827    3.1453   -0.7534 H       1  LIG1        0.0636
     36 H          11.7208    1.1595   -0.0254 H       1  LIG1        0.0630
     37 S           7.6497   -1.3690    1.1526 S.3     1  LIG1       -0.1420
     38 H           8.7408   -2.0431    1.5657 H       1  LIG1        0.1071
     39 C          10.6361    3.4431   -0.9419 C.1     1  LIG1       -0.0696
     40 C          11.2313    4.4115   -1.3577 C.1     1  LIG1       -0.1139
     41 H          11.7527    5.2651   -1.7241 H       1  LIG1        0.1232
@<TRIPOS>BOND
     1    24    23    1
     2    23    15    1
     3    14    13    1
     4    41    40    1
     5    13    12    3
     6    19    16    1
     7    40    39    3
     8    12     7    1
     9    39    34    1
    10    15    16   ar
    11    15    17   ar
    12    16    18   ar
    13     8     6    1
    14    35    33    1
    15     7     6   ar
    16     7     4   ar
    17    34    33   ar
    18    34    31   ar
    19     6     3   ar
    20    33    30   ar
    21     4    17    1
    22     4     2   ar
    23    17    20   ar
    24    36    31    1
    25    31    29   ar
    26     3     9    1
    27     3     1   ar
    28    18    30    1
    29    18    21   ar
    30    30    28   ar
    31     2     1   ar
    32     2     5    1
    33     1    10    1
    34    29    28   ar
    35    29    32    1
    36    28    37    1
    37    20    21   ar
    38    20    22    1
    39    21    25    1
    40    10    11    1
    41    37    38    1
    42    25    26    3
    43    26    27    1
