@<TRIPOS>MOLECULE
mol_data/opt/b3lyp/geoms/mol2/4ge4ge-4ge.out
 41 43 0 0 0
SMALL
GASTEIGER

@<TRIPOS>ATOM
      1 C          -0.1021    0.1560   -0.4478 C.ar    1  LIG1        0.0054
      2 C           1.2960    0.1644   -0.4113 C.ar    1  LIG1       -0.0396
      3 C          -0.8052    1.2889   -0.0161 C.ar    1  LIG1       -0.0474
      4 C           2.0065    1.2765    0.0537 C.ar    1  LIG1       -0.0004
      5 H           1.8548   -0.6995   -0.7566 H       1  LIG1        0.0635
      6 C          -0.1127    2.4011    0.4401 C.ar    1  LIG1       -0.0447
      7 C           1.2942    2.4213    0.4874 C.ar    1  LIG1        0.0325
      8 H          -0.6580    3.2762    0.7770 H       1  LIG1        0.0630
      9 H          -1.8906    1.2993   -0.0348 H       1  LIG1        0.0629
     10 S          -1.0438   -1.2371   -1.0435 S.3     1  LIG1       -0.1426
     11 H          -0.0031   -2.0746   -1.2141 H       1  LIG1        0.1071
     12 C           1.9594    3.5849    0.9822 C.1     1  LIG1       -0.0691
     13 C           2.4858    4.5880    1.4082 C.1     1  LIG1       -0.1139
     14 H           2.9634    5.4638    1.7821 H       1  LIG1        0.1232
     15 C           4.2309    0.3524    0.8646 C.ar    1  LIG1        0.0131
     16 C           5.6295    0.3485    0.7981 C.ar    1  LIG1       -0.0390
     17 C           3.4992    1.2410    0.0497 C.ar    1  LIG1       -0.0023
     18 C           6.3329    1.2005   -0.0559 C.ar    1  LIG1       -0.0004
     19 H           6.1955   -0.3246    1.4340 H       1  LIG1        0.0635
     20 C           4.2039    2.0987   -0.7969 C.ar    1  LIG1       -0.0369
     21 C           5.6058    2.1005   -0.8722 C.ar    1  LIG1        0.0330
     22 H           3.6494    2.7859   -1.4260 H       1  LIG1        0.0636
     23 S           3.3555   -0.7239    1.9930 S.3     1  LIG1       -0.1420
     24 H           4.4592   -1.2506    2.5583 H       1  LIG1        0.1071
     25 C           6.2538    2.9951   -1.7785 C.1     1  LIG1       -0.0690
     26 C           6.7695    3.7644   -2.5574 C.1     1  LIG1       -0.1139
     27 H           7.2363    4.4357   -3.2403 H       1  LIG1        0.1232
     28 C           8.5447    0.0372   -0.5081 C.ar    1  LIG1        0.0126
     29 C           9.9467    0.0506   -0.4692 C.ar    1  LIG1       -0.0468
     30 C           7.8257    1.1667   -0.0627 C.ar    1  LIG1       -0.0024
     31 C          10.6362    1.1616   -0.0040 C.ar    1  LIG1       -0.0453
     32 H          10.5059   -0.8156   -0.8096 H       1  LIG1        0.0629
     33 C           8.5353    2.2788    0.3994 C.ar    1  LIG1       -0.0375
     34 C           9.9383    2.2991    0.4390 C.ar    1  LIG1        0.0253
     35 H           7.9845    3.1493    0.7378 H       1  LIG1        0.0636
     36 H          11.7208    1.1568    0.0189 H       1  LIG1        0.0630
     37 S           7.6471   -1.3781   -1.1354 S.3     1  LIG1       -0.1420
     38 H           8.7375   -2.0573   -1.5419 H       1  LIG1        0.1071
     39 C          10.6383    3.4473    0.9206 C.1     1  LIG1       -0.0696
     40 C          11.2345    4.4183    1.3286 C.1     1  LIG1       -0.1139
     41 H          11.7568    5.2743    1.6881 H       1  LIG1        0.1232
@<TRIPOS>BOND
     1    27    26    1
     2    26    25    3
     3    25    21    1
     4    38    37    1
     5    22    20    1
     6    11    10    1
     7    37    28    1
     8    10     1    1
     9    21    20   ar
    10    21    18   ar
    11    32    29    1
    12    20    17   ar
    13     5     2    1
    14    28    29   ar
    15    28    30   ar
    16    29    31   ar
    17     1     2   ar
    18     1     3   ar
    19     2     4   ar
    20    30    18    1
    21    30    33   ar
    22    18    16   ar
    23     9     3    1
    24     3     6   ar
    25    31    36    1
    26    31    34   ar
    27    17     4    1
    28    17    15   ar
    29     4     7   ar
    30    33    34   ar
    31    33    35    1
    32    34    39    1
    33     6     7   ar
    34     6     8    1
    35     7    12    1
    36    16    15   ar
    37    16    19    1
    38    15    23    1
    39    39    40    3
    40    12    13    3
    41    40    41    1
    42    13    14    1
    43    23    24    1
