@<TRIPOS>MOLECULE
mol_data/opt/b3lyp/geoms/mol2/4ge4ge4ge.out
 41 43 0 0 0
SMALL
GASTEIGER

@<TRIPOS>ATOM
      1 C           0.0218    0.7729    1.4439 C.ar    1  LIG1        0.0054
      2 C           1.4112    0.7622    1.2831 C.ar    1  LIG1       -0.0396
      3 C          -0.7798    1.3238    0.4351 C.ar    1  LIG1       -0.0474
      4 C           2.0166    1.2809    0.1333 C.ar    1  LIG1       -0.0004
      5 H           2.0455    0.3551    2.0642 H       1  LIG1        0.0635
      6 C          -0.1917    1.8486   -0.7068 C.ar    1  LIG1       -0.0447
      7 C           1.2047    1.8381   -0.8849 C.ar    1  LIG1        0.0325
      8 H          -0.8135    2.2712   -1.4889 H       1  LIG1        0.0630
      9 H          -1.8601    1.3392    0.5414 H       1  LIG1        0.0629
     10 S          -0.7862    0.1298    2.8984 S.3     1  LIG1       -0.1426
     11 H           0.3148   -0.3809    3.4822 H       1  LIG1        0.1071
     12 C           1.7597    2.3730   -2.0877 C.1     1  LIG1       -0.0691
     13 C           2.1936    2.8334   -3.1193 C.1     1  LIG1       -0.1139
     14 H           2.5942    3.2324   -4.0223 H       1  LIG1        0.1232
     15 C           4.2427    0.0656   -0.0421 C.ar    1  LIG1        0.0131
     16 C           5.6403    0.1173   -0.1123 C.ar    1  LIG1       -0.0390
     17 C           3.5055    1.2660    0.0228 C.ar    1  LIG1       -0.0023
     18 C           6.3370    1.3273   -0.1330 C.ar    1  LIG1       -0.0004
     19 H           6.2105   -0.8053   -0.1468 H       1  LIG1        0.0635
     20 C           4.2033    2.4751    0.0012 C.ar    1  LIG1       -0.0369
     21 C           5.6037    2.5373   -0.0756 C.ar    1  LIG1        0.0330
     22 H           3.6442    3.4031    0.0425 H       1  LIG1        0.0636
     23 S           3.3758   -1.4991   -0.0481 S.3     1  LIG1       -0.1420
     24 H           4.4654   -2.2533   -0.2911 H       1  LIG1        0.1071
     25 C           6.2438    3.8145   -0.1030 C.1     1  LIG1       -0.0690
     26 C           6.7523    4.9124   -0.1248 C.1     1  LIG1       -0.1139
     27 H           7.2133    5.8725   -0.1458 H       1  LIG1        0.1232
     28 C           8.5388    0.8156   -1.2927 C.ar    1  LIG1        0.0126
     29 C           9.9413    0.8003   -1.2684 C.ar    1  LIG1       -0.0468
     30 C           7.8296    1.3147   -0.1792 C.ar    1  LIG1       -0.0024
     31 C          10.6407    1.2743   -0.1675 C.ar    1  LIG1       -0.0453
     32 H          10.4930    0.4170   -2.1213 H       1  LIG1        0.0629
     33 C           8.5494    1.7931    0.9194 C.ar    1  LIG1       -0.0375
     34 C           9.9528    1.7824    0.9487 C.ar    1  LIG1        0.0253
     35 H           8.0063    2.1819    1.7736 H       1  LIG1        0.0636
     36 H          11.7254    1.2560   -0.1646 H       1  LIG1        0.0630
     37 S           7.6295    0.2382   -2.7215 S.3     1  LIG1       -0.1420
     38 H           8.7151    0.0224   -3.4900 H       1  LIG1        0.1071
     39 C          10.6629    2.2728    2.0868 C.1     1  LIG1       -0.0696
     40 C          11.2677    2.6870    3.0499 C.1     1  LIG1       -0.1139
     41 H          11.7977    3.0524    3.8987 H       1  LIG1        0.1232
@<TRIPOS>BOND
     1    14    13    1
     2    38    37    1
     3    13    12    3
     4    37    28    1
     5    32    29    1
     6    12     7    1
     7     8     6    1
     8    28    29   ar
     9    28    30   ar
    10    29    31   ar
    11     7     6   ar
    12     7     4   ar
    13     6     3   ar
    14    24    23    1
    15    30    18    1
    16    30    33   ar
    17    31    36    1
    18    31    34   ar
    19    19    16    1
    20    27    26    1
    21    18    16   ar
    22    18    21   ar
    23    26    25    3
    24    16    15   ar
    25    25    21    1
    26    21    20   ar
    27    23    15    1
    28    15    17   ar
    29    20    17   ar
    30    20    22    1
    31    17     4    1
    32     4     2   ar
    33     3     9    1
    34     3     1   ar
    35    33    34   ar
    36    33    35    1
    37    34    39    1
    38     2     1   ar
    39     2     5    1
    40     1    10    1
    41    39    40    3
    42    10    11    1
    43    40    41    1
