@<TRIPOS>MOLECULE
mol_data/opt/b3lyp/geoms/mol2/4ge4ge4ge4ge-.out
 54 57 0 0 0
SMALL
GASTEIGER

@<TRIPOS>ATOM
      1 C          -0.1313    0.8421    1.3887 C.ar    1  LIG1        0.0054
      2 C           1.2605    0.8111    1.2522 C.ar    1  LIG1       -0.0396
      3 C          -0.9074    1.3987    0.3632 C.ar    1  LIG1       -0.0474
      4 C           1.8929    1.3153    0.1105 C.ar    1  LIG1       -0.0004
      5 H           1.8752    0.3991    2.0462 H       1  LIG1        0.0635
      6 C          -0.2922    1.9095   -0.7707 C.ar    1  LIG1       -0.0447
      7 C           1.1068    1.8788   -0.9243 C.ar    1  LIG1        0.0325
      8 H          -0.8943    2.3366   -1.5656 H       1  LIG1        0.0630
      9 H          -1.9891    1.4294    0.4505 H       1  LIG1        0.0629
     10 S          -0.9729    0.2178    2.8323 S.3     1  LIG1       -0.1426
     11 H           0.1115   -0.3022    3.4383 H       1  LIG1        0.1071
     12 C           1.6903    2.4002   -2.1195 C.1     1  LIG1       -0.0691
     13 C           2.1489    2.8497   -3.1453 C.1     1  LIG1       -0.1139
     14 H           2.5707    3.2388   -4.0428 H       1  LIG1        0.1232
     15 C           4.1038    0.0674   -0.0228 C.ar    1  LIG1        0.0131
     16 C           5.5028    0.0985   -0.0701 C.ar    1  LIG1       -0.0390
     17 C           3.3831    1.2786    0.0260 C.ar    1  LIG1       -0.0023
     18 C           6.2172    1.2983   -0.0822 C.ar    1  LIG1       -0.0004
     19 H           6.0601   -0.8323   -0.0926 H       1  LIG1        0.0635
     20 C           4.0986    2.4774    0.0132 C.ar    1  LIG1       -0.0369
     21 C           5.5008    2.5191   -0.0400 C.ar    1  LIG1        0.0330
     22 H           3.5524    3.4135    0.0423 H       1  LIG1        0.0636
     23 S           3.2141   -1.4842   -0.0382 S.3     1  LIG1       -0.1420
     24 H           4.2967   -2.2558   -0.2565 H       1  LIG1        0.1071
     25 C           6.1591    3.7872   -0.0603 C.1     1  LIG1       -0.0690
     26 C           6.6826    4.8782   -0.0768 C.1     1  LIG1       -0.1139
     27 H           7.1552    5.8328   -0.0930 H       1  LIG1        0.1232
     28 C           8.4335    0.7383   -1.1943 C.ar    1  LIG1        0.0131
     29 C           9.8324    0.7091   -1.1429 C.ar    1  LIG1       -0.0390
     30 C           7.7091    1.2638   -0.1042 C.ar    1  LIG1       -0.0023
     31 C          10.5438    1.1859   -0.0398 C.ar    1  LIG1       -0.0004
     32 H          10.3926    0.3187   -1.9865 H       1  LIG1        0.0635
     33 C           8.4219    1.7493    0.9938 C.ar    1  LIG1       -0.0369
     34 C           9.8242    1.7225    1.0553 C.ar    1  LIG1        0.0330
     35 H           7.8735    2.1568    1.8356 H       1  LIG1        0.0636
     36 S           7.5497    0.1579   -2.6368 S.3     1  LIG1       -0.1420
     37 H           8.6499   -0.1247   -3.3614 H       1  LIG1        0.1071
     38 C          10.4795    2.2195    2.2237 C.1     1  LIG1       -0.0690
     39 C          11.0006    2.6473    3.2286 C.1     1  LIG1       -0.1139
     40 H          11.4727    3.0196    4.1081 H       1  LIG1        0.1232
     41 C          12.7568   -0.0609   -0.0797 C.ar    1  LIG1        0.0126
     42 C          14.1584   -0.0319   -0.1243 C.ar    1  LIG1       -0.0468
     43 C          12.0365    1.1524   -0.0576 C.ar    1  LIG1       -0.0024
     44 C          14.8466    1.1732   -0.1415 C.ar    1  LIG1       -0.0453
     45 H          14.7186   -0.9618   -0.1422 H       1  LIG1        0.0629
     46 C          12.7450    2.3573   -0.0711 C.ar    1  LIG1       -0.0375
     47 C          14.1475    2.3930   -0.1139 C.ar    1  LIG1        0.0253
     48 H          12.1931    3.2904   -0.0500 H       1  LIG1        0.0636
     49 H          15.9308    1.1785   -0.1754 H       1  LIG1        0.0630
     50 S          11.8625   -1.6102   -0.0252 S.3     1  LIG1       -0.1420
     51 H          12.9556   -2.3909    0.0799 H       1  LIG1        0.1071
     52 C          14.8456    3.6389   -0.1321 C.1     1  LIG1       -0.0696
     53 C          15.4397    4.6933   -0.1483 C.1     1  LIG1       -0.1139
     54 H          15.9604    5.6225   -0.1624 H       1  LIG1        0.1232
@<TRIPOS>BOND
     1    14    13    1
     2    37    36    1
     3    13    12    3
     4    36    28    1
     5    12     7    1
     6    32    29    1
     7     8     6    1
     8    28    29   ar
     9    28    30   ar
    10    29    31   ar
    11     7     6   ar
    12     7     4   ar
    13     6     3   ar
    14    24    23    1
    15    49    44    1
    16    54    53    1
    17    53    52    3
    18    45    42    1
    19    44    42   ar
    20    44    47   ar
    21    52    47    1
    22    42    41   ar
    23    47    46   ar
    24    30    18    1
    25    30    33   ar
    26    27    26    1
    27    19    16    1
    28    18    16   ar
    29    18    21   ar
    30    41    43   ar
    31    41    50    1
    32    26    25    3
    33    46    43   ar
    34    46    48    1
    35    16    15   ar
    36    25    21    1
    37    43    31    1
    38    21    20   ar
    39    31    34   ar
    40    23    15    1
    41    50    51    1
    42    15    17   ar
    43    20    17   ar
    44    20    22    1
    45    17     4    1
    46     4     2   ar
    47     3     9    1
    48     3     1   ar
    49    33    34   ar
    50    33    35    1
    51    34    38    1
    52     2     1   ar
    53     2     5    1
    54     1    10    1
    55    38    39    3
    56    10    11    1
    57    39    40    1
