@<TRIPOS>MOLECULE
mol_data/opt/b3lyp/geoms/mol2/4ge4ge4ge4ge.out
 54 57 0 0 0
SMALL
GASTEIGER

@<TRIPOS>ATOM
      1 C          -0.0637    1.5304    1.6572 C.ar    1  LIG1        0.0054
      2 C           1.3249    1.4787    1.4971 C.ar    1  LIG1       -0.0396
      3 C          -0.8872    1.4325    0.5277 C.ar    1  LIG1       -0.0474
      4 C           1.9084    1.3209    0.2352 C.ar    1  LIG1       -0.0004
      5 H           1.9752    1.5732    2.3609 H       1  LIG1        0.0635
      6 C          -0.3213    1.2851   -0.7305 C.ar    1  LIG1       -0.0447
      7 C           1.0741    1.2234   -0.9055 C.ar    1  LIG1        0.0325
      8 H          -0.9599    1.2051   -1.6038 H       1  LIG1        0.0630
      9 H          -1.9672    1.4677    0.6330 H       1  LIG1        0.0629
     10 S          -0.8442    1.7414    3.2475 S.3     1  LIG1       -0.1426
     11 H           0.2720    1.6254    3.9920 H       1  LIG1        0.1071
     12 C           1.6066    1.0493   -2.2197 C.1     1  LIG1       -0.0691
     13 C           2.0216    0.8997   -3.3466 C.1     1  LIG1       -0.1139
     14 H           2.4059    0.7661   -4.3312 H       1  LIG1        0.1232
     15 C           4.1780    0.2720    0.6944 C.ar    1  LIG1        0.0131
     16 C           5.5726    0.3220    0.5793 C.ar    1  LIG1       -0.0390
     17 C           3.3964    1.2947    0.1183 C.ar    1  LIG1       -0.0023
     18 C           6.2237    1.3513   -0.1041 C.ar    1  LIG1       -0.0004
     19 H           6.1765   -0.4544    1.0378 H       1  LIG1        0.0635
     20 C           4.0486    2.3231   -0.5648 C.ar    1  LIG1       -0.0369
     21 C           5.4455    2.3780   -0.6923 C.ar    1  LIG1        0.0330
     22 H           3.4552    3.1091   -1.0182 H       1  LIG1        0.0636
     23 S           3.3706   -1.0752    1.5503 S.3     1  LIG1       -0.1420
     24 H           4.4856   -1.8124    1.7189 H       1  LIG1        0.1071
     25 C           6.0369    3.4576   -1.4177 C.1     1  LIG1       -0.0690
     26 C           6.5053    4.3844   -2.0389 C.1     1  LIG1       -0.1139
     27 H           6.9336    5.1930   -2.5845 H       1  LIG1        0.1232
     28 C           8.4496    0.3517   -0.8194 C.ar    1  LIG1        0.0131
     29 C           9.8491    0.4005   -0.8092 C.ar    1  LIG1       -0.0390
     30 C           7.7147    1.3629   -0.1664 C.ar    1  LIG1       -0.0023
     31 C          10.5507    1.4328   -0.1829 C.ar    1  LIG1       -0.0004
     32 H          10.4167   -0.3862   -1.2957 H       1  LIG1        0.0635
     33 C           8.4175    2.3956    0.4576 C.ar    1  LIG1       -0.0369
     34 C           9.8199    2.4577    0.4656 C.ar    1  LIG1        0.0330
     35 H           7.8607    3.1828    0.9534 H       1  LIG1        0.0636
     36 S           7.5789   -0.9640   -1.6623 S.3     1  LIG1       -0.1420
     37 H           8.6756   -1.5097   -2.2233 H       1  LIG1        0.1071
     38 C          10.4644    3.5538    1.1175 C.1     1  LIG1       -0.0690
     39 C          10.9763    4.4961    1.6782 C.1     1  LIG1       -0.1139
     40 H          11.4405    5.3210    2.1672 H       1  LIG1        0.1232
     41 C          12.7947    1.5284   -1.3713 C.ar    1  LIG1        0.0126
     42 C          14.1951    1.4719   -1.3127 C.ar    1  LIG1       -0.0468
     43 C          12.0438    1.4116   -0.1820 C.ar    1  LIG1       -0.0024
     44 C          14.8523    1.3092   -0.1013 C.ar    1  LIG1       -0.0453
     45 H          14.7787    1.5604   -2.2240 H       1  LIG1        0.0629
     46 C          12.7216    1.2528    1.0303 C.ar    1  LIG1       -0.0375
     47 C          14.1227    1.1979    1.0955 C.ar    1  LIG1        0.0253
     48 H          12.1468    1.1674    1.9457 H       1  LIG1        0.0636
     49 H          15.9361    1.2685   -0.0730 H       1  LIG1        0.0630
     50 S          11.9411    1.7726   -2.9250 S.3     1  LIG1       -0.1420
     51 H          13.0553    1.9550   -3.6605 H       1  LIG1        0.1071
     52 C          14.7890    1.0300    2.3477 C.1     1  LIG1       -0.0696
     53 C          15.3568    0.8872    3.4070 C.1     1  LIG1       -0.1139
     54 H          15.8542    0.7619    4.3407 H       1  LIG1        0.1232
@<TRIPOS>BOND
     1    14    13    1
     2    51    50    1
     3    13    12    3
     4    50    41    1
     5    27    26    1
     6    45    42    1
     7    37    36    1
     8    12     7    1
     9    26    25    3
    10    36    28    1
    11     8     6    1
    12    25    21    1
    13    41    42   ar
    14    41    43   ar
    15    42    44   ar
    16    32    29    1
    17    22    20    1
    18     7     6   ar
    19     7     4   ar
    20    28    29   ar
    21    28    30   ar
    22    29    31   ar
    23     6     3   ar
    24    21    20   ar
    25    21    18   ar
    26    20    17   ar
    27    31    43    1
    28    31    34   ar
    29    43    46   ar
    30    30    18    1
    31    30    33   ar
    32    18    16   ar
    33    44    49    1
    34    44    47   ar
    35    17     4    1
    36    17    15   ar
    37     4     2   ar
    38    33    34   ar
    39    33    35    1
    40    34    38    1
    41     3     9    1
    42     3     1   ar
    43    16    15   ar
    44    16    19    1
    45    15    23    1
    46    46    47   ar
    47    46    48    1
    48    47    52    1
    49    38    39    3
    50     2     1   ar
    51     2     5    1
    52    23    24    1
    53     1    10    1
    54    39    40    1
    55    52    53    3
    56    10    11    1
    57    53    54    1
