@<TRIPOS>MOLECULE
mol_data/opt/b3lyp/geoms/mol2/4ge4ge-4ge4ge.out
 54 57 0 0 0
SMALL
GASTEIGER

@<TRIPOS>ATOM
      1 C          -0.2038    0.2565   -0.7793 C.ar    1  LIG1        0.0054
      2 C           1.1932    0.2577   -0.7103 C.ar    1  LIG1       -0.0396
      3 C          -0.9208    1.2889   -0.1595 C.ar    1  LIG1       -0.0474
      4 C           1.8888    1.2634   -0.0303 C.ar    1  LIG1       -0.0004
      5 H           1.7629   -0.5267   -1.1982 H       1  LIG1        0.0635
      6 C          -0.2430    2.2958    0.5124 C.ar    1  LIG1       -0.0447
      7 C           1.1624    2.3067    0.5942 C.ar    1  LIG1        0.0325
      8 H          -0.7993    3.0925    0.9948 H       1  LIG1        0.0630
      9 H          -2.0056    1.3033   -0.2008 H       1  LIG1        0.0629
     10 S          -1.1261   -1.0004   -1.6460 S.3     1  LIG1       -0.1426
     11 H          -0.0770   -1.7855   -1.9566 H       1  LIG1        0.1071
     12 C           1.8114    3.3568    1.3135 C.1     1  LIG1       -0.0691
     13 C           2.3237    4.2618    1.9327 C.1     1  LIG1       -0.1139
     14 H           2.7890    5.0515    2.4757 H       1  LIG1        0.1232
     15 C           4.1024    0.2057    0.6365 C.ar    1  LIG1        0.0131
     16 C           5.5019    0.2173    0.5990 C.ar    1  LIG1       -0.0390
     17 C           3.3814    1.2314   -0.0095 C.ar    1  LIG1       -0.0023
     18 C           6.2168    1.2183   -0.0625 C.ar    1  LIG1       -0.0004
     19 H           6.0594   -0.5627    1.1071 H       1  LIG1        0.0635
     20 C           4.0974    2.2359   -0.6629 C.ar    1  LIG1       -0.0369
     21 C           5.5005    2.2555   -0.7077 C.ar    1  LIG1        0.0330
     22 H           3.5513    3.0289   -1.1612 H       1  LIG1        0.0636
     23 S           3.2117   -1.0666    1.5232 S.3     1  LIG1       -0.1420
     24 H           4.3073   -1.6869    2.0026 H       1  LIG1        0.1071
     25 C           6.1594    3.3075   -1.4155 C.1     1  LIG1       -0.0690
     26 C           6.6831    4.2122   -2.0252 C.1     1  LIG1       -0.1139
     27 H           7.1561    5.0028   -2.5602 H       1  LIG1        0.1232
     28 C           8.4505    0.1556   -0.6486 C.ar    1  LIG1        0.0131
     29 C           9.8484    0.1723   -0.5718 C.ar    1  LIG1       -0.0390
     30 C           7.7088    1.1903   -0.0419 C.ar    1  LIG1       -0.0023
     31 C          10.5422    1.1870    0.0911 C.ar    1  LIG1       -0.0004
     32 H          10.4221   -0.6154   -1.0495 H       1  LIG1        0.0635
     33 C           8.4040    2.2092    0.6123 C.ar    1  LIG1       -0.0369
     34 C           9.8051    2.2338    0.6962 C.ar    1  LIG1        0.0330
     35 H           7.8419    3.0095    1.0804 H       1  LIG1        0.0636
     36 S           7.5897   -1.1358   -1.5380 S.3     1  LIG1       -0.1420
     37 H           8.7006   -1.7571   -1.9794 H       1  LIG1        0.1071
     38 C          10.4417    3.3008    1.4019 C.1     1  LIG1       -0.0690
     39 C          10.9473    4.2180    2.0081 C.1     1  LIG1       -0.1139
     40 H          11.4058    5.0190    2.5401 H       1  LIG1        0.1232
     41 C          12.7551    0.1473    0.7796 C.ar    1  LIG1        0.0126
     42 C          14.1573    0.1591    0.7457 C.ar    1  LIG1       -0.0468
     43 C          12.0349    1.1627    0.1150 C.ar    1  LIG1       -0.0024
     44 C          14.8459    1.1587    0.0729 C.ar    1  LIG1       -0.0453
     45 H          14.7175   -0.6197    1.2542 H       1  LIG1        0.0629
     46 C          12.7437    2.1646   -0.5541 C.ar    1  LIG1       -0.0375
     47 C          14.1468    2.1831   -0.5898 C.ar    1  LIG1        0.0253
     48 H          12.1919    2.9483   -1.0610 H       1  LIG1        0.0636
     49 H          15.9306    1.1541    0.0567 H       1  LIG1        0.0630
     50 S          11.8598   -1.1189    1.6730 S.3     1  LIG1       -0.1420
     51 H          12.9511   -1.7005    2.2079 H       1  LIG1        0.1071
     52 C          14.8456    3.2165   -1.2854 C.1     1  LIG1       -0.0696
     53 C          15.4409    4.0903   -1.8745 C.1     1  LIG1       -0.1139
     54 H          15.9624    4.8606   -2.3936 H       1  LIG1        0.1232
@<TRIPOS>BOND
     1    27    26    1
     2    54    53    1
     3    26    25    3
     4    37    36    1
     5    11    10    1
     6    53    52    3
     7    10     1    1
     8    36    28    1
     9    25    21    1
    10    52    47    1
    11     5     2    1
    12    22    20    1
    13    48    46    1
    14    32    29    1
    15     1     2   ar
    16     1     3   ar
    17     2     4   ar
    18    21    20   ar
    19    21    18   ar
    20    20    17   ar
    21    28    29   ar
    22    28    30   ar
    23    47    46   ar
    24    47    44   ar
    25    29    31   ar
    26    46    43   ar
    27     9     3    1
    28     3     6   ar
    29    18    30    1
    30    18    16   ar
    31    30    33   ar
    32     4    17    1
    33     4     7   ar
    34    17    15   ar
    35    49    44    1
    36    44    42   ar
    37    31    43    1
    38    31    34   ar
    39    43    41   ar
    40     6     7   ar
    41     6     8    1
    42     7    12    1
    43    16    15   ar
    44    16    19    1
    45    33    34   ar
    46    33    35    1
    47    15    23    1
    48    34    38    1
    49    42    41   ar
    50    42    45    1
    51    41    50    1
    52    12    13    3
    53    38    39    3
    54    23    24    1
    55    50    51    1
    56    13    14    1
    57    39    40    1
