@<TRIPOS>MOLECULE
mol_data/opt/b3lyp/geoms/mol2/4ge4ge4ge-4ge-.out
 54 57 0 0 0
SMALL
GASTEIGER

@<TRIPOS>ATOM
      1 C          -0.2037    0.2656    0.7973 C.ar    1  LIG1        0.0054
      2 C           1.1932    0.2659    0.7275 C.ar    1  LIG1       -0.0396
      3 C          -0.9208    1.2934    0.1700 C.ar    1  LIG1       -0.0474
      4 C           1.8887    1.2661    0.0394 C.ar    1  LIG1       -0.0004
      5 H           1.7630   -0.5149    1.2212 H       1  LIG1        0.0635
      6 C          -0.2431    2.2949   -0.5100 C.ar    1  LIG1       -0.0447
      7 C           1.1622    2.3048   -0.5926 C.ar    1  LIG1        0.0325
      8 H          -0.7994    3.0879   -0.9982 H       1  LIG1        0.0630
      9 H          -2.0056    1.3084    0.2117 H       1  LIG1        0.0629
     10 S          -1.1259   -0.9844    1.6742 S.3     1  LIG1       -0.1426
     11 H          -0.0769   -1.7676    1.9899 H       1  LIG1        0.1071
     12 C           1.8111    3.3492   -1.3203 C.1     1  LIG1       -0.0691
     13 C           2.3232    4.2493   -1.9467 C.1     1  LIG1       -0.1139
     14 H           2.7883    5.0346   -2.4961 H       1  LIG1        0.1232
     15 C           4.1016    0.2025   -0.6205 C.ar    1  LIG1        0.0131
     16 C           5.5011    0.2140   -0.5838 C.ar    1  LIG1       -0.0390
     17 C           3.3813    1.2334    0.0181 C.ar    1  LIG1       -0.0023
     18 C           6.2168    1.2198    0.0695 C.ar    1  LIG1       -0.0004
     19 H           6.0581   -0.5701   -1.0863 H       1  LIG1        0.0635
     20 C           4.0981    2.2427    0.6633 C.ar    1  LIG1       -0.0369
     21 C           5.5012    2.2621    0.7072 C.ar    1  LIG1        0.0330
     22 H           3.5525    3.0397    1.1558 H       1  LIG1        0.0636
     23 S           3.2100   -1.0762   -1.4969 S.3     1  LIG1       -0.1420
     24 H           4.3051   -1.7006   -1.9720 H       1  LIG1        0.1071
     25 C           6.1607    3.3194    1.4065 C.1     1  LIG1       -0.0690
     26 C           6.6851    4.2286    2.0089 C.1     1  LIG1       -0.1139
     27 H           7.1585    5.0232    2.5375 H       1  LIG1        0.1232
     28 C           8.4502    0.1605    0.6627 C.ar    1  LIG1        0.0131
     29 C           9.8481    0.1759    0.5850 C.ar    1  LIG1       -0.0390
     30 C           7.7087    1.1909    0.0484 C.ar    1  LIG1       -0.0023
     31 C          10.5420    1.1850   -0.0861 C.ar    1  LIG1       -0.0004
     32 H          10.4215   -0.6085    1.0684 H       1  LIG1        0.0635
     33 C           8.4041    2.2043   -0.6141 C.ar    1  LIG1       -0.0369
     34 C           9.8052    2.2274   -0.6989 C.ar    1  LIG1        0.0330
     35 H           7.8423    3.0013   -1.0880 H       1  LIG1        0.0636
     36 S           7.5892   -1.1235    1.5625 S.3     1  LIG1       -0.1420
     37 H           8.7000   -1.7411    2.0094 H       1  LIG1        0.1071
     38 C          10.4419    3.2886   -1.4131 C.1     1  LIG1       -0.0690
     39 C          10.9476    4.2009   -2.0267 C.1     1  LIG1       -0.1139
     40 H          11.4060    4.9976   -2.5652 H       1  LIG1        0.1232
     41 C          12.7538    0.1385   -0.7680 C.ar    1  LIG1        0.0126
     42 C          14.1560    0.1495   -0.7351 C.ar    1  LIG1       -0.0468
     43 C          12.0347    1.1595   -0.1106 C.ar    1  LIG1       -0.0024
     44 C          14.8458    1.1537   -0.0704 C.ar    1  LIG1       -0.0453
     45 H          14.7153   -0.6335   -1.2379 H       1  LIG1        0.0629
     46 C          12.7447    2.1659    0.5503 C.ar    1  LIG1       -0.0375
     47 C          14.1479    2.1837    0.5849 C.ar    1  LIG1        0.0253
     48 H          12.1938    2.9539    1.0516 H       1  LIG1        0.0636
     49 H          15.9305    1.1485   -0.0549 H       1  LIG1        0.0630
     50 S          11.8570   -1.1338   -1.6511 S.3     1  LIG1       -0.1420
     51 H          12.9475   -1.7199   -2.1827 H       1  LIG1        0.1071
     52 C          14.8478    3.2219    1.2722 C.1     1  LIG1       -0.0696
     53 C          15.4441    4.0997    1.8542 C.1     1  LIG1       -0.1139
     54 H          15.9664    4.8736    2.3671 H       1  LIG1        0.1232
@<TRIPOS>BOND
     1    40    39    1
     2    14    13    1
     3    51    50    1
     4    39    38    3
     5    24    23    1
     6    13    12    3
     7    50    41    1
     8    23    15    1
     9    38    34    1
    10    12     7    1
    11    45    42    1
    12    35    33    1
    13    19    16    1
    14     8     6    1
    15    41    42   ar
    16    41    43   ar
    17    42    44   ar
    18    34    33   ar
    19    34    31   ar
    20    15    16   ar
    21    15    17   ar
    22    33    30   ar
    23     7     6   ar
    24     7     4   ar
    25    16    18   ar
    26     6     3   ar
    27    43    31    1
    28    43    46   ar
    29    31    29   ar
    30    44    49    1
    31    44    47   ar
    32    17     4    1
    33    17    20   ar
    34     4     2   ar
    35    30    18    1
    36    30    28   ar
    37    18    21   ar
    38     3     9    1
    39     3     1   ar
    40    46    47   ar
    41    46    48    1
    42    47    52    1
    43    29    28   ar
    44    29    32    1
    45    28    36    1
    46    20    21   ar
    47    20    22    1
    48    21    25    1
    49     2     1   ar
    50     2     5    1
    51     1    10    1
    52    52    53    3
    53    25    26    3
    54    36    37    1
    55    10    11    1
    56    53    54    1
    57    26    27    1
