@<TRIPOS>MOLECULE
mol_data/opt/b3lyp/geoms/mol2/4ge4ge-4ge-.out
 41 43 0 0 0
SMALL
GASTEIGER

@<TRIPOS>ATOM
      1 C          -0.1023    0.1528   -0.4421 C.ar    1  LIG1        0.0054
      2 C           1.2959    0.1610   -0.4050 C.ar    1  LIG1       -0.0396
      3 C          -0.8052    1.2891   -0.0194 C.ar    1  LIG1       -0.0474
      4 C           2.0065    1.2763    0.0519 C.ar    1  LIG1       -0.0004
      5 H           1.8544   -0.7058   -0.7436 H       1  LIG1        0.0635
      6 C          -0.1124    2.4045    0.4287 C.ar    1  LIG1       -0.0447
      7 C           1.2944    2.4245    0.4766 C.ar    1  LIG1        0.0325
      8 H          -0.6576    3.2824    0.7587 H       1  LIG1        0.0630
      9 H          -1.8906    1.2999   -0.0387 H       1  LIG1        0.0629
     10 S          -1.0441   -1.2444   -1.0279 S.3     1  LIG1       -0.1426
     11 H          -0.0038   -2.0841   -1.1897 H       1  LIG1        0.1071
     12 C           1.9599    3.5914    0.9631 C.1     1  LIG1       -0.0691
     13 C           2.4867    4.5973    1.3821 C.1     1  LIG1       -0.1139
     14 H           2.9646    5.4755    1.7497 H       1  LIG1        0.1232
     15 C           4.2307    0.3579    0.8704 C.ar    1  LIG1        0.0131
     16 C           5.6293    0.3534    0.8042 C.ar    1  LIG1       -0.0390
     17 C           3.4991    1.2406    0.0490 C.ar    1  LIG1       -0.0023
     18 C           6.3329    1.1995   -0.0557 C.ar    1  LIG1       -0.0004
     19 H           6.1952   -0.3151    1.4450 H       1  LIG1        0.0635
     20 C           4.2040    2.0921   -0.8036 C.ar    1  LIG1       -0.0369
     21 C           5.6060    2.0935   -0.8786 C.ar    1  LIG1        0.0330
     22 H           3.6496    2.7747   -1.4378 H       1  LIG1        0.0636
     23 S           3.3551   -0.7106    2.0064 S.3     1  LIG1       -0.1420
     24 H           4.4588   -1.2312    2.5774 H       1  LIG1        0.1071
     25 C           6.2542    2.9813   -1.7914 C.1     1  LIG1       -0.0690
     26 C           6.7703    3.7447   -2.5758 C.1     1  LIG1       -0.1139
     27 H           7.2375    4.4108   -3.2635 H       1  LIG1        0.1232
     28 C           8.5455    0.0333   -0.4977 C.ar    1  LIG1        0.0126
     29 C           9.9476    0.0479   -0.4581 C.ar    1  LIG1       -0.0468
     30 C           7.8257    1.1660   -0.0619 C.ar    1  LIG1       -0.0024
     31 C          10.6362    1.1629   -0.0016 C.ar    1  LIG1       -0.0453
     32 H          10.5074   -0.8208   -0.7910 H       1  LIG1        0.0629
     33 C           8.5345    2.2822    0.3917 C.ar    1  LIG1       -0.0375
     34 C           9.9375    2.3036    0.4319 C.ar    1  LIG1        0.0253
     35 H           7.9830    3.1551    0.7227 H       1  LIG1        0.0636
     36 H          11.7208    1.1589    0.0220 H       1  LIG1        0.0630
     37 S           7.6492   -1.3876   -1.1140 S.3     1  LIG1       -0.1420
     38 H           8.7401   -2.0686   -1.5161 H       1  LIG1        0.1071
     39 C          10.6365    3.4560    0.9046 C.1     1  LIG1       -0.0696
     40 C          11.2319    4.4307    1.3052 C.1     1  LIG1       -0.1139
     41 H          11.7535    5.2898    1.6582 H       1  LIG1        0.1232
@<TRIPOS>BOND
     1    27    26    1
     2    26    25    3
     3    25    21    1
     4    38    37    1
     5    22    20    1
     6    11    10    1
     7    37    28    1
     8    10     1    1
     9    21    20   ar
    10    21    18   ar
    11    20    17   ar
    12    32    29    1
    13     5     2    1
    14    28    29   ar
    15    28    30   ar
    16    29    31   ar
    17     1     2   ar
    18     1     3   ar
    19     2     4   ar
    20    30    18    1
    21    30    33   ar
    22    18    16   ar
    23     9     3    1
    24     3     6   ar
    25    31    36    1
    26    31    34   ar
    27    17     4    1
    28    17    15   ar
    29     4     7   ar
    30    33    34   ar
    31    33    35    1
    32     6     7   ar
    33     6     8    1
    34    34    39    1
    35     7    12    1
    36    16    15   ar
    37    16    19    1
    38    15    23    1
    39    39    40    3
    40    12    13    3
    41    40    41    1
    42    13    14    1
    43    23    24    1
