@<TRIPOS>MOLECULE
mol_data/opt/b3lyp/geoms/mol2/4gf.out
 14 14 0 0 0
SMALL
GASTEIGER

@<TRIPOS>ATOM
      1 C           0.1041    0.0655    0.0004 C.ar    1  LIG1        0.0050
      2 C           1.5052    0.0746   -0.0000 C.ar    1  LIG1       -0.0451
      3 C          -0.5788    1.2863    0.0003 C.ar    1  LIG1       -0.0451
      4 C           2.2084    1.2756   -0.0005 C.ar    1  LIG1       -0.0191
      5 H           2.0585   -0.8598    0.0001 H       1  LIG1        0.0630
      6 C           0.1220    2.4910   -0.0002 C.ar    1  LIG1       -0.0191
      7 C           1.5197    2.4920   -0.0006 C.ar    1  LIG1        0.1169
      8 H          -0.4243    3.4318   -0.0003 H       1  LIG1        0.0654
      9 H           3.2938    1.2852   -0.0008 H       1  LIG1        0.0654
     10 H          -1.6640    1.3036    0.0006 H       1  LIG1        0.0630
     11 S          -0.8636   -1.4433    0.0010 S.3     1  LIG1       -0.1426
     12 H           0.1751   -2.3003    0.0011 H       1  LIG1        0.1071
     13 O           2.2635    3.6402   -0.0011 O.3     1  LIG1       -0.5068
     14 H           1.6692    4.4017   -0.0011 H       1  LIG1        0.2921
@<TRIPOS>BOND
     1    14    13    1
     2    13     7    1
     3     9     4    1
     4     7     4   ar
     5     7     6   ar
     6     4     2   ar
     7     8     6    1
     8     6     3   ar
     9     2     5    1
    10     2     1   ar
    11     3     1   ar
    12     3    10    1
    13     1    11    1
    14    11    12    1
