@<TRIPOS>MOLECULE
mol_data/opt/b3lyp/geoms/mol2/4gf4gf-4gf-4gf-.out
 50 53 0 0 0
SMALL
GASTEIGER

@<TRIPOS>ATOM
      1 C          -0.2422    0.0320   -0.1243 C.ar    1  LIG1        0.0055
      2 C           1.1566    0.0484   -0.1031 C.ar    1  LIG1       -0.0373
      3 C          -0.9352    1.2446   -0.1076 C.ar    1  LIG1       -0.0451
      4 C           1.8795    1.2451   -0.0365 C.ar    1  LIG1        0.0257
      5 H           1.7061   -0.8861   -0.1445 H       1  LIG1        0.0636
      6 C          -0.2350    2.4488   -0.0758 C.ar    1  LIG1       -0.0185
      7 C           1.1613    2.4586   -0.0343 C.ar    1  LIG1        0.1246
      8 H          -0.7797    3.3906   -0.0642 H       1  LIG1        0.0654
      9 H          -2.0202    1.2502   -0.1137 H       1  LIG1        0.0630
     10 S          -1.1665   -1.5045   -0.2537 S.3     1  LIG1       -0.1426
     11 H          -0.5921   -2.1404    0.7883 H       1  LIG1        0.1071
     12 O           1.8745    3.6237    0.0105 O.3     1  LIG1       -0.5062
     13 H           1.2573    4.3659    0.0549 H       1  LIG1        0.2922
     14 C           4.0906    0.6177    1.0402 C.ar    1  LIG1        0.0134
     15 C           5.4884    0.5957    0.9865 C.ar    1  LIG1       -0.0367
     16 C           3.3709    1.2231   -0.0071 C.ar    1  LIG1        0.0023
     17 C           6.2089    1.1593   -0.0719 C.ar    1  LIG1        0.0258
     18 H           6.0487    0.1394    1.7962 H       1  LIG1        0.0636
     19 C           4.0891    1.8003   -1.0612 C.ar    1  LIG1       -0.0107
     20 C           5.4814    1.7813   -1.1044 C.ar    1  LIG1        0.1252
     21 H           3.5365    2.2760   -1.8676 H       1  LIG1        0.0661
     22 S           3.2037   -0.0723    2.4417 S.3     1  LIG1       -0.1420
     23 H           4.3042   -0.4082    3.1421 H       1  LIG1        0.1071
     24 O           6.1793    2.3476   -2.1361 O.3     1  LIG1       -0.5061
     25 H           5.5514    2.6798   -2.7910 H       1  LIG1        0.2922
     26 C           8.4211   -0.0895   -0.0330 C.ar    1  LIG1        0.0134
     27 C           9.8195   -0.0492    0.0068 C.ar    1  LIG1       -0.0367
     28 C           7.6988    1.1185   -0.0776 C.ar    1  LIG1        0.0023
     29 C          10.5398    1.1493   -0.0233 C.ar    1  LIG1        0.0258
     30 H          10.3801   -0.9766    0.0639 H       1  LIG1        0.0636
     31 C           8.4172    2.3210   -0.0991 C.ar    1  LIG1       -0.0107
     32 C           9.8094    2.3516   -0.0772 C.ar    1  LIG1        0.1252
     33 H           7.8637    3.2552   -0.1459 H       1  LIG1        0.0661
     34 S           7.5483   -1.6607   -0.0493 S.3     1  LIG1       -0.1420
     35 H           8.6369   -2.4098   -0.3113 H       1  LIG1        0.1071
     36 O          10.5050    3.5304   -0.1000 O.3     1  LIG1       -0.5061
     37 H           9.8780    4.2567   -0.2137 H       1  LIG1        0.2922
     38 C          12.8091    0.4914   -0.9531 C.ar    1  LIG1        0.0128
     39 C          14.2052    0.4813   -0.8212 C.ar    1  LIG1       -0.0445
     40 C          12.0303    1.1377    0.0270 C.ar    1  LIG1        0.0022
     41 C          14.8360    1.1079    0.2462 C.ar    1  LIG1       -0.0191
     42 H          14.8139   -0.0194   -1.5682 H       1  LIG1        0.0630
     43 C          12.6794    1.7683    1.0985 C.ar    1  LIG1       -0.0113
     44 C          14.0681    1.7619    1.2133 C.ar    1  LIG1        0.1175
     45 H          12.0759    2.2747    1.8472 H       1  LIG1        0.0660
     46 H          15.9165    1.1009    0.3403 H       1  LIG1        0.0654
     47 S          12.0072   -0.2784   -2.3663 S.3     1  LIG1       -0.1420
     48 H          13.1465   -0.5264   -3.0414 H       1  LIG1        0.1071
     49 O          14.7297    2.3678    2.2464 O.3     1  LIG1       -0.5067
     50 H          14.0841    2.7922    2.8265 H       1  LIG1        0.2921
@<TRIPOS>BOND
     1    48    47    1
     2    25    24    1
     3    47    38    1
     4    24    20    1
     5    21    19    1
     6    42    39    1
     7    20    19   ar
     8    20    17   ar
     9    19    16   ar
    10    38    39   ar
    11    38    40   ar
    12    39    41   ar
    13    35    34    1
    14    10     1    1
    15    10    11    1
    16    37    36    1
    17    33    31    1
    18     5     2    1
    19     1     3   ar
    20     1     2   ar
    21     9     3    1
    22     3     6   ar
    23     2     4   ar
    24    36    32    1
    25    31    28   ar
    26    31    32   ar
    27    28    17    1
    28    28    26   ar
    29    32    29   ar
    30     6     8    1
    31     6     7   ar
    32    17    15   ar
    33    34    26    1
    34     4     7   ar
    35     4    16    1
    36     7    12    1
    37    26    27   ar
    38    29    27   ar
    39    29    40    1
    40    16    14   ar
    41    27    30    1
    42    12    13    1
    43    40    43   ar
    44    41    46    1
    45    41    44   ar
    46    15    14   ar
    47    15    18    1
    48    14    22    1
    49    43    44   ar
    50    43    45    1
    51    44    49    1
    52    49    50    1
    53    22    23    1
