@<TRIPOS>MOLECULE
mol_data/opt/b3lyp/geoms/mol2/4gf4gf-.out
 26 27 0 0 0
SMALL
GASTEIGER

@<TRIPOS>ATOM
      1 C           0.0115    0.2595   -0.7035 C.ar    1  LIG1        0.0055
      2 C           1.4109    0.2731   -0.6998 C.ar    1  LIG1       -0.0373
      3 C          -0.6786    1.2584   -0.0130 C.ar    1  LIG1       -0.0451
      4 C           2.1378    1.2428   -0.0001 C.ar    1  LIG1        0.0257
      5 H           1.9545   -0.4825   -1.2572 H       1  LIG1        0.0636
      6 C           0.0241    2.2493    0.6693 C.ar    1  LIG1       -0.0185
      7 C           1.4215    2.2460    0.6848 C.ar    1  LIG1        0.1246
      8 H          -0.5174    3.0256    1.2059 H       1  LIG1        0.0654
      9 H          -1.7634    1.2605   -0.0057 H       1  LIG1        0.0630
     10 S          -0.9063   -0.9676   -1.6476 S.3     1  LIG1       -0.1426
     11 H          -0.5653   -2.0498   -0.9156 H       1  LIG1        0.1071
     12 O           2.1382    3.1980    1.3508 O.3     1  LIG1       -0.5062
     13 H           1.5256    3.7881    1.8094 H       1  LIG1        0.2922
     14 C           4.3657    0.1691    0.5563 C.ar    1  LIG1        0.0128
     15 C           5.7654    0.1873    0.4761 C.ar    1  LIG1       -0.0445
     16 C           3.6305    1.2253   -0.0143 C.ar    1  LIG1        0.0022
     17 C           6.4393    1.2324   -0.1433 C.ar    1  LIG1       -0.0191
     18 H           6.3419   -0.6254    0.9079 H       1  LIG1        0.0630
     19 C           4.3213    2.2748   -0.6360 C.ar    1  LIG1       -0.0113
     20 C           5.7135    2.2881   -0.7019 C.ar    1  LIG1        0.1175
     21 H           3.7494    3.0913   -1.0697 H       1  LIG1        0.0660
     22 H           7.5224    1.2441   -0.1999 H       1  LIG1        0.0654
     23 S           3.4954   -1.1620    1.3940 S.3     1  LIG1       -0.1420
     24 H           4.6007   -1.7471    1.8951 H       1  LIG1        0.1071
     25 O           6.4188    3.2954   -1.3010 O.3     1  LIG1       -0.5067
     26 H           5.8000    3.9579   -1.6348 H       1  LIG1        0.2921
@<TRIPOS>BOND
     1    10    11    1
     2    10     1    1
     3    26    25    1
     4    25    20    1
     5     5     2    1
     6    21    19    1
     7     1     2   ar
     8     1     3   ar
     9    20    19   ar
    10    20    17   ar
    11     2     4   ar
    12    19    16   ar
    13    22    17    1
    14    17    15   ar
    15    16     4    1
    16    16    14   ar
    17     3     9    1
    18     3     6   ar
    19     4     7   ar
    20    15    14   ar
    21    15    18    1
    22    14    23    1
    23     6     7   ar
    24     6     8    1
    25     7    12    1
    26    12    13    1
    27    23    24    1
