@<TRIPOS>MOLECULE
mol_data/opt/b3lyp/geoms/mol2/4gf4gf4gf.out
 38 40 0 0 0
SMALL
GASTEIGER

@<TRIPOS>ATOM
      1 C          -0.1072    0.7729    1.0935 C.ar    1  LIG1        0.0055
      2 C           1.2914    0.7500    1.0541 C.ar    1  LIG1       -0.0373
      3 C          -0.8072    1.3257    0.0188 C.ar    1  LIG1       -0.0451
      4 C           2.0076    1.2379   -0.0449 C.ar    1  LIG1        0.0257
      5 H           1.8432    0.3508    1.8987 H       1  LIG1        0.0636
      6 C          -0.1144    1.8457   -1.0725 C.ar    1  LIG1       -0.0185
      7 C           1.2815    1.8019   -1.1148 C.ar    1  LIG1        0.1246
      8 H          -0.6637    2.2758   -1.9073 H       1  LIG1        0.0654
      9 H          -1.8918    1.3469    0.0322 H       1  LIG1        0.0630
     10 S          -1.0129    0.1835    2.5325 S.3     1  LIG1       -0.1426
     11 H          -0.6205   -1.1067    2.4738 H       1  LIG1        0.1071
     12 O           1.9873    2.2948   -2.1743 O.3     1  LIG1       -0.5062
     13 H           1.3678    2.5966   -2.8518 H       1  LIG1        0.2922
     14 C           4.2086   -0.0247    0.0018 C.ar    1  LIG1        0.0134
     15 C           5.6074    0.0020    0.0331 C.ar    1  LIG1       -0.0367
     16 C           3.4982    1.1888   -0.0573 C.ar    1  LIG1        0.0023
     17 C           6.3375    1.1937   -0.0158 C.ar    1  LIG1        0.0258
     18 H           6.1603   -0.9295    0.0986 H       1  LIG1        0.0636
     19 C           4.2259    2.3846   -0.0985 C.ar    1  LIG1       -0.0107
     20 C           5.6188    2.4024   -0.0819 C.ar    1  LIG1        0.1252
     21 H           3.6806    3.3234   -0.1539 H       1  LIG1        0.0661
     22 S           3.3142   -1.5830    0.0191 S.3     1  LIG1       -0.1420
     23 H           4.3933   -2.3553   -0.2113 H       1  LIG1        0.1071
     24 O           6.3265    3.5729   -0.1221 O.3     1  LIG1       -0.5061
     25 H           5.7074    4.3058   -0.2366 H       1  LIG1        0.2922
     26 C           8.5952    0.5198   -0.9599 C.ar    1  LIG1        0.0128
     27 C           9.9919    0.4973   -0.8369 C.ar    1  LIG1       -0.0445
     28 C           7.8284    1.1693    0.0270 C.ar    1  LIG1        0.0022
     29 C          10.6343    1.1148    0.2290 C.ar    1  LIG1       -0.0191
     30 H          10.5918   -0.0059   -1.5892 H       1  LIG1        0.0630
     31 C           8.4887    1.7905    1.0970 C.ar    1  LIG1       -0.0113
     32 C           9.8780    1.7720    1.2033 C.ar    1  LIG1        0.1175
     33 H           7.8937    2.2992    1.8511 H       1  LIG1        0.0660
     34 H          11.7153    1.0986    0.3164 H       1  LIG1        0.0654
     35 S           7.7765   -0.2389   -2.3694 S.3     1  LIG1       -0.1420
     36 H           8.9084   -0.4905   -3.0557 H       1  LIG1        0.1071
     37 O          10.5513    2.3686    2.2339 O.3     1  LIG1       -0.5067
     38 H           9.9134    2.7971    2.8195 H       1  LIG1        0.2921
@<TRIPOS>BOND
     1    36    35    1
     2    13    12    1
     3    35    26    1
     4    12     7    1
     5     8     6    1
     6    30    27    1
     7     7     6   ar
     8     7     4   ar
     9     6     3   ar
    10    26    27   ar
    11    26    28   ar
    12    27    29   ar
    13    25    24    1
    14    23    22    1
    15    21    19    1
    16    24    20    1
    17    19    20   ar
    18    19    16   ar
    19    20    17   ar
    20    16     4    1
    21    16    14   ar
    22     4     2   ar
    23    17    28    1
    24    17    15   ar
    25    14    22    1
    26    14    15   ar
    27     3     9    1
    28     3     1   ar
    29    28    31   ar
    30    15    18    1
    31    29    34    1
    32    29    32   ar
    33     2     1   ar
    34     2     5    1
    35     1    10    1
    36    31    32   ar
    37    31    33    1
    38    32    37    1
    39    37    38    1
    40    11    10    1
