@<TRIPOS>MOLECULE
mol_data/opt/b3lyp/geoms/mol2/4gf4gf4gf-4gf.out
 50 53 0 0 0
SMALL
GASTEIGER

@<TRIPOS>ATOM
      1 C          -0.2438    0.2593    0.7003 C.ar    1  LIG1        0.0055
      2 C           1.1551    0.2590    0.6769 C.ar    1  LIG1       -0.0373
      3 C          -0.9334    1.2838    0.0478 C.ar    1  LIG1       -0.0451
      4 C           1.8816    1.2409   -0.0066 C.ar    1  LIG1        0.0257
      5 H           1.7009   -0.5163    1.2041 H       1  LIG1        0.0636
      6 C          -0.2299    2.2897   -0.6114 C.ar    1  LIG1       -0.0185
      7 C           1.1665    2.2732   -0.6484 C.ar    1  LIG1        0.1246
      8 H          -0.7716    3.0862   -1.1175 H       1  LIG1        0.0654
      9 H          -2.0182    1.2942    0.0495 H       1  LIG1        0.0630
     10 S          -1.1698   -0.9800    1.6177 S.3     1  LIG1       -0.1426
     11 H          -0.6637   -2.0684    1.0012 H       1  LIG1        0.1071
     12 O           1.8830    3.2389   -1.2972 O.3     1  LIG1       -0.5062
     13 H           1.2683    3.8464   -1.7295 H       1  LIG1        0.2922
     14 C           4.0920    0.1444   -0.6011 C.ar    1  LIG1        0.0134
     15 C           5.4897    0.1527   -0.5451 C.ar    1  LIG1       -0.0367
     16 C           3.3730    1.2050   -0.0181 C.ar    1  LIG1        0.0023
     17 C           6.2102    1.1839    0.0670 C.ar    1  LIG1        0.0258
     18 H           6.0508   -0.6577   -0.9989 H       1  LIG1        0.0636
     19 C           4.0912    2.2440    0.5855 C.ar    1  LIG1       -0.0107
     20 C           5.4837    2.2495    0.6309 C.ar    1  LIG1        0.1252
     21 H           3.5389    3.0683    1.0297 H       1  LIG1        0.0661
     22 S           3.2036   -1.1712   -1.4413 S.3     1  LIG1       -0.1420
     23 H           4.3033   -1.8154   -1.8772 H       1  LIG1        0.1071
     24 O           6.1829    3.2679    1.2209 O.3     1  LIG1       -0.5061
     25 H           5.5541    3.8950    1.6015 H       1  LIG1        0.2922
     26 C           8.4282    0.1197    0.7011 C.ar    1  LIG1        0.0134
     27 C           9.8262    0.1376    0.6432 C.ar    1  LIG1       -0.0367
     28 C           7.7008    1.1557    0.0844 C.ar    1  LIG1        0.0023
     29 C          10.5395    1.1537   -0.0013 C.ar    1  LIG1        0.0258
     30 H          10.3933   -0.6536    1.1231 H       1  LIG1        0.0636
     31 C           8.4124    2.1808   -0.5509 C.ar    1  LIG1       -0.0107
     32 C           9.8044    2.1959   -0.5968 C.ar    1  LIG1        0.1252
     33 H           7.8538    2.9871   -1.0193 H       1  LIG1        0.0661
     34 S           7.5547   -1.1771    1.5860 S.3     1  LIG1       -0.1420
     35 H           8.6622   -1.7803    2.0592 H       1  LIG1        0.1071
     36 O          10.4953    3.2007   -1.2187 O.3     1  LIG1       -0.5061
     37 H           9.8613    3.8147   -1.6119 H       1  LIG1        0.2922
     38 C          12.7584    0.0824   -0.6101 C.ar    1  LIG1        0.0128
     39 C          14.1595    0.1049   -0.5570 C.ar    1  LIG1       -0.0445
     40 C          12.0307    1.1349   -0.0211 C.ar    1  LIG1        0.0022
     41 C          14.8436    1.1509    0.0494 C.ar    1  LIG1       -0.0191
     42 H          14.7292   -0.7054   -1.0021 H       1  LIG1        0.0630
     43 C          12.7330    2.1855    0.5870 C.ar    1  LIG1       -0.0113
     44 C          14.1258    2.2038    0.6231 C.ar    1  LIG1        0.1175
     45 H          12.1679    3.0007    1.0312 H       1  LIG1        0.0660
     46 H          15.9277    1.1658    0.0829 H       1  LIG1        0.0654
     47 S          11.8838   -1.2504   -1.4419 S.3     1  LIG1       -0.1420
     48 H          12.9830   -1.8020   -1.9922 H       1  LIG1        0.1071
     49 O          14.8395    3.2140    1.2079 O.3     1  LIG1       -0.5067
     50 H          14.2244    3.8772    1.5473 H       1  LIG1        0.2921
@<TRIPOS>BOND
     1    48    47    1
     2    23    22    1
     3    13    12    1
     4    37    36    1
     5    47    38    1
     6    22    14    1
     7    12     7    1
     8    36    32    1
     9     8     6    1
    10    33    31    1
    11    42    39    1
    12    18    15    1
    13     7     6   ar
    14     7     4   ar
    15     6     3   ar
    16    38    39   ar
    17    38    40   ar
    18    14    15   ar
    19    14    16   ar
    20    32    31   ar
    21    32    29   ar
    22    39    41   ar
    23    31    28   ar
    24    15    17   ar
    25    40    29    1
    26    40    43   ar
    27    16     4    1
    28    16    19   ar
    29     4     2   ar
    30    29    27   ar
    31     3     9    1
    32     3     1   ar
    33    41    46    1
    34    41    44   ar
    35    17    28    1
    36    17    20   ar
    37    28    26   ar
    38    19    20   ar
    39    19    21    1
    40    43    44   ar
    41    43    45    1
    42    44    49    1
    43    20    24    1
    44    27    26   ar
    45    27    30    1
    46     2     1   ar
    47     2     5    1
    48     1    10    1
    49    26    34    1
    50    11    10    1
    51    49    50    1
    52    24    25    1
    53    34    35    1
