@<TRIPOS>MOLECULE
mol_data/opt/b3lyp/geoms/mol2/4gf4gf-4gf4gf-.out
 50 53 0 0 0
SMALL
GASTEIGER

@<TRIPOS>ATOM
      1 C          -0.2426    0.2524   -0.6938 C.ar    1  LIG1        0.0055
      2 C           1.1564    0.2527   -0.6684 C.ar    1  LIG1       -0.0373
      3 C          -0.9333    1.2825   -0.0514 C.ar    1  LIG1       -0.0451
      4 C           1.8816    1.2409    0.0074 C.ar    1  LIG1        0.0257
      5 H           1.7031   -0.5271   -1.1878 H       1  LIG1        0.0636
      6 C          -0.2310    2.2945    0.5998 C.ar    1  LIG1       -0.0185
      7 C           1.1654    2.2787    0.6389 C.ar    1  LIG1        0.1246
      8 H          -0.7736    3.0953    1.0979 H       1  LIG1        0.0654
      9 H          -2.0181    1.2926   -0.0548 H       1  LIG1        0.0630
     10 S          -1.1669   -0.9954   -1.6011 S.3     1  LIG1       -0.1426
     11 H          -0.6618   -2.0780   -0.9737 H       1  LIG1        0.1071
     12 O           1.8807    3.2504    1.2800 O.3     1  LIG1       -0.5062
     13 H           1.2652    3.8617    1.7058 H       1  LIG1        0.2922
     14 C           4.0912    0.1503    0.6152 C.ar    1  LIG1        0.0134
     15 C           5.4890    0.1582    0.5610 C.ar    1  LIG1       -0.0367
     16 C           3.3730    1.2053    0.0212 C.ar    1  LIG1        0.0023
     17 C           6.2102    1.1837   -0.0596 C.ar    1  LIG1        0.0258
     18 H           6.0495   -0.6479    1.0232 H       1  LIG1        0.0636
     19 C           4.0920    2.2387   -0.5910 C.ar    1  LIG1       -0.0107
     20 C           5.4845    2.2439   -0.6344 C.ar    1  LIG1        0.1252
     21 H           3.5403    3.0588   -1.0437 H       1  LIG1        0.0661
     22 S           3.2016   -1.1574    1.4662 S.3     1  LIG1       -0.1420
     23 H           4.3006   -1.7974    1.9099 H       1  LIG1        0.1071
     24 O           6.1844    3.2569   -1.2329 O.3     1  LIG1       -0.5061
     25 H           5.5561    3.8805   -1.6201 H       1  LIG1        0.2922
     26 C           8.4292    0.1133   -0.6798 C.ar    1  LIG1        0.0134
     27 C           9.8271    0.1315   -0.6199 C.ar    1  LIG1       -0.0367
     28 C           7.7009    1.1553   -0.0745 C.ar    1  LIG1        0.0023
     29 C          10.5395    1.1538    0.0156 C.ar    1  LIG1        0.0258
     30 H          10.3948   -0.6644   -1.0910 H       1  LIG1        0.0636
     31 C           8.4116    2.1866    0.5518 C.ar    1  LIG1       -0.0107
     32 C           9.8037    2.2020    0.5997 C.ar    1  LIG1        0.1252
     33 H           7.8525    2.9976    1.0113 H       1  LIG1        0.0661
     34 S           7.5569   -1.1920   -1.5534 S.3     1  LIG1       -0.1420
     35 H           8.6651   -1.7994   -2.0198 H       1  LIG1        0.1071
     36 O          10.4937    3.2128    1.2127 O.3     1  LIG1       -0.5061
     37 H           9.8592    3.8309    1.5985 H       1  LIG1        0.2922
     38 C          12.7574    0.0886    0.6385 C.ar    1  LIG1        0.0128
     39 C          14.1586    0.1107    0.5875 C.ar    1  LIG1       -0.0445
     40 C          12.0307    1.1352    0.0380 C.ar    1  LIG1        0.0022
     41 C          14.8437    1.1507   -0.0282 C.ar    1  LIG1       -0.0191
     42 H          14.7277   -0.6951    1.0415 H       1  LIG1        0.0630
     43 C          12.7339    2.1798   -0.5794 C.ar    1  LIG1       -0.0113
     44 C          14.1268    2.1978   -0.6134 C.ar    1  LIG1        0.1175
     45 H          12.1694    2.9905   -1.0324 H       1  LIG1        0.0660
     46 H          15.9278    1.1654   -0.0601 H       1  LIG1        0.0654
     47 S          11.8817   -1.2359    1.4820 S.3     1  LIG1       -0.1420
     48 H          12.9801   -1.7824    2.0390 H       1  LIG1        0.1071
     49 O          14.8413    3.2023   -1.2071 O.3     1  LIG1       -0.5067
     50 H          14.2267    3.8620   -1.5540 H       1  LIG1        0.2921
@<TRIPOS>BOND
     1    35    34    1
     2    25    24    1
     3    10    11    1
     4    10     1    1
     5    50    49    1
     6    34    26    1
     7    24    20    1
     8    49    44    1
     9     5     2    1
    10    30    27    1
    11    21    19    1
    12    45    43    1
    13     1     2   ar
    14     1     3   ar
    15    26    27   ar
    16    26    28   ar
    17     2     4   ar
    18    20    19   ar
    19    20    17   ar
    20    27    29   ar
    21    44    43   ar
    22    44    41   ar
    23    19    16   ar
    24    43    40   ar
    25    28    17    1
    26    28    31   ar
    27    46    41    1
    28    17    15   ar
    29     9     3    1
    30     3     6   ar
    31    41    39   ar
    32     4    16    1
    33     4     7   ar
    34    29    40    1
    35    29    32   ar
    36    16    14   ar
    37    40    38   ar
    38    31    32   ar
    39    31    33    1
    40    15    14   ar
    41    15    18    1
    42    39    38   ar
    43    39    42    1
    44    32    36    1
    45     6     7   ar
    46     6     8    1
    47    14    22    1
    48    38    47    1
    49     7    12    1
    50    36    37    1
    51    12    13    1
    52    22    23    1
    53    47    48    1
