@<TRIPOS>MOLECULE
mol_data/opt/b3lyp/geoms/mol2/4gf4gf.out
 26 27 0 0 0
SMALL
GASTEIGER

@<TRIPOS>ATOM
      1 C           0.0163    0.2630    0.7277 C.ar    1  LIG1        0.0055
      2 C           1.4156    0.2765    0.7148 C.ar    1  LIG1       -0.0373
      3 C          -0.6784    1.2581    0.0363 C.ar    1  LIG1       -0.0451
      4 C           2.1379    1.2424    0.0050 C.ar    1  LIG1        0.0257
      5 H           1.9628   -0.4761    1.2726 H       1  LIG1        0.0636
      6 C           0.0197    2.2452   -0.6560 C.ar    1  LIG1       -0.0185
      7 C           1.4170    2.2418   -0.6807 C.ar    1  LIG1        0.1246
      8 H          -0.5254    3.0185   -1.1933 H       1  LIG1        0.0654
      9 H          -1.7632    1.2602    0.0363 H       1  LIG1        0.0630
     10 S          -0.8955   -0.9593    1.6847 S.3     1  LIG1       -0.1426
     11 H          -0.5593   -2.0453    0.9561 H       1  LIG1        0.1071
     12 O           2.1293    3.1901   -1.3566 O.3     1  LIG1       -0.5062
     13 H           1.5137    3.7779   -1.8142 H       1  LIG1        0.2922
     14 C           4.3624    0.1665   -0.5606 C.ar    1  LIG1        0.0128
     15 C           5.7626    0.1856   -0.4898 C.ar    1  LIG1       -0.0445
     16 C           3.6306    1.2252    0.0096 C.ar    1  LIG1        0.0022
     17 C           6.4401    1.2340    0.1201 C.ar    1  LIG1       -0.0191
     18 H           6.3366   -0.6289   -0.9213 H       1  LIG1        0.0630
     19 C           4.3250    2.2781    0.6215 C.ar    1  LIG1       -0.0113
     20 C           5.7177    2.2922    0.6781 C.ar    1  LIG1        0.1175
     21 H           3.7557    3.0965    1.0548 H       1  LIG1        0.0660
     22 H           7.5236    1.2463    0.1694 H       1  LIG1        0.0654
     23 S           3.4873   -1.1688   -1.3858 S.3     1  LIG1       -0.1420
     24 H           4.5894   -1.7566   -1.8904 H       1  LIG1        0.1071
     25 O           6.4265    3.3026    1.2676 O.3     1  LIG1       -0.5067
     26 H           5.8097    3.9667    1.6022 H       1  LIG1        0.2921
@<TRIPOS>BOND
     1    24    23    1
     2    13    12    1
     3    23    14    1
     4    12     7    1
     5     8     6    1
     6    18    15    1
     7     7     6   ar
     8     7     4   ar
     9     6     3   ar
    10    14    15   ar
    11    14    16   ar
    12    15    17   ar
    13     4    16    1
    14     4     2   ar
    15    16    19   ar
    16     9     3    1
    17     3     1   ar
    18    17    22    1
    19    17    20   ar
    20    19    20   ar
    21    19    21    1
    22    20    25    1
    23     2     1   ar
    24     2     5    1
    25     1    10    1
    26    11    10    1
    27    25    26    1
