@<TRIPOS>MOLECULE
mol_data/opt/b3lyp/geoms/mol2/4gf4gf4gf4gf-.out
 50 53 0 0 0
SMALL
GASTEIGER

@<TRIPOS>ATOM
      1 C          -0.1948    0.7380    1.1973 C.ar    1  LIG1        0.0055
      2 C           1.2020    0.7205    1.1165 C.ar    1  LIG1       -0.0373
      3 C          -0.9275    1.3159    0.1582 C.ar    1  LIG1       -0.0451
      4 C           1.8844    1.2393    0.0101 C.ar    1  LIG1        0.0257
      5 H           1.7790    0.3004    1.9337 H       1  LIG1        0.0636
      6 C          -0.2686    1.8649   -0.9398 C.ar    1  LIG1       -0.0185
      7 C           1.1257    1.8270   -1.0237 C.ar    1  LIG1        0.1246
      8 H          -0.8432    2.3145   -1.7470 H       1  LIG1        0.0654
      9 H          -2.0111    1.3342    0.2048 H       1  LIG1        0.0630
     10 S          -1.0544    0.1065    2.6473 S.3     1  LIG1       -0.1426
     11 H          -0.7045   -1.1904    2.5116 H       1  LIG1        0.1071
     12 O           1.7989    2.3487   -2.0905 O.3     1  LIG1       -0.5062
     13 H           1.1592    2.6629   -2.7431 H       1  LIG1        0.2922
     14 C           4.0886   -0.0176   -0.0434 C.ar    1  LIG1        0.0134
     15 C           5.4874    0.0119   -0.0542 C.ar    1  LIG1       -0.0367
     16 C           3.3742    1.1953   -0.0478 C.ar    1  LIG1        0.0023
     17 C           6.2133    1.2069   -0.0926 C.ar    1  LIG1        0.0258
     18 H           6.0439   -0.9192   -0.0316 H       1  LIG1        0.0636
     19 C           4.0978    2.3937   -0.0783 C.ar    1  LIG1       -0.0107
     20 C           5.4904    2.4149   -0.1037 C.ar    1  LIG1        0.1252
     21 H           3.5493    3.3322   -0.0916 H       1  LIG1        0.0661
     22 S           3.1975   -1.5775   -0.0434 S.3     1  LIG1       -0.1420
     23 H           4.2741   -2.3436   -0.3048 H       1  LIG1        0.1071
     24 O           6.1937    3.5891   -0.1338 O.3     1  LIG1       -0.5061
     25 H           5.5687    4.3219   -0.2111 H       1  LIG1        0.2922
     26 C           8.4515    0.5531   -1.1044 C.ar    1  LIG1        0.0134
     27 C           9.8480    0.5412   -1.0171 C.ar    1  LIG1       -0.0367
     28 C           7.7041    1.1858   -0.0925 C.ar    1  LIG1        0.0023
     29 C          10.5414    1.1395    0.0403 C.ar    1  LIG1        0.0258
     30 H          10.4300    0.0649   -1.7995 H       1  LIG1        0.0636
     31 C           8.3962    1.7973    0.9604 C.ar    1  LIG1       -0.0107
     32 C           9.7869    1.7866    1.0369 C.ar    1  LIG1        0.1252
     33 H           7.8228    2.2948    1.7384 H       1  LIG1        0.0661
     34 S           7.6070   -0.1846   -2.5083 S.3     1  LIG1       -0.1420
     35 H           8.7293   -0.5292   -3.1686 H       1  LIG1        0.1071
     36 O          10.4574    2.3860    2.0687 O.3     1  LIG1       -0.5061
     37 H           9.8110    2.7495    2.6880 H       1  LIG1        0.2922
     38 C          12.7588   -0.0943    0.1106 C.ar    1  LIG1        0.0128
     39 C          14.1604   -0.0501    0.1007 C.ar    1  LIG1       -0.0445
     40 C          12.0321    1.1120    0.0779 C.ar    1  LIG1        0.0022
     41 C          14.8461    1.1578    0.0758 C.ar    1  LIG1       -0.0191
     42 H          14.7293   -0.9749    0.1187 H       1  LIG1        0.0630
     43 C          12.7362    2.3248    0.0535 C.ar    1  LIG1       -0.0113
     44 C          14.1291    2.3572    0.0564 C.ar    1  LIG1        0.1175
     45 H          12.1721    3.2537    0.0381 H       1  LIG1        0.0660
     46 H          15.9304    1.1862    0.0738 H       1  LIG1        0.0654
     47 S          11.8833   -1.6628    0.1930 S.3     1  LIG1       -0.1420
     48 H          12.9767   -2.4081    0.4468 H       1  LIG1        0.1071
     49 O          14.8439    3.5236    0.0333 O.3     1  LIG1       -0.5067
     50 H          14.2289    4.2687    0.0390 H       1  LIG1        0.2921
@<TRIPOS>BOND
     1    35    34    1
     2    13    12    1
     3    34    26    1
     4    12     7    1
     5    30    27    1
     6     8     6    1
     7    26    27   ar
     8    26    28   ar
     9     7     6   ar
    10     7     4   ar
    11    27    29   ar
    12     6     3   ar
    13    23    22    1
    14    25    24    1
    15    24    20    1
    16    20    17   ar
    17    20    19   ar
    18    17    28    1
    19    17    15   ar
    20    28    31   ar
    21    21    19    1
    22    19    16   ar
    23    15    14   ar
    24    15    18    1
    25    16    14   ar
    26    16     4    1
    27    14    22    1
    28     4     2   ar
    29    49    50    1
    30    49    44    1
    31    45    43    1
    32    29    40    1
    33    29    32   ar
    34    43    44   ar
    35    43    40   ar
    36    44    41   ar
    37    46    41    1
    38    41    39   ar
    39    40    38   ar
    40    39    38   ar
    41    39    42    1
    42    38    47    1
    43     3     9    1
    44     3     1   ar
    45    47    48    1
    46    31    32   ar
    47    31    33    1
    48    32    36    1
    49     2     1   ar
    50     2     5    1
    51     1    10    1
    52    36    37    1
    53    11    10    1
