@<TRIPOS>MOLECULE
mol_data/opt/b3lyp/geoms/mol2/4gf4gf4gf-.out
 38 40 0 0 0
SMALL
GASTEIGER

@<TRIPOS>ATOM
      1 C          -0.1117    0.1447    0.5426 C.ar    1  LIG1        0.0055
      2 C           1.2869    0.1525    0.5068 C.ar    1  LIG1       -0.0373
      3 C          -0.8085    1.2693    0.0946 C.ar    1  LIG1       -0.0451
      4 C           2.0060    1.2445    0.0071 C.ar    1  LIG1        0.0257
      5 H           1.8380   -0.7045    0.8793 H       1  LIG1        0.0636
      6 C          -0.1125    2.3802   -0.3772 C.ar    1  LIG1       -0.0185
      7 C           1.2837    2.3742   -0.4296 C.ar    1  LIG1        0.1246
      8 H          -0.6596    3.2543   -0.7242 H       1  LIG1        0.0654
      9 H          -1.8933    1.2764    0.1097 H       1  LIG1        0.0630
     10 S          -1.0260   -1.2454    1.2266 S.3     1  LIG1       -0.1426
     11 H          -0.5610   -2.1928    0.3854 H       1  LIG1        0.1071
     12 O           1.9929    3.4437   -0.8982 O.3     1  LIG1       -0.5062
     13 H           1.3735    4.1194   -1.2041 H       1  LIG1        0.2922
     14 C           4.2123    0.2807   -0.7949 C.ar    1  LIG1        0.0134
     15 C           5.6107    0.2806   -0.7469 C.ar    1  LIG1       -0.0367
     16 C           3.4974    1.2153   -0.0227 C.ar    1  LIG1        0.0023
     17 C           6.3349    1.1832    0.0388 C.ar    1  LIG1        0.0258
     18 H           6.1690   -0.4327   -1.3446 H       1  LIG1        0.0636
     19 C           4.2194    2.1275    0.7561 C.ar    1  LIG1       -0.0107
     20 C           5.6122    2.1267    0.7927 C.ar    1  LIG1        0.1252
     21 H           3.6700    2.8554    1.3478 H       1  LIG1        0.0661
     22 S           3.3182   -0.8604   -1.8557 S.3     1  LIG1       -0.1420
     23 H           4.4151   -1.4115   -2.4103 H       1  LIG1        0.1071
     24 O           6.3157    3.0199    1.5542 O.3     1  LIG1       -0.5061
     25 H           5.6905    3.5668    2.0476 H       1  LIG1        0.2922
     26 C           8.5476    0.0230    0.4808 C.ar    1  LIG1        0.0128
     27 C           9.9485    0.0415    0.4222 C.ar    1  LIG1       -0.0445
     28 C           7.8263    1.1514    0.0450 C.ar    1  LIG1        0.0022
     29 C          10.6382    1.1546   -0.0420 C.ar    1  LIG1       -0.0191
     30 H          10.5138   -0.8259    0.7498 H       1  LIG1        0.0630
     31 C           8.5336    2.2690   -0.4207 C.ar    1  LIG1       -0.0113
     32 C           9.9265    2.2809   -0.4637 C.ar    1  LIG1        0.1175
     33 H           7.9732    3.1411   -0.7474 H       1  LIG1        0.0660
     34 H          11.7221    1.1656   -0.0803 H       1  LIG1        0.0654
     35 S           7.6639   -1.4031    1.1269 S.3     1  LIG1       -0.1420
     36 H           8.7595   -2.0359    1.5903 H       1  LIG1        0.1071
     37 O          10.6454    3.3550   -0.9122 O.3     1  LIG1       -0.5067
     38 H          10.0342    4.0637   -1.1521 H       1  LIG1        0.2921
@<TRIPOS>BOND
     1    23    22    1
     2    22    14    1
     3    18    15    1
     4    13    12    1
     5    38    37    1
     6    37    32    1
     7    12     7    1
     8    14    15   ar
     9    14    16   ar
    10    33    31    1
    11    15    17   ar
    12     8     6    1
    13    32    31   ar
    14    32    29   ar
    15     7     6   ar
    16     7     4   ar
    17    31    28   ar
    18     6     3   ar
    19    34    29    1
    20    29    27   ar
    21    16     4    1
    22    16    19   ar
    23     4     2   ar
    24    17    28    1
    25    17    20   ar
    26    28    26   ar
    27     3     9    1
    28     3     1   ar
    29    11    10    1
    30    27    26   ar
    31    27    30    1
    32    26    35    1
    33     2     1   ar
    34     2     5    1
    35     1    10    1
    36    19    20   ar
    37    19    21    1
    38    20    24    1
    39    35    36    1
    40    24    25    1
