@<TRIPOS>MOLECULE
mol_data/opt/b3lyp/geoms/mol2/4gf4gf-4gf-4gf.out
 50 53 0 0 0
SMALL
GASTEIGER

@<TRIPOS>ATOM
      1 C          -0.2428    0.0325   -0.1014 C.ar    1  LIG1        0.0055
      2 C           1.1561    0.0485   -0.0865 C.ar    1  LIG1       -0.0373
      3 C          -0.9357    1.2448   -0.0697 C.ar    1  LIG1       -0.0451
      4 C           1.8794    1.2446   -0.0116 C.ar    1  LIG1        0.0257
      5 H           1.7053   -0.8855   -0.1395 H       1  LIG1        0.0636
      6 C          -0.2352    2.4486   -0.0293 C.ar    1  LIG1       -0.0185
      7 C           1.1612    2.4580    0.0058 C.ar    1  LIG1        0.1246
      8 H          -0.7798    3.3903   -0.0060 H       1  LIG1        0.0654
      9 H          -2.0206    1.2504   -0.0708 H       1  LIG1        0.0630
     10 S          -1.1678   -1.5029   -0.2413 S.3     1  LIG1       -0.1426
     11 H          -0.5894   -2.1483    0.7927 H       1  LIG1        0.1071
     12 O           1.8747    3.6225    0.0587 O.3     1  LIG1       -0.5062
     13 H           1.2578    4.3643    0.1130 H       1  LIG1        0.2922
     14 C           4.0956    0.6073    1.0487 C.ar    1  LIG1        0.0134
     15 C           5.4931    0.5861    0.9882 C.ar    1  LIG1       -0.0367
     16 C           3.3709    1.2224    0.0106 C.ar    1  LIG1        0.0023
     17 C           6.2086    1.1597   -0.0683 C.ar    1  LIG1        0.0258
     18 H           6.0574    0.1224    1.7910 H       1  LIG1        0.0636
     19 C           4.0840    1.8096   -1.0415 C.ar    1  LIG1       -0.0107
     20 C           5.4760    1.7912   -1.0915 C.ar    1  LIG1        0.1252
     21 H           3.5275    2.2927   -1.8406 H       1  LIG1        0.0661
     22 S           3.2155   -0.0959    2.4478 S.3     1  LIG1       -0.1420
     23 H           4.3193   -0.4407    3.1386 H       1  LIG1        0.1071
     24 O           6.1690    2.3673   -2.1211 O.3     1  LIG1       -0.5061
     25 H           5.5379    2.7062   -2.7695 H       1  LIG1        0.2922
     26 C           8.4211   -0.0890   -0.0509 C.ar    1  LIG1        0.0134
     27 C           9.8197   -0.0488   -0.0171 C.ar    1  LIG1       -0.0367
     28 C           7.6984    1.1192   -0.0814 C.ar    1  LIG1        0.0023
     29 C          10.5396    1.1500   -0.0400 C.ar    1  LIG1        0.0258
     30 H          10.3806   -0.9766    0.0293 H       1  LIG1        0.0636
     31 C           8.4165    2.3219   -0.0955 C.ar    1  LIG1       -0.0107
     32 C           9.8089    2.3526   -0.0799 C.ar    1  LIG1        0.1252
     33 H           7.8627    3.2564   -0.1315 H       1  LIG1        0.0661
     34 S           7.5488   -1.6603   -0.0771 S.3     1  LIG1       -0.1420
     35 H           8.6357   -2.4063   -0.3541 H       1  LIG1        0.1071
     36 O          10.5041    3.5317   -0.0954 O.3     1  LIG1       -0.5061
     37 H           9.8765    4.2588   -0.2004 H       1  LIG1        0.2922
     38 C          12.8049    0.5009   -0.9860 C.ar    1  LIG1        0.0128
     39 C          14.2015    0.4899   -0.8605 C.ar    1  LIG1       -0.0445
     40 C          12.0304    1.1383    0.0033 C.ar    1  LIG1        0.0022
     41 C          14.8370    1.1073    0.2095 C.ar    1  LIG1       -0.0191
     42 H          14.8069   -0.0041   -1.6147 H       1  LIG1        0.0630
     43 C          12.6843    1.7596    1.0774 C.ar    1  LIG1       -0.0113
     44 C          14.0734    1.7526    1.1857 C.ar    1  LIG1        0.1175
     45 H          12.0841    2.2593    1.8332 H       1  LIG1        0.0660
     46 H          15.9180    1.0998    0.2985 H       1  LIG1        0.0654
     47 S          11.9967   -0.2568   -2.4021 S.3     1  LIG1       -0.1420
     48 H          13.1329   -0.4977   -3.0850 H       1  LIG1        0.1071
     49 O          14.7396    2.3496    2.2211 O.3     1  LIG1       -0.5067
     50 H          14.0966    2.7688    2.8077 H       1  LIG1        0.2921
@<TRIPOS>BOND
     1    48    47    1
     2    25    24    1
     3    47    38    1
     4    24    20    1
     5    21    19    1
     6    42    39    1
     7    20    19   ar
     8    20    17   ar
     9    19    16   ar
    10    38    39   ar
    11    38    40   ar
    12    39    41   ar
    13    35    34    1
    14    10     1    1
    15    10    11    1
    16    37    36    1
    17     5     2    1
    18    33    31    1
    19     1     2   ar
    20     1     3   ar
    21    31    28   ar
    22    31    32   ar
    23    36    32    1
    24     2     4   ar
    25    28    17    1
    26    28    26   ar
    27    32    29   ar
    28    34    26    1
    29     9     3    1
    30     3     6   ar
    31    17    15   ar
    32    26    27   ar
    33    29    27   ar
    34    29    40    1
    35     6     8    1
    36     6     7   ar
    37    27    30    1
    38     4     7   ar
    39     4    16    1
    40    40    43   ar
    41     7    12    1
    42    16    14   ar
    43    12    13    1
    44    41    46    1
    45    41    44   ar
    46    15    14   ar
    47    15    18    1
    48    14    22    1
    49    43    44   ar
    50    43    45    1
    51    44    49    1
    52    49    50    1
    53    22    23    1
