@<TRIPOS>MOLECULE
mol_data/opt/b3lyp/geoms/mol2/4gf4gf-4gf.out
 38 40 0 0 0
SMALL
GASTEIGER

@<TRIPOS>ATOM
      1 C          -0.1114    0.1363   -0.5262 C.ar    1  LIG1        0.0055
      2 C           1.2873    0.1454   -0.4914 C.ar    1  LIG1       -0.0373
      3 C          -0.8087    1.2644   -0.0882 C.ar    1  LIG1       -0.0451
      4 C           2.0059    1.2424   -0.0023 C.ar    1  LIG1        0.0257
      5 H           1.8387   -0.7145   -0.8565 H       1  LIG1        0.0636
      6 C          -0.1131    2.3801    0.3731 C.ar    1  LIG1       -0.0185
      7 C           1.2830    2.3755    0.4246 C.ar    1  LIG1        0.1246
      8 H          -0.6607    3.2569    0.7125 H       1  LIG1        0.0654
      9 H          -1.8934    1.2706   -0.1025 H       1  LIG1        0.0630
     10 S          -1.0250   -1.2605   -1.1973 S.3     1  LIG1       -0.1426
     11 H          -0.5586   -2.2001   -0.3482 H       1  LIG1        0.1071
     12 O           1.9918    3.4498    0.8830 O.3     1  LIG1       -0.5062
     13 H           1.3722    4.1283    1.1822 H       1  LIG1        0.2922
     14 C           4.2134    0.2877    0.8071 C.ar    1  LIG1        0.0134
     15 C           5.6118    0.2881    0.7582 C.ar    1  LIG1       -0.0367
     16 C           3.4973    1.2146    0.0268 C.ar    1  LIG1        0.0023
     17 C           6.3348    1.1838   -0.0363 C.ar    1  LIG1        0.0258
     18 H           6.1710   -0.4194    1.3620 H       1  LIG1        0.0636
     19 C           4.2182    2.1200   -0.7609 C.ar    1  LIG1       -0.0107
     20 C           5.6110    2.1198   -0.7984 C.ar    1  LIG1        0.1252
     21 H           3.6679    2.8421   -1.3589 H       1  LIG1        0.0661
     22 S           3.3208   -0.8443    1.8789 S.3     1  LIG1       -0.1420
     23 H           4.4185   -1.3896    2.4377 H       1  LIG1        0.1071
     24 O           6.3133    3.0065   -1.5686 O.3     1  LIG1       -0.5061
     25 H           5.6875    3.5487   -2.0664 H       1  LIG1        0.2922
     26 C           8.5481    0.0214   -0.4696 C.ar    1  LIG1        0.0128
     27 C           9.9491    0.0415   -0.4124 C.ar    1  LIG1       -0.0445
     28 C           7.8262    1.1531   -0.0433 C.ar    1  LIG1        0.0022
     29 C          10.6382    1.1592    0.0415 C.ar    1  LIG1       -0.0191
     30 H          10.5147   -0.8283   -0.7328 H       1  LIG1        0.0630
     31 C           8.5331    2.2753    0.4119 C.ar    1  LIG1       -0.0113
     32 C           9.9260    2.2886    0.4538 C.ar    1  LIG1        0.1175
     33 H           7.9722    3.1499    0.7313 H       1  LIG1        0.0660
     34 H          11.7222    1.1713    0.0789 H       1  LIG1        0.0654
     35 S           7.6649   -1.4109   -1.1025 S.3     1  LIG1       -0.1420
     36 H           8.7609   -2.0485   -1.5582 H       1  LIG1        0.1071
     37 O          10.6445    3.3672    0.8922 O.3     1  LIG1       -0.5067
     38 H          10.0329    4.0775    1.1263 H       1  LIG1        0.2921
@<TRIPOS>BOND
     1    25    24    1
     2    24    20    1
     3    36    35    1
     4    21    19    1
     5    10     1    1
     6    10    11    1
     7    35    26    1
     8     5     2    1
     9    20    19   ar
    10    20    17   ar
    11    19    16   ar
    12    30    27    1
    13     1     2   ar
    14     1     3   ar
    15     2     4   ar
    16    26    27   ar
    17    26    28   ar
    18    27    29   ar
    19     9     3    1
    20     3     6   ar
    21    28    17    1
    22    28    31   ar
    23    17    15   ar
    24     4    16    1
    25     4     7   ar
    26    16    14   ar
    27    29    34    1
    28    29    32   ar
    29     6     7   ar
    30     6     8    1
    31    31    32   ar
    32    31    33    1
    33     7    12    1
    34    32    37    1
    35    15    14   ar
    36    15    18    1
    37    14    22    1
    38    12    13    1
    39    37    38    1
    40    22    23    1
