@<TRIPOS>MOLECULE
mol_data/opt/b3lyp/geoms/mol2/4gf4gf-4gf4gf.out
 50 53 0 0 0
SMALL
GASTEIGER

@<TRIPOS>ATOM
      1 C          -0.2438    0.2587   -0.6905 C.ar    1  LIG1        0.0055
      2 C           1.1552    0.2582   -0.6666 C.ar    1  LIG1       -0.0373
      3 C          -0.9333    1.2861   -0.0424 C.ar    1  LIG1       -0.0451
      4 C           1.8816    1.2427    0.0132 C.ar    1  LIG1        0.0257
      5 H           1.7010   -0.5194   -1.1903 H       1  LIG1        0.0636
      6 C          -0.2298    2.2945    0.6129 C.ar    1  LIG1       -0.0185
      7 C           1.1666    2.2778    0.6505 C.ar    1  LIG1        0.1246
      8 H          -0.7715    3.0932    1.1154 H       1  LIG1        0.0654
      9 H          -2.0181    1.2967   -0.0446 H       1  LIG1        0.0630
     10 S          -1.1697   -0.9841   -1.6031 S.3     1  LIG1       -0.1426
     11 H          -0.6642   -2.0701   -0.9819 H       1  LIG1        0.1071
     12 O           1.8831    3.2461    1.2956 O.3     1  LIG1       -0.5062
     13 H           1.2683    3.8553    1.7254 H       1  LIG1        0.2922
     14 C           4.0914    0.1481    0.6131 C.ar    1  LIG1        0.0134
     15 C           5.4892    0.1557    0.5576 C.ar    1  LIG1       -0.0367
     16 C           3.3731    1.2064    0.0253 C.ar    1  LIG1        0.0023
     17 C           6.2102    1.1841   -0.0585 C.ar    1  LIG1        0.0258
     18 H           6.0498   -0.6529    1.0152 H       1  LIG1        0.0636
     19 C           4.0918    2.2427   -0.5823 C.ar    1  LIG1       -0.0107
     20 C           5.4843    2.2476   -0.6271 C.ar    1  LIG1        0.1252
     21 H           3.5400    3.0653   -1.0301 H       1  LIG1        0.0661
     22 S           3.2022   -1.1636    1.4585 S.3     1  LIG1       -0.1420
     23 H           4.3015   -1.8070    1.8966 H       1  LIG1        0.1071
     24 O           6.1840    3.2633   -1.2211 O.3     1  LIG1       -0.5061
     25 H           5.5555    3.8890   -1.6047 H       1  LIG1        0.2922
     26 C           8.4282    0.1159   -0.6863 C.ar    1  LIG1        0.0134
     27 C           9.8261    0.1334   -0.6277 C.ar    1  LIG1       -0.0367
     28 C           7.7008    1.1553   -0.0752 C.ar    1  LIG1        0.0023
     29 C          10.5395    1.1524    0.0120 C.ar    1  LIG1        0.0258
     30 H          10.3931   -0.6604   -1.1032 H       1  LIG1        0.0636
     31 C           8.4126    2.1833    0.5554 C.ar    1  LIG1       -0.0107
     32 C           9.8046    2.1980    0.6019 C.ar    1  LIG1        0.1252
     33 H           7.8541    2.9922    1.0194 H       1  LIG1        0.0661
     34 S           7.5546   -1.1849   -1.5653 S.3     1  LIG1       -0.1420
     35 H           8.6621   -1.7899   -2.0362 H       1  LIG1        0.1071
     36 O          10.4956    3.2055    1.2191 O.3     1  LIG1       -0.5061
     37 H           9.8617    3.8219    1.6087 H       1  LIG1        0.2922
     38 C          12.7577    0.0835    0.6276 C.ar    1  LIG1        0.0128
     39 C          14.1588    0.1053    0.5751 C.ar    1  LIG1       -0.0445
     40 C          12.0307    1.1332    0.0328 C.ar    1  LIG1        0.0022
     41 C          14.8436    1.1479   -0.0363 C.ar    1  LIG1       -0.0191
     42 H          14.7281   -0.7028    1.0247 H       1  LIG1        0.0630
     43 C          12.7336    2.1804   -0.5805 C.ar    1  LIG1       -0.0113
     44 C          14.1265    2.1981   -0.6159 C.ar    1  LIG1        0.1175
     45 H          12.1690    2.9935   -1.0292 H       1  LIG1        0.0660
     46 H          15.9277    1.1624   -0.0693 H       1  LIG1        0.0654
     47 S          11.8823   -1.2447    1.4658 S.3     1  LIG1       -0.1420
     48 H          12.9809   -1.7936    2.0199 H       1  LIG1        0.1071
     49 O          14.8408    3.2050   -1.2056 O.3     1  LIG1       -0.5067
     50 H          14.2260    3.8666   -1.5487 H       1  LIG1        0.2921
@<TRIPOS>BOND
     1    35    34    1
     2    25    24    1
     3    10    11    1
     4    10     1    1
     5    34    26    1
     6    50    49    1
     7    24    20    1
     8    49    44    1
     9     5     2    1
    10    30    27    1
    11    21    19    1
    12    45    43    1
    13     1     2   ar
    14     1     3   ar
    15    26    27   ar
    16    26    28   ar
    17     2     4   ar
    18    27    29   ar
    19    20    19   ar
    20    20    17   ar
    21    44    43   ar
    22    44    41   ar
    23    19    16   ar
    24    43    40   ar
    25    28    17    1
    26    28    31   ar
    27    46    41    1
    28    17    15   ar
    29     9     3    1
    30     3     6   ar
    31    41    39   ar
    32    29    40    1
    33    29    32   ar
    34     4    16    1
    35     4     7   ar
    36    16    14   ar
    37    40    38   ar
    38    31    32   ar
    39    31    33    1
    40    15    14   ar
    41    15    18    1
    42    39    38   ar
    43    39    42    1
    44    32    36    1
    45     6     7   ar
    46     6     8    1
    47    14    22    1
    48    38    47    1
    49     7    12    1
    50    36    37    1
    51    12    13    1
    52    22    23    1
    53    47    48    1
