@<TRIPOS>MOLECULE
mol_data/opt/b3lyp/geoms/mol2/4gf4gf-4gf-.out
 38 40 0 0 0
SMALL
GASTEIGER

@<TRIPOS>ATOM
      1 C          -0.1114    0.1309   -0.5163 C.ar    1  LIG1        0.0055
      2 C           1.2873    0.1409   -0.4828 C.ar    1  LIG1       -0.0373
      3 C          -0.8088    1.2612   -0.0839 C.ar    1  LIG1       -0.0451
      4 C           2.0059    1.2410   -0.0005 C.ar    1  LIG1        0.0257
      5 H           1.8389   -0.7208   -0.8436 H       1  LIG1        0.0636
      6 C          -0.1133    2.3797    0.3705 C.ar    1  LIG1       -0.0185
      7 C           1.2829    2.3761    0.4207 C.ar    1  LIG1        0.1246
      8 H          -0.6610    3.2582    0.7054 H       1  LIG1        0.0654
      9 H          -1.8936    1.2668   -0.0972 H       1  LIG1        0.0630
     10 S          -1.0251   -1.2701   -1.1785 S.3     1  LIG1       -0.1426
     11 H          -0.5572   -2.2047   -0.3247 H       1  LIG1        0.1071
     12 O           1.9916    3.4533    0.8723 O.3     1  LIG1       -0.5062
     13 H           1.3718    4.1329    1.1687 H       1  LIG1        0.2922
     14 C           4.2144    0.2918    0.8124 C.ar    1  LIG1        0.0134
     15 C           5.6127    0.2926    0.7624 C.ar    1  LIG1       -0.0367
     16 C           3.4973    1.2139    0.0274 C.ar    1  LIG1        0.0023
     17 C           6.3347    1.1841   -0.0378 C.ar    1  LIG1        0.0258
     18 H           6.1728   -0.4111    1.3699 H       1  LIG1        0.0636
     19 C           4.2171    2.1151   -0.7661 C.ar    1  LIG1       -0.0107
     20 C           5.6098    2.1153   -0.8047 C.ar    1  LIG1        0.1252
     21 H           3.6660    2.8334   -1.3679 H       1  LIG1        0.0661
     22 S           3.3232   -0.8343    1.8915 S.3     1  LIG1       -0.1420
     23 H           4.4215   -1.3777    2.4508 H       1  LIG1        0.1071
     24 O           6.3113    2.9976   -1.5806 O.3     1  LIG1       -0.5061
     25 H           5.6848    3.5377   -2.0799 H       1  LIG1        0.2922
     26 C           8.5485    0.0206   -0.4663 C.ar    1  LIG1        0.0128
     27 C           9.9495    0.0421   -0.4102 C.ar    1  LIG1       -0.0445
     28 C           7.8262    1.1541   -0.0458 C.ar    1  LIG1        0.0022
     29 C          10.6382    1.1627    0.0368 C.ar    1  LIG1       -0.0191
     30 H          10.5156   -0.8291   -0.7262 H       1  LIG1        0.0630
     31 C           8.5326    2.2794    0.4027 C.ar    1  LIG1       -0.0113
     32 C           9.9255    2.2939    0.4434 C.ar    1  LIG1        0.1175
     33 H           7.9713    3.1553    0.7176 H       1  LIG1        0.0660
     34 H          11.7222    1.1759    0.0734 H       1  LIG1        0.0654
     35 S           7.6660   -1.4159   -1.0904 S.3     1  LIG1       -0.1420
     36 H           8.7620   -2.0550   -1.5440 H       1  LIG1        0.1071
     37 O          10.6435    3.3755    0.8753 O.3     1  LIG1       -0.5067
     38 H          10.0316    4.0867    1.1058 H       1  LIG1        0.2921
@<TRIPOS>BOND
     1    25    24    1
     2    24    20    1
     3    36    35    1
     4    21    19    1
     5    10     1    1
     6    10    11    1
     7    35    26    1
     8     5     2    1
     9    20    19   ar
    10    20    17   ar
    11    19    16   ar
    12    30    27    1
    13     1     2   ar
    14     1     3   ar
    15     2     4   ar
    16    26    27   ar
    17    26    28   ar
    18    27    29   ar
    19     9     3    1
    20     3     6   ar
    21    28    17    1
    22    28    31   ar
    23    17    15   ar
    24     4    16    1
    25     4     7   ar
    26    16    14   ar
    27    29    34    1
    28    29    32   ar
    29     6     7   ar
    30     6     8    1
    31    31    32   ar
    32    31    33    1
    33     7    12    1
    34    32    37    1
    35    15    14   ar
    36    15    18    1
    37    14    22    1
    38    12    13    1
    39    37    38    1
    40    22    23    1
