@<TRIPOS>MOLECULE
mol_data/opt/b3lyp/geoms/mol2/4gf4gf4gf-4gf-.out
 50 53 0 0 0
SMALL
GASTEIGER

@<TRIPOS>ATOM
      1 C          -0.2448    0.2636    0.6952 C.ar    1  LIG1        0.0055
      2 C           1.1542    0.2634    0.6742 C.ar    1  LIG1       -0.0373
      3 C          -0.9334    1.2839    0.0351 C.ar    1  LIG1       -0.0451
      4 C           1.8816    1.2411   -0.0143 C.ar    1  LIG1        0.0257
      5 H           1.6992   -0.5086    1.2071 H       1  LIG1        0.0636
      6 C          -0.2290    2.2857   -0.6293 C.ar    1  LIG1       -0.0185
      7 C           1.1675    2.2692   -0.6638 C.ar    1  LIG1        0.1246
      8 H          -0.7699    3.0790   -1.1412 H       1  LIG1        0.0654
      9 H          -2.0182    1.2942    0.0351 H       1  LIG1        0.0630
     10 S          -1.1722   -0.9701    1.6189 S.3     1  LIG1       -0.1426
     11 H          -0.6658   -2.0622    1.0094 H       1  LIG1        0.1071
     12 O           1.8850    3.2309   -1.3175 O.3     1  LIG1       -0.5062
     13 H           1.2709    3.8356   -1.7546 H       1  LIG1        0.2922
     14 C           4.0930    0.1415   -0.5994 C.ar    1  LIG1        0.0134
     15 C           5.4906    0.1502   -0.5413 C.ar    1  LIG1       -0.0367
     16 C           3.3731    1.2052   -0.0231 C.ar    1  LIG1        0.0023
     17 C           6.2101    1.1848    0.0664 C.ar    1  LIG1        0.0258
     18 H           6.0525   -0.6626   -0.9898 H       1  LIG1        0.0636
     19 C           4.0903    2.2475    0.5759 C.ar    1  LIG1       -0.0107
     20 C           5.4827    2.2534    0.6233 C.ar    1  LIG1        0.1252
     21 H           3.5373    3.0742    1.0148 H       1  LIG1        0.0661
     22 S           3.2058   -1.1787   -1.4335 S.3     1  LIG1       -0.1420
     23 H           4.3061   -1.8247   -1.8652 H       1  LIG1        0.1071
     24 O           6.1809    3.2750    1.2089 O.3     1  LIG1       -0.5061
     25 H           5.5514    3.9042    1.5852 H       1  LIG1        0.2922
     26 C           8.4271    0.1233    0.7084 C.ar    1  LIG1        0.0134
     27 C           9.8252    0.1406    0.6521 C.ar    1  LIG1       -0.0367
     28 C           7.7007    1.1566    0.0860 C.ar    1  LIG1        0.0023
     29 C          10.5395    1.1535    0.0039 C.ar    1  LIG1        0.0258
     30 H          10.3914   -0.6486    1.1363 H       1  LIG1        0.0636
     31 C           8.4133    2.1787   -0.5531 C.ar    1  LIG1       -0.0107
     32 C           9.8055    2.1932   -0.5973 C.ar    1  LIG1        0.1252
     33 H           7.8556    2.9830   -1.0258 H       1  LIG1        0.0661
     34 S           7.5522   -1.1690    1.5983 S.3     1  LIG1       -0.1420
     35 H           8.6589   -1.7692    2.0772 H       1  LIG1        0.1071
     36 O          10.4973    3.1950   -1.2229 O.3     1  LIG1       -0.5061
     37 H           9.8640    3.8073   -1.6197 H       1  LIG1        0.2922
     38 C          12.7589    0.0791   -0.5976 C.ar    1  LIG1        0.0128
     39 C          14.1600    0.1016   -0.5430 C.ar    1  LIG1       -0.0445
     40 C          12.0308    1.1343   -0.0141 C.ar    1  LIG1        0.0022
     41 C          14.8436    1.1502    0.0595 C.ar    1  LIG1       -0.0191
     42 H          14.7301   -0.7107   -0.9838 H       1  LIG1        0.0630
     43 C          12.7326    2.1875    0.5902 C.ar    1  LIG1       -0.0113
     44 C          14.1253    2.2057    0.6278 C.ar    1  LIG1        0.1175
     45 H          12.1671    3.0048    1.0301 H       1  LIG1        0.0660
     46 H          15.9276    1.1651    0.0942 H       1  LIG1        0.0654
     47 S          11.8852   -1.2573   -1.4244 S.3     1  LIG1       -0.1420
     48 H          12.9849   -1.8115   -1.9711 H       1  LIG1        0.1071
     49 O          14.8385    3.2184    1.2090 O.3     1  LIG1       -0.5067
     50 H          14.2231    3.8832    1.5447 H       1  LIG1        0.2921
@<TRIPOS>BOND
     1    48    47    1
     2    23    22    1
     3    13    12    1
     4    37    36    1
     5    22    14    1
     6    47    38    1
     7    12     7    1
     8    36    32    1
     9     8     6    1
    10    33    31    1
    11    18    15    1
    12    42    39    1
    13     7     6   ar
    14     7     4   ar
    15     6     3   ar
    16    14    15   ar
    17    14    16   ar
    18    38    39   ar
    19    38    40   ar
    20    32    31   ar
    21    32    29   ar
    22    31    28   ar
    23    39    41   ar
    24    15    17   ar
    25    16     4    1
    26    16    19   ar
    27     4     2   ar
    28    40    29    1
    29    40    43   ar
    30    29    27   ar
    31     9     3    1
    32     3     1   ar
    33    41    46    1
    34    41    44   ar
    35    17    28    1
    36    17    20   ar
    37    28    26   ar
    38    19    20   ar
    39    19    21    1
    40    43    44   ar
    41    43    45    1
    42    20    24    1
    43    44    49    1
    44    27    26   ar
    45    27    30    1
    46     2     1   ar
    47     2     5    1
    48     1    10    1
    49    26    34    1
    50    11    10    1
    51    24    25    1
    52    49    50    1
    53    34    35    1
