@<TRIPOS>MOLECULE
mol_data/opt/b3lyp/geoms/mol2/4gf4gf4gf4gf.out
 50 53 0 0 0
SMALL
GASTEIGER

@<TRIPOS>ATOM
      1 C          -0.1902    1.3887    1.2509 C.ar    1  LIG1        0.0055
      2 C           1.2064    1.3318    1.1836 C.ar    1  LIG1       -0.0373
      3 C          -0.9277    1.3753    0.0650 C.ar    1  LIG1       -0.0451
      4 C           1.8838    1.2318   -0.0370 C.ar    1  LIG1        0.0257
      5 H           1.7872    1.3731    2.0991 H       1  LIG1        0.0636
      6 C          -0.2736    1.3067   -1.1634 C.ar    1  LIG1       -0.0185
      7 C           1.1202    1.2304   -1.2232 C.ar    1  LIG1        0.1246
      8 H          -0.8519    1.2971   -2.0849 H       1  LIG1        0.0654
      9 H          -2.0112    1.4148    0.1004 H       1  LIG1        0.0630
     10 S          -1.0442    1.5624    2.8255 S.3     1  LIG1       -0.1426
     11 H          -0.6641    0.3848    3.3652 H       1  LIG1        0.1071
     12 O           1.7886    1.1535   -2.4110 O.3     1  LIG1       -0.5062
     13 H           1.1461    1.1061   -3.1313 H       1  LIG1        0.2922
     14 C           4.0899    0.1192    0.5435 C.ar    1  LIG1        0.0134
     15 C           5.4887    0.1416    0.5174 C.ar    1  LIG1       -0.0367
     16 C           3.3732    1.1635   -0.0705 C.ar    1  LIG1        0.0023
     17 C           6.2132    1.1534   -0.1213 C.ar    1  LIG1        0.0258
     18 H           6.0454   -0.6485    1.0108 H       1  LIG1        0.0636
     19 C           4.0951    2.1831   -0.7032 C.ar    1  LIG1       -0.0107
     20 C           5.4875    2.1901   -0.7392 C.ar    1  LIG1        0.1252
     21 H           3.5450    2.9862   -1.1871 H       1  LIG1        0.0661
     22 S           3.2030   -1.2297    1.3325 S.3     1  LIG1       -0.1420
     23 H           4.2758   -2.0342    1.4614 H       1  LIG1        0.1071
     24 O           6.1881    3.1892   -1.3582 O.3     1  LIG1       -0.5061
     25 H           5.5637    3.7778   -1.8023 H       1  LIG1        0.2922
     26 C           8.4489    0.0606   -0.6398 C.ar    1  LIG1        0.0134
     27 C           9.8455    0.0921   -0.5554 C.ar    1  LIG1       -0.0367
     28 C           7.7034    1.1347   -0.1164 C.ar    1  LIG1        0.0023
     29 C          10.5422    1.1662    0.0075 C.ar    1  LIG1        0.0258
     30 H          10.4235   -0.7434   -0.9370 H       1  LIG1        0.0636
     31 C           8.3985    2.2085    0.4550 C.ar    1  LIG1       -0.0107
     32 C           9.7894    2.2398    0.5194 C.ar    1  LIG1        0.1252
     33 H           7.8273    3.0453    0.8484 H       1  LIG1        0.0661
     34 S           7.6082   -1.3200   -1.4259 S.3     1  LIG1       -0.1420
     35 H           8.7183   -1.8517   -1.9734 H       1  LIG1        0.1071
     36 O          10.4621    3.2926    1.0784 O.3     1  LIG1       -0.5061
     37 H           9.8230    3.9778    1.3144 H       1  LIG1        0.2922
     38 C          12.8365    1.0616   -1.0748 C.ar    1  LIG1        0.0128
     39 C          14.2305    1.0036   -0.9342 C.ar    1  LIG1       -0.0445
     40 C          12.0319    1.1476    0.0783 C.ar    1  LIG1        0.0022
     41 C          14.8342    1.0456    0.3163 C.ar    1  LIG1       -0.0191
     42 H          14.8590    0.9305   -1.8168 H       1  LIG1        0.0630
     43 C          12.6537    1.1904    1.3348 C.ar    1  LIG1       -0.0113
     44 C          14.0405    1.1448    1.4621 C.ar    1  LIG1        0.1175
     45 H          12.0300    1.2670    2.2217 H       1  LIG1        0.0660
     46 H          15.9133    1.0060    0.4185 H       1  LIG1        0.0654
     47 S          12.0690    1.0585   -2.7008 S.3     1  LIG1       -0.1420
     48 H          13.2196    1.2027   -3.3870 H       1  LIG1        0.1071
     49 O          14.6758    1.1856    2.6731 O.3     1  LIG1       -0.5067
     50 H          14.0143    1.2746    3.3716 H       1  LIG1        0.2921
@<TRIPOS>BOND
     1    48    47    1
     2    13    12    1
     3    47    38    1
     4    12     7    1
     5     8     6    1
     6    35    34    1
     7    42    39    1
     8    25    24    1
     9    34    26    1
    10    24    20    1
    11     7     6   ar
    12     7     4   ar
    13    21    19    1
    14     6     3   ar
    15    38    39   ar
    16    38    40   ar
    17    30    27    1
    18    39    41   ar
    19    20    19   ar
    20    20    17   ar
    21    19    16   ar
    22    26    27   ar
    23    26    28   ar
    24    27    29   ar
    25    17    28    1
    26    17    15   ar
    27    28    31   ar
    28    16     4    1
    29    16    14   ar
    30     4     2   ar
    31    29    40    1
    32    29    32   ar
    33     3     9    1
    34     3     1   ar
    35    40    43   ar
    36    41    46    1
    37    41    44   ar
    38    31    32   ar
    39    31    33    1
    40    15    14   ar
    41    15    18    1
    42    32    36    1
    43    14    22    1
    44    36    37    1
    45     2     1   ar
    46     2     5    1
    47     1    10    1
    48    22    23    1
    49    43    44   ar
    50    43    45    1
    51    44    49    1
    52    49    50    1
    53    10    11    1
