@<TRIPOS>MOLECULE
mol_data/opt/b3lyp/geoms/mol2/4gg.out
 14 14 0 0 0
SMALL
GASTEIGER

@<TRIPOS>ATOM
      1 C           0.0893    0.0266    0.0004 C.ar    1  LIG1        0.0048
      2 C           1.4890    0.0351    0.0000 C.ar    1  LIG1       -0.0475
      3 C          -0.5938    1.2487    0.0003 C.ar    1  LIG1       -0.0475
      4 C           2.1889    1.2389   -0.0005 C.ar    1  LIG1       -0.0475
      5 H           2.0441   -0.8983    0.0001 H       1  LIG1        0.0629
      6 C           0.1061    2.4525   -0.0002 C.ar    1  LIG1       -0.0475
      7 C           1.5058    2.4609   -0.0006 C.ar    1  LIG1        0.0048
      8 H          -0.4490    3.3859   -0.0003 H       1  LIG1        0.0629
      9 H           3.2751    1.2214   -0.0008 H       1  LIG1        0.0629
     10 H          -1.6800    1.2662    0.0006 H       1  LIG1        0.0629
     11 S          -0.8785   -1.4769    0.0010 S.3     1  LIG1       -0.1426
     12 H           0.1587   -2.3360    0.0011 H       1  LIG1        0.1071
     13 S           2.4740    3.9654   -0.0012 S.3     1  LIG1       -0.1426
     14 H           1.4365    4.8241   -0.0012 H       1  LIG1        0.1071
@<TRIPOS>BOND
     1    13    14    1
     2    13     7    1
     3     9     4    1
     4     7     4   ar
     5     7     6   ar
     6     4     2   ar
     7     8     6    1
     8     6     3   ar
     9     2     5    1
    10     2     1   ar
    11     3     1   ar
    12     3    10    1
    13     1    11    1
    14    11    12    1
