@<TRIPOS>MOLECULE
mol_data/opt/b3lyp/geoms/mol2/4gg4gg4gg4gg-.out
 50 53 0 0 0
SMALL
GASTEIGER

@<TRIPOS>ATOM
      1 C          -0.1727    0.8437    1.2806 C.ar    1  LIG1        0.0054
      2 C           1.2199    0.8292    1.1729 C.ar    1  LIG1       -0.0398
      3 C          -0.9305    1.2574    0.1796 C.ar    1  LIG1       -0.0475
      4 C           1.8669    1.2006   -0.0134 C.ar    1  LIG1       -0.0026
      5 H           1.8303    0.5297    2.0192 H       1  LIG1        0.0635
      6 C          -0.3011    1.6480   -0.9974 C.ar    1  LIG1       -0.0469
      7 C           1.0944    1.6190   -1.1154 C.ar    1  LIG1        0.0125
      8 H          -0.9099    1.9654   -1.8386 H       1  LIG1        0.0629
      9 H          -2.0148    1.2690    0.2350 H       1  LIG1        0.0629
     10 S          -1.0326    0.3956    2.7840 S.3     1  LIG1       -0.1426
     11 H          -0.0209   -0.2909    3.3492 H       1  LIG1        0.1071
     12 S           1.9227    2.0880   -2.6317 S.3     1  LIG1       -0.1420
     13 H           0.7961    2.2465   -3.3538 H       1  LIG1        0.1071
     14 C           4.0815   -0.0400   -0.0716 C.ar    1  LIG1        0.0131
     15 C           5.4786    0.0009   -0.0820 C.ar    1  LIG1       -0.0392
     16 C           3.3610    1.1704   -0.0636 C.ar    1  LIG1       -0.0026
     17 C           6.1865    1.2078   -0.1016 C.ar    1  LIG1       -0.0026
     18 H           6.0474   -0.9235   -0.0763 H       1  LIG1        0.0635
     19 C           4.0692    2.3771   -0.0731 C.ar    1  LIG1       -0.0392
     20 C           5.4662    2.4181   -0.1010 C.ar    1  LIG1        0.0131
     21 H           3.5009    3.3018   -0.0584 H       1  LIG1        0.0635
     22 S           3.1857   -1.5898   -0.0653 S.3     1  LIG1       -0.1420
     23 H           4.2671   -2.3696   -0.2596 H       1  LIG1        0.1071
     24 S           6.3607    3.9688   -0.1312 S.3     1  LIG1       -0.1420
     25 H           5.2759    4.7447   -0.3219 H       1  LIG1        0.1071
     26 C           8.4271    0.7547   -1.2087 C.ar    1  LIG1        0.0131
     27 C           9.8223    0.7322   -1.1235 C.ar    1  LIG1       -0.0392
     28 C           7.6811    1.1775   -0.0913 C.ar    1  LIG1       -0.0026
     29 C          10.5031    1.1146    0.0375 C.ar    1  LIG1       -0.0026
     30 H          10.4116    0.4170   -1.9788 H       1  LIG1        0.0635
     31 C           8.3618    1.5601    1.0699 C.ar    1  LIG1       -0.0392
     32 C           9.7568    1.5371    1.1548 C.ar    1  LIG1        0.0131
     33 H           7.7729    1.8761    1.9253 H       1  LIG1        0.0635
     34 S           7.5662    0.2783   -2.7035 S.3     1  LIG1       -0.1420
     35 H           8.6778    0.0497   -3.4296 H       1  LIG1        0.1071
     36 S          10.6185    2.0154    2.6489 S.3     1  LIG1       -0.1420
     37 H           9.5078    2.2402    3.3774 H       1  LIG1        0.1071
     38 C          12.7186   -0.1226    0.0642 C.ar    1  LIG1        0.0125
     39 C          14.1188   -0.0828    0.0489 C.ar    1  LIG1       -0.0469
     40 C          11.9982    1.0881    0.0493 C.ar    1  LIG1       -0.0026
     41 C          14.8019    1.1282    0.0326 C.ar    1  LIG1       -0.0475
     42 H          14.6881   -1.0073    0.0609 H       1  LIG1        0.0629
     43 C          12.6995    2.3009    0.0162 C.ar    1  LIG1       -0.0398
     44 C          14.0958    2.3364    0.0149 C.ar    1  LIG1        0.0054
     45 H          12.1280    3.2233   -0.0115 H       1  LIG1        0.0635
     46 H          15.8877    1.1287    0.0387 H       1  LIG1        0.0629
     47 S          11.8192   -1.6706    0.1094 S.3     1  LIG1       -0.1420
     48 H          12.9056   -2.4519    0.2662 H       1  LIG1        0.1071
     49 S          15.0278    3.8614   -0.0427 S.3     1  LIG1       -0.1426
     50 H          14.0080    4.6846    0.2671 H       1  LIG1        0.1071
@<TRIPOS>BOND
     1    35    34    1
     2    13    12    1
     3    34    26    1
     4    12     7    1
     5    30    27    1
     6     8     6    1
     7    26    27   ar
     8    26    28   ar
     9    27    29   ar
    10     7     6   ar
    11     7     4   ar
    12     6     3   ar
    13    25    24    1
    14    23    22    1
    15    24    20    1
    16    17    20   ar
    17    17    28    1
    18    17    15   ar
    19    20    19   ar
    20    28    31   ar
    21    15    18    1
    22    15    14   ar
    23    19    16   ar
    24    19    21    1
    25    14    22    1
    26    14    16   ar
    27    16     4    1
    28    49    44    1
    29    49    50    1
    30     4     2   ar
    31    45    43    1
    32    44    43   ar
    33    44    41   ar
    34    43    40   ar
    35    41    46    1
    36    41    39   ar
    37    29    40    1
    38    29    32   ar
    39    39    42    1
    40    39    38   ar
    41    40    38   ar
    42    38    47    1
    43    47    48    1
    44     3     9    1
    45     3     1   ar
    46    31    32   ar
    47    31    33    1
    48    32    36    1
    49     2     1   ar
    50     2     5    1
    51     1    10    1
    52    36    37    1
    53    10    11    1
