@<TRIPOS>MOLECULE
mol_data/opt/b3lyp/geoms/mol2/4gg4gg-4gg-.out
 38 40 0 0 0
SMALL
GASTEIGER

@<TRIPOS>ATOM
      1 C          -0.1199    0.1192   -0.5215 C.ar    1  LIG1        0.0054
      2 C           1.2763    0.1358   -0.4822 C.ar    1  LIG1       -0.0398
      3 C          -0.8221    1.2334   -0.0487 C.ar    1  LIG1       -0.0475
      4 C           1.9807    1.2323    0.0328 C.ar    1  LIG1       -0.0026
      5 H           1.8448   -0.7095   -0.8570 H       1  LIG1        0.0635
      6 C          -0.1355    2.3362    0.4475 C.ar    1  LIG1       -0.0469
      7 C           1.2640    2.3507    0.5028 C.ar    1  LIG1        0.0125
      8 H          -0.7018    3.1900    0.8071 H       1  LIG1        0.0629
      9 H          -1.9078    1.2415   -0.0610 H       1  LIG1        0.0629
     10 S          -1.0550   -1.2523   -1.1881 S.3     1  LIG1       -0.1426
     11 H          -0.0615   -2.1606   -1.1446 H       1  LIG1        0.1071
     12 S           2.1679    3.7497    1.1605 S.3     1  LIG1       -0.1420
     13 H           1.0810    4.4209    1.5892 H       1  LIG1        0.1071
     14 C           4.1935    0.3686    0.9283 C.ar    1  LIG1        0.0131
     15 C           5.5902    0.3641    0.8722 C.ar    1  LIG1       -0.0392
     16 C           3.4755    1.1948    0.0418 C.ar    1  LIG1       -0.0026
     17 C           6.2997    1.1545   -0.0386 C.ar    1  LIG1       -0.0026
     18 H           6.1576   -0.2623    1.5534 H       1  LIG1        0.0635
     19 C           4.1850    1.9851   -0.8691 C.ar    1  LIG1       -0.0392
     20 C           5.5818    1.9808   -0.9250 C.ar    1  LIG1        0.0131
     21 H           3.6175    2.6112   -1.5505 H       1  LIG1        0.0635
     22 S           3.2938   -0.6359    2.1052 S.3     1  LIG1       -0.1420
     23 H           4.3853   -1.1244    2.7259 H       1  LIG1        0.1071
     24 S           6.4814    2.9851   -2.1019 S.3     1  LIG1       -0.1420
     25 H           5.3899    3.4783   -2.7187 H       1  LIG1        0.1071
     26 C           8.5116   -0.0007   -0.5001 C.ar    1  LIG1        0.0125
     27 C           9.9112    0.0144   -0.4449 C.ar    1  LIG1       -0.0469
     28 C           7.7945    1.1173   -0.0298 C.ar    1  LIG1       -0.0026
     29 C          10.5974    1.1174    0.0514 C.ar    1  LIG1       -0.0475
     30 H          10.4778   -0.8391   -0.8050 H       1  LIG1        0.0629
     31 C           8.4986    2.2139    0.4855 C.ar    1  LIG1       -0.0398
     32 C           9.8948    2.2311    0.5246 C.ar    1  LIG1        0.0054
     33 H           7.9298    3.0589    0.8608 H       1  LIG1        0.0635
     34 H          11.6830    1.1099    0.0633 H       1  LIG1        0.0629
     35 S           7.6084   -1.3999   -1.1581 S.3     1  LIG1       -0.1420
     36 H           8.6957   -2.0718   -1.5844 H       1  LIG1        0.1071
     37 S          10.8292    3.6027    1.1921 S.3     1  LIG1       -0.1426
     38 H           9.8378    4.5130    1.1405 H       1  LIG1        0.1071
@<TRIPOS>BOND
     1    25    24    1
     2    24    20    1
     3    36    35    1
     4    21    19    1
     5    10    11    1
     6    10     1    1
     7    35    26    1
     8    20    19   ar
     9    20    17   ar
    10    19    16   ar
    11     5     2    1
    12    30    27    1
    13     1     2   ar
    14     1     3   ar
    15    26    27   ar
    16    26    28   ar
    17     2     4   ar
    18    27    29   ar
    19     9     3    1
    20     3     6   ar
    21    17    28    1
    22    17    15   ar
    23    28    31   ar
    24     4    16    1
    25     4     7   ar
    26    16    14   ar
    27    29    34    1
    28    29    32   ar
    29     6     7   ar
    30     6     8    1
    31    31    32   ar
    32    31    33    1
    33     7    12    1
    34    32    37    1
    35    15    14   ar
    36    15    18    1
    37    14    22    1
    38    38    37    1
    39    12    13    1
    40    22    23    1
