@<TRIPOS>MOLECULE
mol_data/opt/b3lyp/geoms/mol2/4gg4gg-4gg-4gg.out
 50 53 0 0 0
SMALL
GASTEIGER

@<TRIPOS>ATOM
      1 C          -0.2335    0.0050    0.0330 C.ar    1  LIG1        0.0054
      2 C           1.1629    0.0370    0.0320 C.ar    1  LIG1       -0.0398
      3 C          -0.9364    1.2152    0.0427 C.ar    1  LIG1       -0.0475
      4 C           1.8674    1.2482    0.0549 C.ar    1  LIG1       -0.0026
      5 H           1.7320   -0.8872    0.0106 H       1  LIG1        0.0635
      6 C          -0.2501    2.4245    0.0490 C.ar    1  LIG1       -0.0469
      7 C           1.1501    2.4607    0.0619 C.ar    1  LIG1        0.0125
      8 H          -0.8170    3.3505    0.0548 H       1  LIG1        0.0629
      9 H          -2.0222    1.2175    0.0503 H       1  LIG1        0.0629
     10 S          -1.1696   -1.5178   -0.0113 S.3     1  LIG1       -0.1426
     11 H          -0.1502   -2.3420    0.2977 H       1  LIG1        0.1071
     12 S           2.0536    4.0068    0.0939 S.3     1  LIG1       -0.1420
     13 H           0.9695    4.7920    0.2476 H       1  LIG1        0.1071
     14 C           4.1092    0.8013    1.1602 C.ar    1  LIG1        0.0131
     15 C           5.5040    0.7737    1.0734 C.ar    1  LIG1       -0.0392
     16 C           3.3623    1.2174    0.0409 C.ar    1  LIG1       -0.0026
     17 C           6.1840    1.1456   -0.0916 C.ar    1  LIG1       -0.0026
     18 H           6.0933    0.4626    1.9303 H       1  LIG1        0.0635
     19 C           4.0424    1.5892   -1.1240 C.ar    1  LIG1       -0.0392
     20 C           5.4374    1.5621   -1.2111 C.ar    1  LIG1        0.0131
     21 H           3.4527    1.8995   -1.9808 H       1  LIG1        0.0635
     22 S           3.2484    0.3367    2.6592 S.3     1  LIG1       -0.1420
     23 H           4.3595    0.1148    3.3879 H       1  LIG1        0.1071
     24 S           6.2973    2.0249   -2.7107 S.3     1  LIG1       -0.1420
     25 H           5.1853    2.2521   -3.4365 H       1  LIG1        0.1071
     26 C           8.3952   -0.1013   -0.0949 C.ar    1  LIG1        0.0131
     27 C           9.7924   -0.0642   -0.0691 C.ar    1  LIG1       -0.0392
     28 C           7.6784    1.1110   -0.1038 C.ar    1  LIG1       -0.0026
     29 C          10.5041    1.1404   -0.0698 C.ar    1  LIG1       -0.0026
     30 H          10.3580   -0.9904   -0.0481 H       1  LIG1        0.0635
     31 C           8.3899    2.3160   -0.0945 C.ar    1  LIG1       -0.0392
     32 C           9.7872    2.3528   -0.0862 C.ar    1  LIG1        0.0131
     33 H           7.8238    3.2421   -0.0952 H       1  LIG1        0.0635
     34 S           7.4962   -1.6496   -0.1119 S.3     1  LIG1       -0.1420
     35 H           8.5785   -2.4301   -0.2979 H       1  LIG1        0.1071
     36 S          10.6875    3.9000   -0.0930 S.3     1  LIG1       -0.1420
     37 H           9.6081    4.6816   -0.2914 H       1  LIG1        0.1071
     38 C          12.7681    0.6782   -1.1213 C.ar    1  LIG1        0.0125
     39 C          14.1637    0.6463   -1.0050 C.ar    1  LIG1       -0.0469
     40 C          11.9982    1.1064   -0.0213 C.ar    1  LIG1       -0.0026
     41 C          14.7957    1.0434    0.1684 C.ar    1  LIG1       -0.0475
     42 H          14.7706    0.3214   -1.8447 H       1  LIG1        0.0629
     43 C          12.6477    1.4842    1.1616 C.ar    1  LIG1       -0.0398
     44 C          14.0405    1.4667    1.2675 C.ar    1  LIG1        0.0054
     45 H          12.0394    1.7911    2.0066 H       1  LIG1        0.0635
     46 H          15.8800    1.0293    0.2225 H       1  LIG1        0.0629
     47 S          11.9366    0.2009   -2.6332 S.3     1  LIG1       -0.1420
     48 H          13.0618    0.0331   -3.3553 H       1  LIG1        0.1071
     49 S          14.9034    1.9228    2.7669 S.3     1  LIG1       -0.1426
     50 H          13.8955    2.6191    3.3268 H       1  LIG1        0.1071
@<TRIPOS>BOND
     1    25    24    1
     2    48    47    1
     3    24    20    1
     4    47    38    1
     5    21    19    1
     6    42    39    1
     7    20    19   ar
     8    20    17   ar
     9    19    16   ar
    10    38    39   ar
    11    38    40   ar
    12    39    41   ar
    13    35    34    1
    14    37    36    1
    15    34    26    1
    16    28    26   ar
    17    28    31   ar
    18    28    17    1
    19    33    31    1
    20    26    27   ar
    21    31    32   ar
    22    36    32    1
    23    17    15   ar
    24    32    29   ar
    25    29    27   ar
    26    29    40    1
    27    27    30    1
    28    40    43   ar
    29    10     1    1
    30    10    11    1
    31     5     2    1
    32     2     1   ar
    33     2     4   ar
    34     1     3   ar
    35    16     4    1
    36    16    14   ar
    37     3     6   ar
    38     3     9    1
    39     6     8    1
    40     6     7   ar
    41     4     7   ar
    42     7    12    1
    43    12    13    1
    44    41    46    1
    45    41    44   ar
    46    15    14   ar
    47    15    18    1
    48    14    22    1
    49    43    44   ar
    50    43    45    1
    51    44    49    1
    52    22    23    1
    53    49    50    1
