@<TRIPOS>MOLECULE
mol_data/opt/b3lyp/geoms/mol2/4gg4gg-4gg.out
 38 40 0 0 0
SMALL
GASTEIGER

@<TRIPOS>ATOM
      1 C          -0.1204    0.1213   -0.5186 C.ar    1  LIG1        0.0054
      2 C           1.2759    0.1385   -0.4827 C.ar    1  LIG1       -0.0398
      3 C          -0.8221    1.2308   -0.0342 C.ar    1  LIG1       -0.0475
      4 C           1.9809    1.2308    0.0402 C.ar    1  LIG1       -0.0026
      5 H           1.8439   -0.7030   -0.8667 H       1  LIG1        0.0635
      6 C          -0.1350    2.3296    0.4700 C.ar    1  LIG1       -0.0469
      7 C           1.2646    2.3445    0.5219 C.ar    1  LIG1        0.0125
      8 H          -0.7010    3.1797    0.8388 H       1  LIG1        0.0629
      9 H          -1.9078    1.2380   -0.0434 H       1  LIG1        0.0629
     10 S          -1.0559   -1.2446   -1.1956 S.3     1  LIG1       -0.1426
     11 H          -0.0640   -2.1548   -1.1553 H       1  LIG1        0.1071
     12 S           2.1693    3.7382    1.1899 S.3     1  LIG1       -0.1420
     13 H           1.0829    4.4066    1.6240 H       1  LIG1        0.1071
     14 C           4.1963    0.3605    0.9225 C.ar    1  LIG1        0.0131
     15 C           5.5929    0.3574    0.8631 C.ar    1  LIG1       -0.0392
     16 C           3.4757    1.1942    0.0453 C.ar    1  LIG1       -0.0026
     17 C           6.2997    1.1563   -0.0424 C.ar    1  LIG1       -0.0026
     18 H           6.1624   -0.2745    1.5373 H       1  LIG1        0.0635
     19 C           4.1825    1.9932   -0.8601 C.ar    1  LIG1       -0.0392
     20 C           5.5791    1.9900   -0.9196 C.ar    1  LIG1        0.0131
     21 H           3.6130    2.6251   -1.5344 H       1  LIG1        0.0635
     22 S           3.3002   -0.6551    2.0926 S.3     1  LIG1       -0.1420
     23 H           4.3935   -1.1508    2.7041 H       1  LIG1        0.1071
     24 S           6.4752    3.0057   -2.0897 S.3     1  LIG1       -0.1420
     25 H           5.3819    3.5011   -2.7015 H       1  LIG1        0.1071
     26 C           8.5106    0.0060   -0.5195 C.ar    1  LIG1        0.0125
     27 C           9.9103    0.0207   -0.4675 C.ar    1  LIG1       -0.0469
     28 C           7.7945    1.1196   -0.0373 C.ar    1  LIG1       -0.0026
     29 C          10.5976    1.1191    0.0372 C.ar    1  LIG1       -0.0475
     30 H          10.4761   -0.8294   -0.8366 H       1  LIG1        0.0629
     31 C           8.4997    2.2116    0.4861 C.ar    1  LIG1       -0.0398
     32 C           9.8960    2.2286    0.5221 C.ar    1  LIG1        0.0054
     33 H           7.9318    3.0531    0.8702 H       1  LIG1        0.0635
     34 H          11.6833    1.1116    0.0467 H       1  LIG1        0.0629
     35 S           7.6057   -1.3873   -1.1880 S.3     1  LIG1       -0.1420
     36 H           8.6920   -2.0552   -1.6232 H       1  LIG1        0.1071
     37 S          10.8319    3.5941    1.1993 S.3     1  LIG1       -0.1426
     38 H           9.8385    4.5029    1.1646 H       1  LIG1        0.1071
@<TRIPOS>BOND
     1    25    24    1
     2    24    20    1
     3    36    35    1
     4    21    19    1
     5    10    11    1
     6    10     1    1
     7    35    26    1
     8    20    19   ar
     9    20    17   ar
    10     5     2    1
    11    19    16   ar
    12    30    27    1
    13    26    27   ar
    14    26    28   ar
    15     1     2   ar
    16     1     3   ar
    17     2     4   ar
    18    27    29   ar
    19     9     3    1
    20    17    28    1
    21    17    15   ar
    22    28    31   ar
    23     3     6   ar
    24    29    34    1
    25    29    32   ar
    26     4    16    1
    27     4     7   ar
    28    16    14   ar
    29     6     7   ar
    30     6     8    1
    31    31    32   ar
    32    31    33    1
    33     7    12    1
    34    32    37    1
    35    15    14   ar
    36    15    18    1
    37    14    22    1
    38    38    37    1
    39    12    13    1
    40    22    23    1
