@<TRIPOS>MOLECULE
mol_data/opt/b3lyp/geoms/mol2/4gg4gg-4gg4gg.out
 50 53 0 0 0
SMALL
GASTEIGER

@<TRIPOS>ATOM
      1 C          -0.2296    0.2379   -0.7417 C.ar    1  LIG1        0.0054
      2 C           1.1663    0.2496   -0.6949 C.ar    1  LIG1       -0.0398
      3 C          -0.9364    1.2280   -0.0495 C.ar    1  LIG1       -0.0475
      4 C           1.8663    1.2193    0.0357 C.ar    1  LIG1       -0.0026
      5 H           1.7391   -0.4999   -1.2321 H       1  LIG1        0.0635
      6 C          -0.2544    2.2042    0.6681 C.ar    1  LIG1       -0.0469
      7 C           1.1452    2.2130    0.7267 C.ar    1  LIG1        0.0125
      8 H          -0.8245    2.9628    1.1958 H       1  LIG1        0.0629
      9 H          -2.0221    1.2383   -0.0652 H       1  LIG1        0.0629
     10 S          -1.1606   -0.9715   -1.6726 S.3     1  LIG1       -0.1426
     11 H          -0.1313   -1.7996   -1.9339 H       1  LIG1        0.1071
     12 S           2.0422    3.4495    1.6615 S.3     1  LIG1       -0.1420
     13 H           0.9513    4.0199    2.2092 H       1  LIG1        0.1071
     14 C           4.0848    0.1939    0.7250 C.ar    1  LIG1        0.0131
     15 C           5.4812    0.2074    0.6664 C.ar    1  LIG1       -0.0392
     16 C           3.3613    1.1870    0.0362 C.ar    1  LIG1       -0.0026
     17 C           6.1854    1.1765   -0.0569 C.ar    1  LIG1       -0.0026
     18 H           6.0531   -0.5472    1.1970 H       1  LIG1        0.0635
     19 C           4.0655    2.1559   -0.6870 C.ar    1  LIG1       -0.0392
     20 C           5.4621    2.1692   -0.7462 C.ar    1  LIG1        0.0131
     21 H           3.4938    2.9105   -1.2179 H       1  LIG1        0.0635
     22 S           3.1933   -1.0416    1.6641 S.3     1  LIG1       -0.1420
     23 H           4.2891   -1.6515    2.1561 H       1  LIG1        0.1071
     24 S           6.3525    3.4047   -1.6873 S.3     1  LIG1       -0.1420
     25 H           5.2565    4.0065   -2.1885 H       1  LIG1        0.1071
     26 C           8.4052    0.1429   -0.7305 C.ar    1  LIG1        0.0131
     27 C           9.8016    0.1573   -0.6681 C.ar    1  LIG1       -0.0392
     28 C           7.6800    1.1437   -0.0548 C.ar    1  LIG1       -0.0026
     29 C          10.5039    1.1349    0.0452 C.ar    1  LIG1       -0.0026
     30 H          10.3748   -0.6034   -1.1886 H       1  LIG1        0.0635
     31 C           8.3823    2.1216    0.6584 C.ar    1  LIG1       -0.0392
     32 C           9.7786    2.1360    0.7203 C.ar    1  LIG1        0.0131
     33 H           7.8089    2.8823    1.1786 H       1  LIG1        0.0635
     34 S           7.5173   -1.1038   -1.6589 S.3     1  LIG1       -0.1420
     35 H           8.6148   -1.7135   -2.1475 H       1  LIG1        0.1071
     36 S          10.6677    3.3829    1.6467 S.3     1  LIG1       -0.1420
     37 H           9.5706    3.9984    2.1289 H       1  LIG1        0.1071
     38 C          12.7187    0.1183    0.7537 C.ar    1  LIG1        0.0125
     39 C          14.1185    0.1268    0.6983 C.ar    1  LIG1       -0.0469
     40 C          11.9990    1.1030    0.0487 C.ar    1  LIG1       -0.0026
     41 C          14.8018    1.0941   -0.0299 C.ar    1  LIG1       -0.0475
     42 H          14.6876   -0.6249    1.2368 H       1  LIG1        0.0629
     43 C          12.7004    2.0638   -0.6922 C.ar    1  LIG1       -0.0398
     44 C          14.0964    2.0753   -0.7361 C.ar    1  LIG1        0.0054
     45 H          12.1286    2.8065   -1.2399 H       1  LIG1        0.0635
     46 H          15.8875    1.0839   -0.0431 H       1  LIG1        0.0629
     47 S          11.8198   -1.1068    1.7018 S.3     1  LIG1       -0.1420
     48 H          12.9097   -1.6709    2.2580 H       1  LIG1        0.1071
     49 S          15.0293    3.2736   -1.6793 S.3     1  LIG1       -0.1426
     50 H          13.9994    4.0952   -1.9579 H       1  LIG1        0.1071
@<TRIPOS>BOND
     1    25    24    1
     2    35    34    1
     3    50    49    1
     4    11    10    1
     5    24    20    1
     6    49    44    1
     7    10     1    1
     8    34    26    1
     9    45    43    1
    10     5     2    1
    11    21    19    1
    12    30    27    1
    13    20    19   ar
    14    20    17   ar
    15     1     2   ar
    16     1     3   ar
    17    44    43   ar
    18    44    41   ar
    19    26    27   ar
    20    26    28   ar
    21     2     4   ar
    22    43    40   ar
    23    19    16   ar
    24    27    29   ar
    25     9     3    1
    26    17    28    1
    27    17    15   ar
    28    28    31   ar
    29     3     6   ar
    30    46    41    1
    31    41    39   ar
    32     4    16    1
    33     4     7   ar
    34    16    14   ar
    35    29    40    1
    36    29    32   ar
    37    40    38   ar
    38    31    32   ar
    39    31    33    1
    40    15    14   ar
    41    15    18    1
    42     6     7   ar
    43     6     8    1
    44    39    38   ar
    45    39    42    1
    46    32    36    1
    47    14    22    1
    48     7    12    1
    49    38    47    1
    50    36    37    1
    51    12    13    1
    52    22    23    1
    53    47    48    1
