@<TRIPOS>MOLECULE
mol_data/opt/b3lyp/geoms/mol2/4gg4gg4gg-4gg-.out
 50 53 0 0 0
SMALL
GASTEIGER

@<TRIPOS>ATOM
      1 C          -0.2289    0.2442    0.7665 C.ar    1  LIG1        0.0054
      2 C           1.1669    0.2554    0.7185 C.ar    1  LIG1       -0.0398
      3 C          -0.9364    1.2262    0.0636 C.ar    1  LIG1       -0.0475
      4 C           1.8663    1.2169   -0.0236 C.ar    1  LIG1       -0.0026
      5 H           1.7402   -0.4879    1.2637 H       1  LIG1        0.0635
      6 C          -0.2550    2.1942   -0.6657 C.ar    1  LIG1       -0.0469
      7 C           1.1445    2.2025   -0.7254 C.ar    1  LIG1        0.0125
      8 H          -0.8256    2.9465   -1.2017 H       1  LIG1        0.0629
      9 H          -2.0220    1.2366    0.0801 H       1  LIG1        0.0629
     10 S          -1.1592   -0.9548    1.7117 S.3     1  LIG1       -0.1426
     11 H          -0.1291   -1.7786    1.9836 H       1  LIG1        0.1071
     12 S           2.0407    3.4282   -1.6750 S.3     1  LIG1       -0.1420
     13 H           0.9493    3.9941   -2.2261 H       1  LIG1        0.1071
     14 C           4.0847    0.1845   -0.7032 C.ar    1  LIG1        0.0131
     15 C           5.4811    0.1992   -0.6457 C.ar    1  LIG1       -0.0392
     16 C           3.3612    1.1849   -0.0250 C.ar    1  LIG1       -0.0026
     17 C           6.1855    1.1766    0.0661 C.ar    1  LIG1       -0.0026
     18 H           6.0530   -0.5610   -1.1684 H       1  LIG1        0.0635
     19 C           4.0657    2.1621    0.6867 C.ar    1  LIG1       -0.0392
     20 C           5.4622    2.1767    0.7448 C.ar    1  LIG1        0.0131
     21 H           3.4939    2.9225    1.2095 H       1  LIG1        0.0635
     22 S           3.1931   -1.0619   -1.6277 S.3     1  LIG1       -0.1420
     23 H           4.2889   -1.6762   -2.1145 H       1  LIG1        0.1071
     24 S           6.3528    3.4229    1.6714 S.3     1  LIG1       -0.1420
     25 H           5.2569    4.0285    2.1684 H       1  LIG1        0.1071
     26 C           8.4061    0.1509    0.7487 C.ar    1  LIG1        0.0131
     27 C           9.8025    0.1651    0.6852 C.ar    1  LIG1       -0.0392
     28 C           7.6800    1.1443    0.0633 C.ar    1  LIG1       -0.0026
     29 C          10.5039    1.1356   -0.0386 C.ar    1  LIG1       -0.0026
     30 H          10.3763   -0.5900    1.2130 H       1  LIG1        0.0635
     31 C           8.3814    2.1151   -0.6605 C.ar    1  LIG1       -0.0392
     32 C           9.7777    2.1294   -0.7236 C.ar    1  LIG1        0.0131
     33 H           7.8074    2.8703   -1.1880 H       1  LIG1        0.0635
     34 S           7.5194   -1.0865    1.6907 S.3     1  LIG1       -0.1420
     35 H           8.6174   -1.6888    2.1871 H       1  LIG1        0.1071
     36 S          10.6657    3.3672   -1.6630 S.3     1  LIG1       -0.1420
     37 H           9.5681    3.9759   -2.1526 H       1  LIG1        0.1071
     38 C          12.7187    0.1136   -0.7393 C.ar    1  LIG1        0.0125
     39 C          14.1184    0.1234   -0.6851 C.ar    1  LIG1       -0.0469
     40 C          11.9989    1.1043   -0.0429 C.ar    1  LIG1       -0.0026
     41 C          14.8018    1.0976    0.0338 C.ar    1  LIG1       -0.0475
     42 H          14.6875   -0.6329   -1.2172 H       1  LIG1        0.0629
     43 C          12.7004    2.0723    0.6887 C.ar    1  LIG1       -0.0398
     44 C          14.0963    2.0849    0.7314 C.ar    1  LIG1        0.0054
     45 H          12.1286    2.8197    1.2300 H       1  LIG1        0.0635
     46 H          15.8876    1.0881    0.0463 H       1  LIG1        0.0629
     47 S          11.8196   -1.1206   -1.6753 S.3     1  LIG1       -0.1420
     48 H          12.9094   -1.6910   -2.2252 H       1  LIG1        0.1071
     49 S          15.0294    3.2923    1.6631 S.3     1  LIG1       -0.1426
     50 H          13.9992    4.1158    1.9351 H       1  LIG1        0.1071
@<TRIPOS>BOND
     1    13    12    1
     2    48    47    1
     3    37    36    1
     4    23    22    1
     5    47    38    1
     6    12     7    1
     7    36    32    1
     8    22    14    1
     9    42    39    1
    10     8     6    1
    11    33    31    1
    12    18    15    1
    13    38    39   ar
    14    38    40   ar
    15     7     6   ar
    16     7     4   ar
    17    32    31   ar
    18    32    29   ar
    19    14    15   ar
    20    14    16   ar
    21    39    41   ar
    22     6     3   ar
    23    31    28   ar
    24    15    17   ar
    25    40    29    1
    26    40    43   ar
    27    29    27   ar
    28    16     4    1
    29    16    19   ar
    30     4     2   ar
    31    41    46    1
    32    41    44   ar
    33    28    17    1
    34    28    26   ar
    35     3     9    1
    36     3     1   ar
    37    17    20   ar
    38    27    26   ar
    39    27    30    1
    40    19    20   ar
    41    19    21    1
    42    43    44   ar
    43    43    45    1
    44     2     1   ar
    45     2     5    1
    46    44    49    1
    47    20    24    1
    48    26    34    1
    49     1    10    1
    50    49    50    1
    51    24    25    1
    52    34    35    1
    53    10    11    1
