@<TRIPOS>MOLECULE
mol_data/opt/b3lyp/geoms/mol2/4gg4gg4gg4gg.out
 50 53 0 0 0
SMALL
GASTEIGER

@<TRIPOS>ATOM
      1 C          -0.1533    1.6211    1.2809 C.ar    1  LIG1        0.0054
      2 C           1.2382    1.5550    1.1782 C.ar    1  LIG1       -0.0398
      3 C          -0.9279    1.3232    0.1544 C.ar    1  LIG1       -0.0475
      4 C           1.8679    1.1827   -0.0171 C.ar    1  LIG1       -0.0026
      5 H           1.8614    1.7986    2.0330 H       1  LIG1        0.0635
      6 C          -0.3160    0.9705   -1.0436 C.ar    1  LIG1       -0.0469
      7 C           1.0785    0.8883   -1.1469 C.ar    1  LIG1        0.0125
      8 H          -0.9380    0.7432   -1.9041 H       1  LIG1        0.0629
      9 H          -2.0116    1.3589    0.2104 H       1  LIG1        0.0629
     10 S          -0.9923    2.1130    2.7823 S.3     1  LIG1       -0.1426
     11 H           0.0394    1.8981    3.6210 H       1  LIG1        0.1071
     12 S           1.8850    0.4077   -2.6712 S.3     1  LIG1       -0.1420
     13 H           0.7481    0.1412   -3.3435 H       1  LIG1        0.1071
     14 C           4.0986    0.1460    0.6108 C.ar    1  LIG1        0.0131
     15 C           5.4949    0.1828    0.5580 C.ar    1  LIG1       -0.0392
     16 C           3.3617    1.1384   -0.0646 C.ar    1  LIG1       -0.0026
     17 C           6.1861    1.1661   -0.1586 C.ar    1  LIG1       -0.0026
     18 H           6.0761   -0.5678    1.0844 H       1  LIG1        0.0635
     19 C           4.0533    2.1266   -0.7739 C.ar    1  LIG1       -0.0392
     20 C           5.4495    2.1543   -0.8405 C.ar    1  LIG1        0.0131
     21 H           3.4721    2.8885   -1.2837 H       1  LIG1        0.0635
     22 S           3.2246   -1.1252    1.5194 S.3     1  LIG1       -0.1420
     23 H           4.3142   -1.8722    1.7841 H       1  LIG1        0.1071
     24 S           6.3232    3.4125   -1.7659 S.3     1  LIG1       -0.1420
     25 H           5.2234    3.9523   -2.3265 H       1  LIG1        0.1071
     26 C           8.4255    0.1697   -0.8254 C.ar    1  LIG1        0.0131
     27 C           9.8208    0.1969   -0.7425 C.ar    1  LIG1       -0.0392
     28 C           7.6811    1.1564   -0.1499 C.ar    1  LIG1       -0.0026
     29 C          10.5041    1.1835   -0.0230 C.ar    1  LIG1       -0.0026
     30 H          10.4078   -0.5638   -1.2472 H       1  LIG1        0.0635
     31 C           8.3640    2.1380    0.5769 C.ar    1  LIG1       -0.0392
     32 C           9.7596    2.1745    0.6460 C.ar    1  LIG1        0.0131
     33 H           7.7768    2.8875    1.0982 H       1  LIG1        0.0635
     34 S           7.5624   -1.0863   -1.7639 S.3     1  LIG1       -0.1420
     35 H           8.6685   -1.6246   -2.3134 H       1  LIG1        0.1071
     36 S          10.6230    3.4435    1.5676 S.3     1  LIG1       -0.1420
     37 H           9.5308    4.1908    1.8201 H       1  LIG1        0.1071
     38 C          12.7999    1.4354   -1.0781 C.ar    1  LIG1        0.0125
     39 C          14.1931    1.3526   -0.9588 C.ar    1  LIG1       -0.0469
     40 C          11.9974    1.1387    0.0418 C.ar    1  LIG1       -0.0026
     41 C          14.7909    0.9972    0.2455 C.ar    1  LIG1       -0.0475
     42 H          14.8250    1.5817   -1.8116 H       1  LIG1        0.0629
     43 C          12.6131    0.7638    1.2435 C.ar    1  LIG1       -0.0398
     44 C          14.0033    0.6970    1.3622 C.ar    1  LIG1        0.0054
     45 H          11.9799    0.5185    2.0905 H       1  LIG1        0.0635
     46 H          15.8739    0.9610    0.3139 H       1  LIG1        0.0629
     47 S          12.0112    1.9195   -2.6106 S.3     1  LIG1       -0.1420
     48 H          13.1559    2.1870   -3.2692 H       1  LIG1        0.1071
     49 S          14.8247    0.2017    2.8722 S.3     1  LIG1       -0.1426
     50 H          13.7828    0.4132    3.6991 H       1  LIG1        0.1071
@<TRIPOS>BOND
     1    13    12    1
     2    48    47    1
     3    12     7    1
     4    47    38    1
     5    25    24    1
     6    35    34    1
     7     8     6    1
     8    42    39    1
     9    24    20    1
    10    34    26    1
    11    21    19    1
    12    30    27    1
    13     7     6   ar
    14     7     4   ar
    15    38    39   ar
    16    38    40   ar
    17     6     3   ar
    18    39    41   ar
    19    20    19   ar
    20    20    17   ar
    21    26    27   ar
    22    26    28   ar
    23    19    16   ar
    24    27    29   ar
    25    17    28    1
    26    17    15   ar
    27    28    31   ar
    28    16     4    1
    29    16    14   ar
    30    29    40    1
    31    29    32   ar
    32     4     2   ar
    33    40    43   ar
    34     3     9    1
    35     3     1   ar
    36    41    46    1
    37    41    44   ar
    38    15    14   ar
    39    15    18    1
    40    31    32   ar
    41    31    33    1
    42    14    22    1
    43    32    36    1
    44     2     1   ar
    45     2     5    1
    46    43    44   ar
    47    43    45    1
    48     1    10    1
    49    44    49    1
    50    22    23    1
    51    36    37    1
    52    10    11    1
    53    49    50    1
