@<TRIPOS>MOLECULE
mol_data/opt/b3lyp/geoms/mol2/4gg4gg.out
 26 27 0 0 0
SMALL
GASTEIGER

@<TRIPOS>ATOM
      1 C           0.0073    0.2350    0.7824 C.ar    1  LIG1        0.0054
      2 C           1.4028    0.2483    0.7223 C.ar    1  LIG1       -0.0398
      3 C          -0.7070    1.2265    0.1005 C.ar    1  LIG1       -0.0475
      4 C           2.0950    1.2188   -0.0143 C.ar    1  LIG1       -0.0026
      5 H           1.9810   -0.5004    1.2549 H       1  LIG1        0.0635
      6 C          -0.0327    2.2060   -0.6203 C.ar    1  LIG1       -0.0469
      7 C           1.3660    2.2145   -0.6944 C.ar    1  LIG1        0.0125
      8 H          -0.6084    2.9658   -1.1402 H       1  LIG1        0.0629
      9 H          -1.7925    1.2343    0.1255 H       1  LIG1        0.0629
     10 S          -0.9122   -0.9744    1.7260 S.3     1  LIG1       -0.1426
     11 H           0.0989   -1.8477    1.8964 H       1  LIG1        0.1071
     12 S           2.2542    3.4522   -1.6353 S.3     1  LIG1       -0.1420
     13 H           1.1581    4.0249   -2.1704 H       1  LIG1        0.1071
     14 C           4.3037    0.1990   -0.7365 C.ar    1  LIG1        0.0125
     15 C           5.7037    0.2066   -0.6932 C.ar    1  LIG1       -0.0469
     16 C           3.5902    1.1880   -0.0309 C.ar    1  LIG1       -0.0026
     17 C           6.3941    1.1786    0.0225 C.ar    1  LIG1       -0.0475
     18 H           6.2676   -0.5483   -1.2329 H       1  LIG1        0.0629
     19 C           4.2988    2.1516    0.6994 C.ar    1  LIG1       -0.0398
     20 C           5.6953    2.1637    0.7293 C.ar    1  LIG1        0.0054
     21 H           3.7327    2.8955    1.2512 H       1  LIG1        0.0635
     22 H           7.4799    1.1698    0.0242 H       1  LIG1        0.0629
     23 S           3.3945   -1.0295   -1.6697 S.3     1  LIG1       -0.1420
     24 H           4.4786   -1.5986   -2.2324 H       1  LIG1        0.1071
     25 S           6.6362    3.3643    1.6627 S.3     1  LIG1       -0.1426
     26 H           5.6247    4.2262    1.8816 H       1  LIG1        0.1071
@<TRIPOS>BOND
     1    24    23    1
     2    13    12    1
     3    23    14    1
     4    12     7    1
     5    18    15    1
     6     8     6    1
     7    14    15   ar
     8    14    16   ar
     9     7     6   ar
    10     7     4   ar
    11    15    17   ar
    12     6     3   ar
    13    16     4    1
    14    16    19   ar
    15     4     2   ar
    16    17    22    1
    17    17    20   ar
    18     3     9    1
    19     3     1   ar
    20    19    20   ar
    21    19    21    1
    22     2     1   ar
    23     2     5    1
    24    20    25    1
    25     1    10    1
    26    25    26    1
    27    10    11    1
