@<TRIPOS>MOLECULE
mol_data/opt/b3lyp/geoms/mol2/4gg4gg4gg-4gg.out
 50 53 0 0 0
SMALL
GASTEIGER

@<TRIPOS>ATOM
      1 C          -0.2294    0.2377    0.7516 C.ar    1  LIG1        0.0054
      2 C           1.1665    0.2502    0.7057 C.ar    1  LIG1       -0.0398
      3 C          -0.9365    1.2227    0.0523 C.ar    1  LIG1       -0.0475
      4 C           1.8662    1.2157   -0.0308 C.ar    1  LIG1       -0.0026
      5 H           1.7395   -0.4953    1.2482 H       1  LIG1        0.0635
      6 C          -0.2548    2.1945   -0.6714 C.ar    1  LIG1       -0.0469
      7 C           1.1449    2.2041   -0.7290 C.ar    1  LIG1        0.0125
      8 H          -0.8251    2.9491   -1.2046 H       1  LIG1        0.0629
      9 H          -2.0222    1.2322    0.0673 H       1  LIG1        0.0629
     10 S          -1.1602   -0.9664    1.6894 S.3     1  LIG1       -0.1426
     11 H          -0.1295   -1.7893    1.9613 H       1  LIG1        0.1071
     12 S           2.0416    3.4351   -1.6714 S.3     1  LIG1       -0.1420
     13 H           0.9507    4.0007   -2.2240 H       1  LIG1        0.1071
     14 C           4.0861    0.1873   -0.7113 C.ar    1  LIG1        0.0131
     15 C           5.4824    0.2022   -0.6517 C.ar    1  LIG1       -0.0392
     16 C           3.3613    1.1845   -0.0298 C.ar    1  LIG1       -0.0026
     17 C           6.1854    1.1768    0.0655 C.ar    1  LIG1       -0.0026
     18 H           6.0553   -0.5555   -1.1767 H       1  LIG1        0.0635
     19 C           4.0643    2.1588    0.6874 C.ar    1  LIG1       -0.0392
     20 C           5.4608    2.1736    0.7475 C.ar    1  LIG1        0.0131
     21 H           3.4915    2.9165    1.2128 H       1  LIG1        0.0635
     22 S           3.1961   -1.0552   -1.6428 S.3     1  LIG1       -0.1420
     23 H           4.2927   -1.6676   -2.1298 H       1  LIG1        0.1071
     24 S           6.3496    3.4160    1.6809 S.3     1  LIG1       -0.1420
     25 H           5.2526    4.0225    2.1745 H       1  LIG1        0.1071
     26 C           8.4052    0.1493    0.7480 C.ar    1  LIG1        0.0131
     27 C           9.8016    0.1639    0.6865 C.ar    1  LIG1       -0.0392
     28 C           7.6800    1.1449    0.0648 C.ar    1  LIG1       -0.0026
     29 C          10.5040    1.1369   -0.0330 C.ar    1  LIG1       -0.0026
     30 H          10.3748   -0.5929    1.2127 H       1  LIG1        0.0635
     31 C           8.3823    2.1181   -0.6547 C.ar    1  LIG1       -0.0392
     32 C           9.7786    2.1329   -0.7157 C.ar    1  LIG1        0.0131
     33 H           7.8089    2.8749   -1.1807 H       1  LIG1        0.0635
     34 S           7.5172   -1.0915    1.6844 S.3     1  LIG1       -0.1420
     35 H           8.6146   -1.6957    2.1799 H       1  LIG1        0.1071
     36 S          10.6676    3.3737   -1.6501 S.3     1  LIG1       -0.1420
     37 H           9.5706    3.9855   -2.1370 H       1  LIG1        0.1071
     38 C          12.7197    0.1162   -0.7326 C.ar    1  LIG1        0.0125
     39 C          14.1194    0.1258   -0.6763 C.ar    1  LIG1       -0.0469
     40 C          11.9990    1.1057   -0.0353 C.ar    1  LIG1       -0.0026
     41 C          14.8018    1.0988    0.0452 C.ar    1  LIG1       -0.0475
     42 H          14.6892   -0.6296   -1.2090 H       1  LIG1        0.0629
     43 C          12.6995    2.0723    0.6991 C.ar    1  LIG1       -0.0398
     44 C          14.0954    2.0848    0.7436 C.ar    1  LIG1        0.0054
     45 H          12.1270    2.8186    1.2410 H       1  LIG1        0.0635
     46 H          15.8875    1.0893    0.0590 H       1  LIG1        0.0629
     47 S          11.8220   -1.1162   -1.6722 S.3     1  LIG1       -0.1420
     48 H          12.9125   -1.6841   -2.2233 H       1  LIG1        0.1071
     49 S          15.0271    3.2902    1.6790 S.3     1  LIG1       -0.1426
     50 H          13.9974    4.1157    1.9471 H       1  LIG1        0.1071
@<TRIPOS>BOND
     1    13    12    1
     2    48    47    1
     3    37    36    1
     4    23    22    1
     5    47    38    1
     6    12     7    1
     7    36    32    1
     8    22    14    1
     9    42    39    1
    10     8     6    1
    11    33    31    1
    12    18    15    1
    13    38    39   ar
    14    38    40   ar
    15     7     6   ar
    16     7     4   ar
    17    32    31   ar
    18    32    29   ar
    19    14    15   ar
    20    14    16   ar
    21    39    41   ar
    22     6     3   ar
    23    31    28   ar
    24    15    17   ar
    25    40    29    1
    26    40    43   ar
    27    29    27   ar
    28     4    16    1
    29     4     2   ar
    30    16    19   ar
    31    41    46    1
    32    41    44   ar
    33     3     9    1
    34     3     1   ar
    35    28    17    1
    36    28    26   ar
    37    17    20   ar
    38    27    26   ar
    39    27    30    1
    40    19    20   ar
    41    19    21    1
    42    43    44   ar
    43    43    45    1
    44     2     1   ar
    45     2     5    1
    46    44    49    1
    47    20    24    1
    48    26    34    1
    49     1    10    1
    50    49    50    1
    51    24    25    1
    52    34    35    1
    53    10    11    1
