@<TRIPOS>MOLECULE
mol_data/opt/b3lyp/geoms/mol2/4gg4gg-4gg4gg-.out
 50 53 0 0 0
SMALL
GASTEIGER

@<TRIPOS>ATOM
      1 C          -0.2280    0.2327   -0.7497 C.ar    1  LIG1        0.0054
      2 C           1.1678    0.2451   -0.7007 C.ar    1  LIG1       -0.0398
      3 C          -0.9363    1.2243   -0.0612 C.ar    1  LIG1       -0.0475
      4 C           1.8662    1.2172    0.0283 C.ar    1  LIG1       -0.0026
      5 H           1.7417   -0.5056   -1.2349 H       1  LIG1        0.0635
      6 C          -0.2559    2.2027    0.6549 C.ar    1  LIG1       -0.0469
      7 C           1.1436    2.2123    0.7155 C.ar    1  LIG1        0.0125
      8 H          -0.8272    2.9624    1.1797 H       1  LIG1        0.0629
      9 H          -2.0220    1.2340   -0.0786 H       1  LIG1        0.0629
     10 S          -1.1571   -0.9799   -1.6784 S.3     1  LIG1       -0.1426
     11 H          -0.1264   -1.8065   -1.9386 H       1  LIG1        0.1071
     12 S           2.0388    3.4519    1.6482 S.3     1  LIG1       -0.1420
     13 H           0.9468    4.0238    2.1921 H       1  LIG1        0.1071
     14 C           4.0842    0.1954    0.7245 C.ar    1  LIG1        0.0131
     15 C           5.4807    0.2094    0.6678 C.ar    1  LIG1       -0.0392
     16 C           3.3612    1.1856    0.0310 C.ar    1  LIG1       -0.0026
     17 C           6.1855    1.1762   -0.0579 C.ar    1  LIG1       -0.0026
     18 H           6.0523   -0.5430    1.2020 H       1  LIG1        0.0635
     19 C           4.0660    2.1522   -0.6946 C.ar    1  LIG1       -0.0392
     20 C           5.4627    2.1661   -0.7519 C.ar    1  LIG1        0.0131
     21 H           3.4946    2.9046   -1.2291 H       1  LIG1        0.0635
     22 S           3.1919   -1.0372    1.6666 S.3     1  LIG1       -0.1420
     23 H           4.2873   -1.6449    2.1624 H       1  LIG1        0.1071
     24 S           6.3538    3.3985   -1.6963 S.3     1  LIG1       -0.1420
     25 H           5.2580    3.9986   -2.2004 H       1  LIG1        0.1071
     26 C           8.4066    0.1405   -0.7238 C.ar    1  LIG1        0.0131
     27 C           9.8029    0.1556   -0.6595 C.ar    1  LIG1       -0.0392
     28 C           7.6801    1.1440   -0.0537 C.ar    1  LIG1       -0.0026
     29 C          10.5039    1.1366    0.0504 C.ar    1  LIG1       -0.0026
     30 H          10.3771   -0.6073   -1.1757 H       1  LIG1        0.0635
     31 C           8.3810    2.1253    0.6562 C.ar    1  LIG1       -0.0392
     32 C           9.7772    2.1405    0.7200 C.ar    1  LIG1        0.0131
     33 H           7.8067    2.8881    1.1722 H       1  LIG1        0.0635
     34 S           7.5205   -1.1107   -1.6480 S.3     1  LIG1       -0.1420
     35 H           8.6188   -1.7209   -2.1339 H       1  LIG1        0.1071
     36 S          10.6646    3.3918    1.6420 S.3     1  LIG1       -0.1420
     37 H           9.5666    4.0093    2.1196 H       1  LIG1        0.1071
     38 C          12.7179    0.1240    0.7668 C.ar    1  LIG1        0.0125
     39 C          14.1177    0.1326    0.7134 C.ar    1  LIG1       -0.0469
     40 C          11.9989    1.1052    0.0562 C.ar    1  LIG1       -0.0026
     41 C          14.8018    1.0967   -0.0184 C.ar    1  LIG1       -0.0475
     42 H          14.6862   -0.6164    1.2562 H       1  LIG1        0.0629
     43 C          12.7011    2.0627   -0.6883 C.ar    1  LIG1       -0.0398
     44 C          14.0972    2.0744   -0.7301 C.ar    1  LIG1        0.0054
     45 H          12.1299    2.8026   -1.2404 H       1  LIG1        0.0635
     46 H          15.8876    1.0868   -0.0299 H       1  LIG1        0.0629
     47 S          11.8179   -1.0969    1.7192 S.3     1  LIG1       -0.1420
     48 H          12.9071   -1.6581    2.2798 H       1  LIG1        0.1071
     49 S          15.0311    3.2684   -1.6779 S.3     1  LIG1       -0.1426
     50 H          14.0018    4.0898   -1.9595 H       1  LIG1        0.1071
@<TRIPOS>BOND
     1    25    24    1
     2    35    34    1
     3    50    49    1
     4    11    10    1
     5    24    20    1
     6    10     1    1
     7    49    44    1
     8    34    26    1
     9    45    43    1
    10     5     2    1
    11    21    19    1
    12    30    27    1
    13    20    19   ar
    14    20    17   ar
    15     1     2   ar
    16     1     3   ar
    17    44    43   ar
    18    44    41   ar
    19    26    27   ar
    20    26    28   ar
    21     2     4   ar
    22    19    16   ar
    23    43    40   ar
    24    27    29   ar
    25     9     3    1
    26     3     6   ar
    27    17    28    1
    28    17    15   ar
    29    28    31   ar
    30    46    41    1
    31    41    39   ar
    32     4    16    1
    33     4     7   ar
    34    16    14   ar
    35    29    40    1
    36    29    32   ar
    37    40    38   ar
    38     6     7   ar
    39     6     8    1
    40    31    32   ar
    41    31    33    1
    42    15    14   ar
    43    15    18    1
    44    39    38   ar
    45    39    42    1
    46     7    12    1
    47    32    36    1
    48    14    22    1
    49    38    47    1
    50    36    37    1
    51    12    13    1
    52    22    23    1
    53    47    48    1
