@<TRIPOS>MOLECULE
mol_data/opt/b3lyp/geoms/mol2/4gg4gg4gg.out
 38 40 0 0 0
SMALL
GASTEIGER

@<TRIPOS>ATOM
      1 C          -0.0760    0.8527    1.2341 C.ar    1  LIG1        0.0054
      2 C           1.3177    0.8292    1.1417 C.ar    1  LIG1       -0.0398
      3 C          -0.8189    1.2713    0.1249 C.ar    1  LIG1       -0.0475
      4 C           1.9801    1.1986   -0.0366 C.ar    1  LIG1       -0.0026
      5 H           1.9170    0.5249    1.9941 H       1  LIG1        0.0635
      6 C          -0.1740    1.6588   -1.0448 C.ar    1  LIG1       -0.0469
      7 C           1.2226    1.6229   -1.1467 C.ar    1  LIG1        0.0125
      8 H          -0.7716    1.9803   -1.8924 H       1  LIG1        0.0629
      9 H          -1.9036    1.2900    0.1682 H       1  LIG1        0.0629
     10 S          -0.9555    0.4120    2.7282 S.3     1  LIG1       -0.1426
     11 H           0.0489   -0.2705    3.3109 H       1  LIG1        0.1071
     12 S           2.0710    2.0908   -2.6522 S.3     1  LIG1       -0.1420
     13 H           0.9535    2.2684   -3.3838 H       1  LIG1        0.1071
     14 C           4.1903   -0.0510   -0.0702 C.ar    1  LIG1        0.0131
     15 C           5.5877   -0.0156   -0.0597 C.ar    1  LIG1       -0.0392
     16 C           3.4746    1.1622   -0.0683 C.ar    1  LIG1       -0.0026
     17 C           6.3010    1.1882   -0.0641 C.ar    1  LIG1       -0.0026
     18 H           6.1525   -0.9424   -0.0480 H       1  LIG1        0.0635
     19 C           4.1879    2.3660   -0.0637 C.ar    1  LIG1       -0.0392
     20 C           5.5853    2.4013   -0.0700 C.ar    1  LIG1        0.0131
     21 H           3.6230    3.2928   -0.0552 H       1  LIG1        0.0635
     22 S           3.2884   -1.5975   -0.0813 S.3     1  LIG1       -0.1420
     23 H           4.3698   -2.3806   -0.2614 H       1  LIG1        0.1071
     24 S           6.4869    3.9479   -0.0810 S.3     1  LIG1       -0.1420
     25 H           5.4059    4.7306   -0.2650 H       1  LIG1        0.1071
     26 C           8.5561    0.7247   -1.1347 C.ar    1  LIG1        0.0125
     27 C           9.9524    0.6887   -1.0286 C.ar    1  LIG1       -0.0469
     28 C           7.7954    1.1516   -0.0278 C.ar    1  LIG1       -0.0026
     29 C          10.5939    1.0787    0.1420 C.ar    1  LIG1       -0.0475
     30 H          10.5524    0.3651   -1.8738 H       1  LIG1        0.0629
     31 C           8.4545    1.5236    1.1516 C.ar    1  LIG1       -0.0398
     32 C           9.8478    1.5000    1.2481 C.ar    1  LIG1        0.0054
     33 H           7.8528    1.8300    2.0015 H       1  LIG1        0.0635
     34 H          11.6785    1.0599    0.1886 H       1  LIG1        0.0629
     35 S           7.7122    0.2536   -2.6417 S.3     1  LIG1       -0.1420
     36 H           8.8319    0.0745   -3.3696 H       1  LIG1        0.1071
     37 S          10.7230    1.9440    2.7438 S.3     1  LIG1       -0.1426
     38 H           9.7169    2.6274    3.3222 H       1  LIG1        0.1071
@<TRIPOS>BOND
     1    13    12    1
     2    36    35    1
     3    12     7    1
     4    35    26    1
     5     8     6    1
     6    30    27    1
     7     7     6   ar
     8     7     4   ar
     9    26    27   ar
    10    26    28   ar
    11     6     3   ar
    12    27    29   ar
    13    25    24    1
    14    23    22    1
    15    22    14    1
    16    24    20    1
    17    14    16   ar
    18    14    15   ar
    19    20    17   ar
    20    20    19   ar
    21    16    19   ar
    22    16     4    1
    23    17    15   ar
    24    17    28    1
    25    19    21    1
    26    15    18    1
    27     4     2   ar
    28    28    31   ar
    29     3     9    1
    30     3     1   ar
    31    29    34    1
    32    29    32   ar
    33     2     1   ar
    34     2     5    1
    35    31    32   ar
    36    31    33    1
    37     1    10    1
    38    32    37    1
    39    10    11    1
    40    37    38    1
