@<TRIPOS>MOLECULE
mol_data/opt/b3lyp/geoms/mol2/4gg4gg-4gg-4gg-.out
 50 53 0 0 0
SMALL
GASTEIGER

@<TRIPOS>ATOM
      1 C          -0.2333    0.0045    0.0243 C.ar    1  LIG1        0.0054
      2 C           1.1631    0.0367    0.0257 C.ar    1  LIG1       -0.0398
      3 C          -0.9365    1.2145    0.0252 C.ar    1  LIG1       -0.0475
      4 C           1.8673    1.2482    0.0428 C.ar    1  LIG1       -0.0026
      5 H           1.7324   -0.8874    0.0109 H       1  LIG1        0.0635
      6 C          -0.2504    2.4240    0.0254 C.ar    1  LIG1       -0.0469
      7 C           1.1498    2.4606    0.0409 C.ar    1  LIG1        0.0125
      8 H          -0.8175    3.3500    0.0245 H       1  LIG1        0.0629
      9 H          -2.0223    1.2167    0.0310 H       1  LIG1        0.0629
     10 S          -1.1688   -1.5189   -0.0132 S.3     1  LIG1       -0.1426
     11 H          -0.1514   -2.3402    0.3096 H       1  LIG1        0.1071
     12 S           2.0529    4.0070    0.0652 S.3     1  LIG1       -0.1420
     13 H           0.9683    4.7929    0.2120 H       1  LIG1        0.1071
     14 C           4.1068    0.8085    1.1556 C.ar    1  LIG1        0.0131
     15 C           5.5018    0.7805    1.0720 C.ar    1  LIG1       -0.0392
     16 C           3.3623    1.2176    0.0321 C.ar    1  LIG1       -0.0026
     17 C           6.1843    1.1452   -0.0939 C.ar    1  LIG1       -0.0026
     18 H           6.0893    0.4748    1.9320 H       1  LIG1        0.0635
     19 C           4.0449    1.5821   -1.1336 C.ar    1  LIG1       -0.0392
     20 C           5.4401    1.5546   -1.2176 C.ar    1  LIG1        0.0131
     21 H           3.4570    1.8871   -1.9936 H       1  LIG1        0.0635
     22 S           3.2428    0.3532    2.6556 S.3     1  LIG1       -0.1420
     23 H           4.3524    0.1359    3.3880 H       1  LIG1        0.1071
     24 S           6.3030    2.0081   -2.7182 S.3     1  LIG1       -0.1420
     25 H           5.1925    2.2307   -3.4477 H       1  LIG1        0.1071
     26 C           8.3955   -0.1016   -0.0841 C.ar    1  LIG1        0.0131
     27 C           9.7927   -0.0643   -0.0553 C.ar    1  LIG1       -0.0392
     28 C           7.6787    1.1106   -0.1026 C.ar    1  LIG1       -0.0026
     29 C          10.5044    1.1404   -0.0622 C.ar    1  LIG1       -0.0026
     30 H          10.3583   -0.9903   -0.0270 H       1  LIG1        0.0635
     31 C           8.3901    2.3156   -0.0996 C.ar    1  LIG1       -0.0392
     32 C           9.7874    2.3526   -0.0883 C.ar    1  LIG1        0.0131
     33 H           7.8240    3.2417   -0.1077 H       1  LIG1        0.0635
     34 S           7.4967   -1.6501   -0.0930 S.3     1  LIG1       -0.1420
     35 H           8.5795   -2.4316   -0.2713 H       1  LIG1        0.1071
     36 S          10.6876    3.8998   -0.1030 S.3     1  LIG1       -0.1420
     37 H           9.6086    4.6799   -0.3088 H       1  LIG1        0.1071
     38 C          12.7710    0.6715   -1.1052 C.ar    1  LIG1        0.0125
     39 C          14.1662    0.6403   -0.9852 C.ar    1  LIG1       -0.0469
     40 C          11.9983    1.1068   -0.0099 C.ar    1  LIG1       -0.0026
     41 C          14.7953    1.0448    0.1873 C.ar    1  LIG1       -0.0475
     42 H          14.7752    0.3101   -1.8213 H       1  LIG1        0.0629
     43 C          12.6449    1.4921    1.1721 C.ar    1  LIG1       -0.0398
     44 C          14.0374    1.4752    1.2817 C.ar    1  LIG1        0.0054
     45 H          12.0344    1.8046    2.0136 H       1  LIG1        0.0635
     46 H          15.8795    1.0309    0.2442 H       1  LIG1        0.0629
     47 S          11.9432    0.1845   -2.6161 S.3     1  LIG1       -0.1420
     48 H          13.0702    0.0123   -3.3343 H       1  LIG1        0.1071
     49 S          14.8966    1.9409    2.7802 S.3     1  LIG1       -0.1426
     50 H          13.8863    2.6379    3.3347 H       1  LIG1        0.1071
@<TRIPOS>BOND
     1    25    24    1
     2    48    47    1
     3    24    20    1
     4    47    38    1
     5    21    19    1
     6    42    39    1
     7    20    19   ar
     8    20    17   ar
     9    19    16   ar
    10    38    39   ar
    11    38    40   ar
    12    39    41   ar
    13    37    36    1
    14    35    34    1
    15    33    31    1
    16    36    32    1
    17    28    31   ar
    18    28    17    1
    19    28    26   ar
    20    31    32   ar
    21    17    15   ar
    22    34    26    1
    23    32    29   ar
    24    26    27   ar
    25    29    27   ar
    26    29    40    1
    27    27    30    1
    28    10     1    1
    29    10    11    1
    30    40    43   ar
    31     5     2    1
    32     1     3   ar
    33     1     2   ar
    34     8     6    1
    35     3     6   ar
    36     3     9    1
    37     6     7   ar
    38     2     4   ar
    39    16     4    1
    40    16    14   ar
    41     7     4   ar
    42     7    12    1
    43    12    13    1
    44    41    46    1
    45    41    44   ar
    46    15    14   ar
    47    15    18    1
    48    14    22    1
    49    43    44   ar
    50    43    45    1
    51    44    49    1
    52    22    23    1
    53    49    50    1
