@<TRIPOS>MOLECULE
mol_data/opt/b3lyp/geoms/mol2/4gg4gg4gg-.out
 38 40 0 0 0
SMALL
GASTEIGER

@<TRIPOS>ATOM
      1 C          -0.1214    0.1321    0.5353 C.ar    1  LIG1        0.0054
      2 C           1.2749    0.1473    0.4985 C.ar    1  LIG1       -0.0398
      3 C          -0.8221    1.2377    0.0406 C.ar    1  LIG1       -0.0475
      4 C           1.9809    1.2336   -0.0354 C.ar    1  LIG1       -0.0026
      5 H           1.8421   -0.6912    0.8904 H       1  LIG1        0.0635
      6 C          -0.1339    2.3308   -0.4745 C.ar    1  LIG1       -0.0469
      7 C           1.2657    2.3435   -0.5273 C.ar    1  LIG1        0.0125
      8 H          -0.6989    3.1781   -0.8511 H       1  LIG1        0.0629
      9 H          -1.9077    1.2463    0.0503 H       1  LIG1        0.0629
     10 S          -1.0581   -1.2261    1.2263 S.3     1  LIG1       -0.1426
     11 H          -0.0687   -2.1391    1.1897 H       1  LIG1        0.1071
     12 S           2.1718    3.7296   -1.2093 S.3     1  LIG1       -0.1420
     13 H           1.0859    4.3948   -1.6496 H       1  LIG1        0.1071
     14 C           4.1950    0.3524   -0.9106 C.ar    1  LIG1        0.0131
     15 C           5.5917    0.3484   -0.8519 C.ar    1  LIG1       -0.0392
     16 C           3.4758    1.1952   -0.0411 C.ar    1  LIG1       -0.0026
     17 C           6.2998    1.1552    0.0456 C.ar    1  LIG1       -0.0026
     18 H           6.1601   -0.2905   -1.5204 H       1  LIG1        0.0635
     19 C           4.1840    2.0020    0.8564 C.ar    1  LIG1       -0.0392
     20 C           5.5806    1.9980    0.9152 C.ar    1  LIG1        0.0131
     21 H           3.6155    2.6409    1.5249 H       1  LIG1        0.0635
     22 S           3.2973   -0.6735   -2.0706 S.3     1  LIG1       -0.1420
     23 H           4.3898   -1.1767   -2.6773 H       1  LIG1        0.1071
     24 S           6.4783    3.0235    2.0752 S.3     1  LIG1       -0.1420
     25 H           5.3858    3.5268    2.6820 H       1  LIG1        0.1071
     26 C           8.5098    0.0068    0.5318 C.ar    1  LIG1        0.0125
     27 C           9.9094    0.0195    0.4789 C.ar    1  LIG1       -0.0469
     28 C           7.7947    1.1168    0.0401 C.ar    1  LIG1       -0.0026
     29 C          10.5976    1.1126   -0.0362 C.ar    1  LIG1       -0.0475
     30 H          10.4746   -0.8279    0.8550 H       1  LIG1        0.0629
     31 C           8.5007    2.2034   -0.4934 C.ar    1  LIG1       -0.0398
     32 C           9.8969    2.2185   -0.5305 C.ar    1  LIG1        0.0054
     33 H           7.9333    3.0421   -0.8845 H       1  LIG1        0.0635
     34 H          11.6833    1.1036   -0.0465 H       1  LIG1        0.0629
     35 S           7.6040   -1.3795    1.2134 S.3     1  LIG1       -0.1420
     36 H           8.6897   -2.0438    1.6554 H       1  LIG1        0.1071
     37 S          10.8340    3.5770   -1.2198 S.3     1  LIG1       -0.1426
     38 H           9.8397    4.4852   -1.1991 H       1  LIG1        0.1071
@<TRIPOS>BOND
     1    23    22    1
     2    22    14    1
     3    13    12    1
     4    18    15    1
     5    37    38    1
     6    37    32    1
     7    12     7    1
     8    14    15   ar
     9    14    16   ar
    10    33    31    1
    11    15    17   ar
    12     8     6    1
    13    32    31   ar
    14    32    29   ar
    15     7     6   ar
    16     7     4   ar
    17    31    28   ar
    18     6     3   ar
    19    34    29    1
    20    16     4    1
    21    16    19   ar
    22    29    27   ar
    23     4     2   ar
    24    28    17    1
    25    28    26   ar
    26     3     9    1
    27     3     1   ar
    28    17    20   ar
    29    27    26   ar
    30    27    30    1
    31     2     1   ar
    32     2     5    1
    33    26    35    1
    34     1    10    1
    35    19    20   ar
    36    19    21    1
    37    20    24    1
    38    11    10    1
    39    35    36    1
    40    24    25    1
