@<TRIPOS>MOLECULE
mol_data/opt/b3lyp/geoms/mol2/4gg4gg-.out
 26 27 0 0 0
SMALL
GASTEIGER

@<TRIPOS>ATOM
      1 C           0.0039    0.2300   -0.7647 C.ar    1  LIG1        0.0054
      2 C           1.3996    0.2430   -0.7098 C.ar    1  LIG1       -0.0398
      3 C          -0.7076    1.2257   -0.0860 C.ar    1  LIG1       -0.0475
      4 C           2.0948    1.2180    0.0181 C.ar    1  LIG1       -0.0026
      5 H           1.9756   -0.5092   -1.2397 H       1  LIG1        0.0635
      6 C          -0.0303    2.2093    0.6265 C.ar    1  LIG1       -0.0469
      7 C           1.3687    2.2178    0.6951 C.ar    1  LIG1        0.0125
      8 H          -0.6038    2.9724    1.1440 H       1  LIG1        0.0629
      9 H          -1.7932    1.2340   -0.1073 H       1  LIG1        0.0629
     10 S          -0.9197   -0.9853   -1.6963 S.3     1  LIG1       -0.1426
     11 H           0.0940   -1.8532   -1.8776 H       1  LIG1        0.1071
     12 S           2.2609    3.4612    1.6250 S.3     1  LIG1       -0.1420
     13 H           1.1671    4.0369    2.1614 H       1  LIG1        0.1071
     14 C           4.3070    0.2038    0.7385 C.ar    1  LIG1        0.0125
     15 C           5.7068    0.2120    0.6899 C.ar    1  LIG1       -0.0469
     16 C           3.5902    1.1876    0.0289 C.ar    1  LIG1       -0.0026
     17 C           6.3938    1.1795   -0.0351 C.ar    1  LIG1       -0.0475
     18 H           6.2732   -0.5384    1.2331 H       1  LIG1        0.0629
     19 C           4.2953    2.1464   -0.7109 C.ar    1  LIG1       -0.0398
     20 C           5.6917    2.1591   -0.7463 C.ar    1  LIG1        0.0054
     21 H           3.7266    2.8859   -1.2660 H       1  LIG1        0.0635
     22 H           7.4795    1.1716   -0.0406 H       1  LIG1        0.0629
     23 S           3.4020   -1.0184    1.6840 S.3     1  LIG1       -0.1420
     24 H           4.4893   -1.5904    2.2375 H       1  LIG1        0.1071
     25 S           6.6279    3.3533   -1.6924 S.3     1  LIG1       -0.1426
     26 H           5.6174    4.2181   -1.9046 H       1  LIG1        0.1071
@<TRIPOS>BOND
     1    26    25    1
     2    11    10    1
     3    10     1    1
     4    25    20    1
     5    21    19    1
     6     5     2    1
     7     1     2   ar
     8     1     3   ar
     9    20    19   ar
    10    20    17   ar
    11    19    16   ar
    12     2     4   ar
    13     9     3    1
    14     3     6   ar
    15    22    17    1
    16    17    15   ar
    17     4    16    1
    18     4     7   ar
    19    16    14   ar
    20     6     7   ar
    21     6     8    1
    22    15    14   ar
    23    15    18    1
    24     7    12    1
    25    14    23    1
    26    12    13    1
    27    23    24    1
