@<TRIPOS>MOLECULE
mol_data/opt/b3lyp/geoms/mol2/4gh.out
 15 15 0 0 0
SMALL
GASTEIGER

@<TRIPOS>ATOM
      1 C           0.0920    0.0388    0.0110 C.ar    1  LIG1        0.0049
      2 C           1.4907    0.0415   -0.0073 C.ar    1  LIG1       -0.0468
      3 C          -0.5794    1.2672   -0.0036 C.ar    1  LIG1       -0.0468
      4 C           2.1994    1.2396   -0.0403 C.ar    1  LIG1       -0.0400
      5 H           2.0408   -0.8952    0.0015 H       1  LIG1        0.0629
      6 C           0.1276    2.4647   -0.0364 C.ar    1  LIG1       -0.0400
      7 C           1.5318    2.4740   -0.0557 C.ar    1  LIG1        0.0246
      8 H          -0.4156    3.4064   -0.0428 H       1  LIG1        0.0636
      9 H           3.2864    1.2166   -0.0498 H       1  LIG1        0.0636
     10 H          -1.6652    1.2935    0.0086 H       1  LIG1        0.0629
     11 S          -0.8879   -1.4624    0.0490 S.3     1  LIG1       -0.1426
     12 H           0.1438   -2.3280    0.0563 H       1  LIG1        0.1071
     13 N           2.2435    3.6781   -0.0284 N.pl3   1  LIG1       -0.3580
     14 H           3.1805    3.6238   -0.4047 H       1  LIG1        0.1423
     15 H           1.7433    4.4731   -0.4026 H       1  LIG1        0.1423
@<TRIPOS>BOND
     1    14    13    1
     2    15    13    1
     3     7     4   ar
     4     7     6   ar
     5     7    13    1
     6     9     4    1
     7     8     6    1
     8     4     2   ar
     9     6     3   ar
    10     2     5    1
    11     2     1   ar
    12     3    10    1
    13     3     1   ar
    14     1    11    1
    15    11    12    1
