@<TRIPOS>MOLECULE
mol_data/opt/b3lyp/geoms/mol2/4gh4gh4gh-4gh.out
 54 57 0 0 0
SMALL
GASTEIGER

@<TRIPOS>ATOM
      1 C          -0.1345    2.1963    1.0939 C.ar    1  LIG1        0.0054
      2 C           1.2590    2.1134    1.0173 C.ar    1  LIG1       -0.0390
      3 C          -0.9017    1.4775    0.1700 C.ar    1  LIG1       -0.0468
      4 C           1.8978    1.3159    0.0627 C.ar    1  LIG1        0.0049
      5 H           1.8674    2.6729    1.7207 H       1  LIG1        0.0635
      6 C          -0.2870    0.6882   -0.7937 C.ar    1  LIG1       -0.0394
      7 C           1.1140    0.5910   -0.8701 C.ar    1  LIG1        0.0325
      8 H          -0.8941    0.1423   -1.5117 H       1  LIG1        0.0636
      9 H          -1.9846    1.5385    0.2082 H       1  LIG1        0.0629
     10 S          -0.9252    3.2650    2.3080 S.3     1  LIG1       -0.1426
     11 H          -0.9864    2.3860    3.3335 H       1  LIG1        0.1071
     12 N           1.7098   -0.1435   -1.8858 N.pl3   1  LIG1       -0.3575
     13 H           2.6621   -0.4340   -1.7101 H       1  LIG1        0.1423
     14 H           1.1433   -0.8877   -2.2676 H       1  LIG1        0.1423
     15 C           4.1289    0.1723    0.4863 C.ar    1  LIG1        0.0132
     16 C           5.5243    0.2020    0.4125 C.ar    1  LIG1       -0.0385
     17 C           3.3921    1.2744    0.0080 C.ar    1  LIG1       -0.0012
     18 C           6.2181    1.2881   -0.1304 C.ar    1  LIG1        0.0049
     19 H           6.1035   -0.6325    0.7962 H       1  LIG1        0.0635
     20 C           4.0865    2.3653   -0.5220 C.ar    1  LIG1       -0.0316
     21 C           5.4858    2.4014   -0.6049 C.ar    1  LIG1        0.0330
     22 H           3.5122    3.2099   -0.8935 H       1  LIG1        0.0642
     23 S           3.2480   -1.2076    1.2283 S.3     1  LIG1       -0.1420
     24 H           4.3069   -2.0399    1.2684 H       1  LIG1        0.1071
     25 N           6.1296    3.5328   -1.1066 N.pl3   1  LIG1       -0.3575
     26 H           7.0646    3.3695   -1.4560 H       1  LIG1        0.1423
     27 H           5.5731    4.0852   -1.7446 H       1  LIG1        0.1423
     28 C           8.4218    0.3575   -0.9866 C.ar    1  LIG1        0.0132
     29 C           9.8195    0.3785   -0.9637 C.ar    1  LIG1       -0.0385
     30 C           7.7111    1.2684   -0.1797 C.ar    1  LIG1       -0.0012
     31 C          10.5403    1.2863   -0.1819 C.ar    1  LIG1        0.0049
     32 H          10.3798   -0.3260   -1.5707 H       1  LIG1        0.0635
     33 C           8.4327    2.1755    0.6050 C.ar    1  LIG1       -0.0316
     34 C           9.8336    2.2087    0.6243 C.ar    1  LIG1        0.0330
     35 H           7.8788    2.8763    1.2237 H       1  LIG1        0.0642
     36 S           7.5184   -0.7940   -2.0298 S.3     1  LIG1       -0.1420
     37 H           8.5902   -1.1968   -2.7402 H       1  LIG1        0.1071
     38 N          10.5035    3.0989    1.4650 N.pl3   1  LIG1       -0.3575
     39 H          11.4528    3.3101    1.1879 H       1  LIG1        0.1423
     40 H           9.9788    3.9296    1.7029 H       1  LIG1        0.1423
     41 C          12.7755    1.6216   -1.3381 C.ar    1  LIG1        0.0126
     42 C          14.1733    1.5488   -1.2920 C.ar    1  LIG1       -0.0462
     43 C          12.0348    1.2587   -0.1948 C.ar    1  LIG1       -0.0012
     44 C          14.8374    1.1408   -0.1410 C.ar    1  LIG1       -0.0400
     45 H          14.7590    1.8190   -2.1658 H       1  LIG1        0.0629
     46 C          12.7184    0.8534    0.9593 C.ar    1  LIG1       -0.0322
     47 C          14.1178    0.7855    1.0110 C.ar    1  LIG1        0.0252
     48 H          12.1361    0.5761    1.8338 H       1  LIG1        0.0642
     49 H          15.9233    1.0920   -0.1371 H       1  LIG1        0.0636
     50 S          11.9063    2.1806   -2.8088 S.3     1  LIG1       -0.1420
     51 H          13.0107    2.5719   -3.4749 H       1  LIG1        0.1071
     52 N          14.7712    0.3153    2.1516 N.pl3   1  LIG1       -0.3579
     53 H          15.7270    0.6258    2.2587 H       1  LIG1        0.1423
     54 H          14.2487    0.4037    3.0123 H       1  LIG1        0.1423
@<TRIPOS>BOND
     1    51    50    1
     2    50    41    1
     3    37    36    1
     4    14    12    1
     5    45    42    1
     6    36    28    1
     7    12    13    1
     8    12     7    1
     9    27    25    1
    10    32    29    1
    11     8     6    1
    12    26    25    1
    13    41    42   ar
    14    41    43   ar
    15    42    44   ar
    16    25    21    1
    17    28    29   ar
    18    28    30   ar
    19    29    31   ar
    20    22    20    1
    21     7     6   ar
    22     7     4   ar
    23     6     3   ar
    24    21    20   ar
    25    21    18   ar
    26    20    17   ar
    27    43    31    1
    28    43    46   ar
    29    31    34   ar
    30    30    18    1
    31    30    33   ar
    32    44    49    1
    33    44    47   ar
    34    18    16   ar
    35    17     4    1
    36    17    15   ar
    37     4     2   ar
    38     3     9    1
    39     3     1   ar
    40    16    15   ar
    41    16    19    1
    42    15    23    1
    43    33    34   ar
    44    33    35    1
    45    34    38    1
    46    46    47   ar
    47    46    48    1
    48    47    52    1
    49     2     1   ar
    50     2     5    1
    51     1    10    1
    52    39    38    1
    53    23    24    1
    54    38    40    1
    55    52    53    1
    56    52    54    1
    57    10    11    1
