@<TRIPOS>MOLECULE
mol_data/opt/b3lyp/geoms/mol2/4gh4gh4gh.out
 41 43 0 0 0
SMALL
GASTEIGER

@<TRIPOS>ATOM
      1 C          -0.0242    1.2396    1.4045 C.ar    1  LIG1        0.0054
      2 C           1.3704    1.2216    1.3065 C.ar    1  LIG1       -0.0390
      3 C          -0.7792    1.3538    0.2318 C.ar    1  LIG1       -0.0468
      4 C           2.0209    1.2923    0.0706 C.ar    1  LIG1        0.0049
      5 H           1.9689    1.1511    2.2090 H       1  LIG1        0.0635
      6 C          -0.1523    1.4331   -1.0057 C.ar    1  LIG1       -0.0394
      7 C           1.2491    1.4009   -1.1125 C.ar    1  LIG1        0.0325
      8 H          -0.7503    1.5225   -1.9092 H       1  LIG1        0.0636
      9 H          -1.8625    1.3780    0.2912 H       1  LIG1        0.0629
     10 S          -0.8360    1.1962    3.0109 S.3     1  LIG1       -0.1426
     11 H          -0.8204   -0.1424    3.1997 H       1  LIG1        0.1071
     12 N           1.8606    1.5267   -2.3541 N.pl3   1  LIG1       -0.3575
     13 H           2.8149    1.1969   -2.4037 H       1  LIG1        0.1423
     14 H           1.3014    1.2362   -3.1436 H       1  LIG1        0.1423
     15 C           4.2491    0.0860    0.2077 C.ar    1  LIG1        0.0132
     16 C           5.6447    0.1329    0.1421 C.ar    1  LIG1       -0.0385
     17 C           3.5150    1.2711    0.0037 C.ar    1  LIG1       -0.0012
     18 C           6.3370    1.3150   -0.1379 C.ar    1  LIG1        0.0049
     19 H           6.2265   -0.7709    0.2968 H       1  LIG1        0.0635
     20 C           4.2081    2.4544   -0.2702 C.ar    1  LIG1       -0.0316
     21 C           5.6076    2.5095   -0.3427 C.ar    1  LIG1        0.0330
     22 H           3.6349    3.3659   -0.4179 H       1  LIG1        0.0642
     23 S           3.3637   -1.4428    0.5315 S.3     1  LIG1       -0.1420
     24 H           4.4453   -2.2428    0.4496 H       1  LIG1        0.1071
     25 N           6.2548    3.7288   -0.5370 N.pl3   1  LIG1       -0.3575
     26 H           7.1859    3.6556   -0.9251 H       1  LIG1        0.1423
     27 H           5.7015    4.4229   -1.0209 H       1  LIG1        0.1423
     28 C           8.5460    1.3450   -1.3915 C.ar    1  LIG1        0.0126
     29 C           9.9457    1.3261   -1.3604 C.ar    1  LIG1       -0.0462
     30 C           7.8323    1.3025   -0.1764 C.ar    1  LIG1       -0.0012
     31 C          10.6373    1.2673   -0.1560 C.ar    1  LIG1       -0.0400
     32 H          10.5098    1.3498   -2.2884 H       1  LIG1        0.0629
     33 C           8.5426    1.2348    1.0271 C.ar    1  LIG1       -0.0322
     34 C           9.9445    1.2155    1.0640 C.ar    1  LIG1        0.0252
     35 H           7.9807    1.2048    1.9568 H       1  LIG1        0.0642
     36 H          11.7241    1.2513   -0.1618 H       1  LIG1        0.0636
     37 S           7.6268    1.3757   -2.9362 S.3     1  LIG1       -0.1420
     38 H           8.6978    1.5709   -3.7301 H       1  LIG1        0.1071
     39 N          10.6277    1.0912    2.2748 N.pl3   1  LIG1       -0.3579
     40 H          11.5750    1.4436    2.2714 H       1  LIG1        0.1423
     41 H          10.1159    1.4020    3.0891 H       1  LIG1        0.1423
@<TRIPOS>BOND
     1    38    37    1
     2    14    12    1
     3    37    28    1
     4    13    12    1
     5    12     7    1
     6    32    29    1
     7     8     6    1
     8    28    29   ar
     9    28    30   ar
    10    29    31   ar
    11     7     6   ar
    12     7     4   ar
    13    27    25    1
    14     6     3   ar
    15    26    25    1
    16    25    21    1
    17    22    20    1
    18    21    20   ar
    19    21    18   ar
    20    20    17   ar
    21    30    18    1
    22    30    33   ar
    23    36    31    1
    24    31    34   ar
    25    18    16   ar
    26    17     4    1
    27    17    15   ar
    28     4     2   ar
    29    16    15   ar
    30    16    19    1
    31    15    23    1
    32     3     9    1
    33     3     1   ar
    34    24    23    1
    35    33    34   ar
    36    33    35    1
    37    34    39    1
    38     2     1   ar
    39     2     5    1
    40     1    10    1
    41    40    39    1
    42    39    41    1
    43    10    11    1
