@<TRIPOS>MOLECULE
mol_data/opt/b3lyp/geoms/mol2/4gh4gh4gh4gh.out
 54 57 0 0 0
SMALL
GASTEIGER

@<TRIPOS>ATOM
      1 C          -0.1342    2.1936    1.0983 C.ar    1  LIG1        0.0054
      2 C           1.2592    2.1110    1.0213 C.ar    1  LIG1       -0.0390
      3 C          -0.9016    1.4771    0.1727 C.ar    1  LIG1       -0.0468
      4 C           1.8979    1.3158    0.0646 C.ar    1  LIG1        0.0049
      5 H           1.8678    2.6687    1.7260 H       1  LIG1        0.0635
      6 C          -0.2870    0.6902   -0.7931 C.ar    1  LIG1       -0.0394
      7 C           1.1140    0.5932   -0.8698 C.ar    1  LIG1        0.0325
      8 H          -0.8942    0.1462   -1.5123 H       1  LIG1        0.0636
      9 H          -1.9845    1.5381    0.2112 H       1  LIG1        0.0629
     10 S          -0.9247    3.2592    2.3153 S.3     1  LIG1       -0.1426
     11 H          -0.9861    2.3774    3.3384 H       1  LIG1        0.1071
     12 N           1.7096   -0.1389   -1.8874 N.pl3   1  LIG1       -0.3575
     13 H           2.6620   -0.4295   -1.7126 H       1  LIG1        0.1423
     14 H           1.1432   -0.8825   -2.2705 H       1  LIG1        0.1423
     15 C           4.1290    0.1713    0.4855 C.ar    1  LIG1        0.0132
     16 C           5.5244    0.2010    0.4116 C.ar    1  LIG1       -0.0385
     17 C           3.3922    1.2745    0.0097 C.ar    1  LIG1       -0.0012
     18 C           6.2182    1.2882   -0.1288 C.ar    1  LIG1        0.0049
     19 H           6.1036   -0.6344    0.7934 H       1  LIG1        0.0635
     20 C           4.0867    2.3666   -0.5180 C.ar    1  LIG1       -0.0316
     21 C           5.4860    2.4027   -0.6008 C.ar    1  LIG1        0.0330
     22 H           3.5124    3.2120   -0.8875 H       1  LIG1        0.0642
     23 S           3.2479   -1.2102    1.2244 S.3     1  LIG1       -0.1420
     24 H           4.3069   -2.0424    1.2632 H       1  LIG1        0.1071
     25 N           6.1298    3.5351   -1.1000 N.pl3   1  LIG1       -0.3575
     26 H           7.0647    3.3727   -1.4498 H       1  LIG1        0.1423
     27 H           5.5733    4.0893   -1.7364 H       1  LIG1        0.1423
     28 C           8.4219    0.3598   -0.9877 C.ar    1  LIG1        0.0132
     29 C           9.8195    0.3807   -0.9650 C.ar    1  LIG1       -0.0385
     30 C           7.7112    1.2687   -0.1785 C.ar    1  LIG1       -0.0012
     31 C          10.5404    1.2868   -0.1812 C.ar    1  LIG1        0.0049
     32 H          10.3798   -0.3223   -1.5738 H       1  LIG1        0.0635
     33 C           8.4329    2.1739    0.6082 C.ar    1  LIG1       -0.0316
     34 C           9.8338    2.2072    0.6273 C.ar    1  LIG1        0.0330
     35 H           7.8791    2.8733    1.2287 H       1  LIG1        0.0642
     36 S           7.5184   -0.7893   -2.0336 S.3     1  LIG1       -0.1420
     37 H           8.5900   -1.1895   -2.7458 H       1  LIG1        0.1071
     38 N          10.5038    3.0954    1.4700 N.pl3   1  LIG1       -0.3575
     39 H          11.4532    3.3070    1.1935 H       1  LIG1        0.1423
     40 H           9.9793    3.9257    1.7097 H       1  LIG1        0.1423
     41 C          12.7754    1.6259   -1.3367 C.ar    1  LIG1        0.0126
     42 C          14.1732    1.5534   -1.2909 C.ar    1  LIG1       -0.0462
     43 C          12.0350    1.2593   -0.1945 C.ar    1  LIG1       -0.0012
     44 C          14.8376    1.1420   -0.1413 C.ar    1  LIG1       -0.0400
     45 H          14.7588    1.8267   -2.1639 H       1  LIG1        0.0629
     46 C          12.7188    0.8507    0.9583 C.ar    1  LIG1       -0.0322
     47 C          14.1182    0.7828    1.0096 C.ar    1  LIG1        0.0252
     48 H          12.1366    0.5706    1.8321 H       1  LIG1        0.0642
     49 H          15.9234    1.0934   -0.1376 H       1  LIG1        0.0636
     50 S          11.9058    2.1892   -2.8055 S.3     1  LIG1       -0.1420
     51 H          13.0102    2.5797   -3.4720 H       1  LIG1        0.1071
     52 N          14.7718    0.3093    2.1487 N.pl3   1  LIG1       -0.3579
     53 H          15.7275    0.6200    2.2569 H       1  LIG1        0.1423
     54 H          14.2493    0.3947    3.0097 H       1  LIG1        0.1423
@<TRIPOS>BOND
     1    51    50    1
     2    50    41    1
     3    37    36    1
     4    14    12    1
     5    45    42    1
     6    36    28    1
     7    12    13    1
     8    12     7    1
     9    27    25    1
    10    32    29    1
    11     8     6    1
    12    26    25    1
    13    41    42   ar
    14    41    43   ar
    15    42    44   ar
    16    25    21    1
    17    28    29   ar
    18    28    30   ar
    19    29    31   ar
    20    22    20    1
    21     7     6   ar
    22     7     4   ar
    23     6     3   ar
    24    21    20   ar
    25    21    18   ar
    26    20    17   ar
    27    43    31    1
    28    43    46   ar
    29    31    34   ar
    30    30    18    1
    31    30    33   ar
    32    44    49    1
    33    44    47   ar
    34    18    16   ar
    35    17     4    1
    36    17    15   ar
    37     4     2   ar
    38     3     9    1
    39     3     1   ar
    40    16    15   ar
    41    16    19    1
    42    15    23    1
    43    33    34   ar
    44    33    35    1
    45    34    38    1
    46    46    47   ar
    47    46    48    1
    48    47    52    1
    49     2     1   ar
    50     2     5    1
    51     1    10    1
    52    39    38    1
    53    23    24    1
    54    38    40    1
    55    52    53    1
    56    52    54    1
    57    10    11    1
