@<TRIPOS>MOLECULE
mol_data/opt/b3lyp/geoms/mol2/4gh4gh-4gh-.out
 41 43 0 0 0
SMALL
GASTEIGER

@<TRIPOS>ATOM
      1 C          -0.0250    1.6741    1.2806 C.ar    1  LIG1        0.0054
      2 C           1.3696    1.6393    1.1896 C.ar    1  LIG1       -0.0390
      3 C          -0.7803    1.3495    0.1478 C.ar    1  LIG1       -0.0468
      4 C           2.0213    1.2671    0.0095 C.ar    1  LIG1        0.0049
      5 H           1.9687    1.8973    2.0570 H       1  LIG1        0.0635
      6 C          -0.1529    0.9877   -1.0375 C.ar    1  LIG1       -0.0394
      7 C           1.2495    0.9405   -1.1338 C.ar    1  LIG1        0.0325
      8 H          -0.7508    0.7474   -1.9131 H       1  LIG1        0.0636
      9 H          -1.8639    1.3814    0.1976 H       1  LIG1        0.0629
     10 S          -0.8326    2.1976    2.8023 S.3     1  LIG1       -0.1426
     11 H          -0.8934    0.9942    3.4159 H       1  LIG1        0.1071
     12 N           1.8572    0.6490   -2.3469 N.pl3   1  LIG1       -0.3575
     13 H           2.8144    0.3298   -2.2877 H       1  LIG1        0.1423
     14 H           1.3029    0.0957   -2.9849 H       1  LIG1        0.1423
     15 C           4.2614    0.0651    0.0014 C.ar    1  LIG1        0.0132
     16 C           5.6568    0.1305   -0.0481 C.ar    1  LIG1       -0.0385
     17 C           3.5164    1.2609   -0.0449 C.ar    1  LIG1       -0.0012
     18 C           6.3408    1.3452   -0.1520 C.ar    1  LIG1        0.0049
     19 H           6.2451   -0.7815   -0.0064 H       1  LIG1        0.0635
     20 C           4.2019    2.4756   -0.1310 C.ar    1  LIG1       -0.0316
     21 C           5.6017    2.5509   -0.1824 C.ar    1  LIG1        0.0330
     22 H           3.6214    3.3938   -0.1593 H       1  LIG1        0.0642
     23 S           3.3892   -1.4975    0.1711 S.3     1  LIG1       -0.1420
     24 H           4.4651   -2.2787   -0.0475 H       1  LIG1        0.1071
     25 N           6.2395    3.7895   -0.1950 N.pl3   1  LIG1       -0.3575
     26 H           7.1744    3.7796   -0.5804 H       1  LIG1        0.1423
     27 H           5.6843    4.5426   -0.5778 H       1  LIG1        0.1423
     28 C           8.5602    1.5632   -1.3689 C.ar    1  LIG1        0.0126
     29 C           9.9597    1.5480   -1.3275 C.ar    1  LIG1       -0.0462
     30 C           7.8367    1.3492   -0.1781 C.ar    1  LIG1       -0.0012
     31 C          10.6414    1.3273   -0.1363 C.ar    1  LIG1       -0.0400
     32 H          10.5315    1.7030   -2.2380 H       1  LIG1        0.0629
     33 C           8.5371    1.1215    1.0117 C.ar    1  LIG1       -0.0322
     34 C           9.9387    1.1052    1.0587 C.ar    1  LIG1        0.0252
     35 H           7.9674    0.9609    1.9231 H       1  LIG1        0.0642
     36 H          11.7283    1.3181   -0.1339 H       1  LIG1        0.0636
     37 S           7.6534    1.8034   -2.9020 S.3     1  LIG1       -0.1420
     38 H           8.7299    2.1120   -3.6510 H       1  LIG1        0.1071
     39 N          10.6127    0.8200    2.2474 N.pl3   1  LIG1       -0.3579
     40 H          11.5565    1.1780    2.3018 H       1  LIG1        0.1423
     41 H          10.0910    1.0124    3.0915 H       1  LIG1        0.1423
@<TRIPOS>BOND
     1    38    37    1
     2    14    12    1
     3    37    28    1
     4    12    13    1
     5    12     7    1
     6    32    29    1
     7     8     6    1
     8    28    29   ar
     9    28    30   ar
    10    29    31   ar
    11     7     6   ar
    12     7     4   ar
    13     6     3   ar
    14    26    25    1
    15    27    25    1
    16    25    21    1
    17    21    18   ar
    18    21    20   ar
    19    30    18    1
    20    30    33   ar
    21    22    20    1
    22    18    16   ar
    23    31    36    1
    24    31    34   ar
    25    20    17   ar
    26    16    19    1
    27    16    15   ar
    28    24    23    1
    29    17    15   ar
    30    17     4    1
    31    15    23    1
    32     4     2   ar
    33     3     9    1
    34     3     1   ar
    35    33    34   ar
    36    33    35    1
    37    34    39    1
    38     2     1   ar
    39     2     5    1
    40     1    10    1
    41    39    40    1
    42    39    41    1
    43    10    11    1
