@<TRIPOS>MOLECULE
mol_data/opt/b3lyp/geoms/mol2/4gh4gh-.out
 28 29 0 0 0
SMALL
GASTEIGER

@<TRIPOS>ATOM
      1 C           0.1376    0.5492    1.1963 C.ar    1  LIG1        0.0054
      2 C           1.5278    0.5657    1.0504 C.ar    1  LIG1       -0.0390
      3 C          -0.6425    1.2652    0.2810 C.ar    1  LIG1       -0.0468
      4 C           2.1506    1.2553    0.0049 C.ar    1  LIG1        0.0049
      5 H           2.1463    0.0232    1.7582 H       1  LIG1        0.0635
      6 C          -0.0435    1.9669   -0.7575 C.ar    1  LIG1       -0.0394
      7 C           1.3536    1.9797   -0.9166 C.ar    1  LIG1        0.0325
      8 H          -0.6597    2.5277   -1.4559 H       1  LIG1        0.0636
      9 H          -1.7227    1.2711    0.3850 H       1  LIG1        0.0629
     10 S          -0.6311   -0.3109    2.5786 S.3     1  LIG1       -0.1426
     11 H          -0.7196   -1.5389    2.0202 H       1  LIG1        0.1071
     12 N           1.9354    2.7498   -1.9160 N.pl3   1  LIG1       -0.3575
     13 H           2.8689    2.4710   -2.1859 H       1  LIG1        0.1423
     14 H           1.3436    2.9300   -2.7150 H       1  LIG1        0.1423
     15 C           4.3300    0.4906   -1.0568 C.ar    1  LIG1        0.0126
     16 C           5.7290    0.5363   -1.0937 C.ar    1  LIG1       -0.0462
     17 C           3.6436    1.2602   -0.0951 C.ar    1  LIG1       -0.0012
     18 C           6.4467    1.3244   -0.2014 C.ar    1  LIG1       -0.0400
     19 H           6.2725   -0.0577   -1.8229 H       1  LIG1        0.0629
     20 C           4.3809    2.0421    0.8011 C.ar    1  LIG1       -0.0322
     21 C           5.7822    2.0905    0.7693 C.ar    1  LIG1        0.0252
     22 H           3.8403    2.6311    1.5371 H       1  LIG1        0.0642
     23 H           7.5325    1.3377   -0.2506 H       1  LIG1        0.0636
     24 S           3.3806   -0.5561   -2.1678 S.3     1  LIG1       -0.1420
     25 H           4.4246   -0.9200   -2.9382 H       1  LIG1        0.1071
     26 N           6.4953    2.8344    1.7108 N.pl3   1  LIG1       -0.3579
     27 H           7.4202    3.1213    1.4210 H       1  LIG1        0.1423
     28 H           5.9821    3.5959    2.1332 H       1  LIG1        0.1423
@<TRIPOS>BOND
     1    25    24    1
     2    14    12    1
     3    13    12    1
     4    24    15    1
     5    12     7    1
     6    19    16    1
     7     8     6    1
     8    16    15   ar
     9    16    18   ar
    10    15    17   ar
    11     7     6   ar
    12     7     4   ar
    13     6     3   ar
    14    23    18    1
    15    18    21   ar
    16    17     4    1
    17    17    20   ar
    18     4     2   ar
    19     3     9    1
    20     3     1   ar
    21    21    20   ar
    22    21    26    1
    23    20    22    1
    24     2     1   ar
    25     2     5    1
    26     1    10    1
    27    27    26    1
    28    26    28    1
    29    11    10    1
