@<TRIPOS>MOLECULE
mol_data/opt/b3lyp/geoms/mol2/4gh4gh4gh-.out
 41 43 0 0 0
SMALL
GASTEIGER

@<TRIPOS>ATOM
      1 C          -0.0080    1.4625    1.3966 C.ar    1  LIG1        0.0054
      2 C           1.3845    1.4096    1.2856 C.ar    1  LIG1       -0.0390
      3 C          -0.7774    1.4036    0.2288 C.ar    1  LIG1       -0.0468
      4 C           2.0200    1.2758    0.0471 C.ar    1  LIG1        0.0049
      5 H           1.9948    1.4637    2.1815 H       1  LIG1        0.0635
      6 C          -0.1659    1.2823   -1.0125 C.ar    1  LIG1       -0.0394
      7 C           1.2341    1.2183   -1.1314 C.ar    1  LIG1        0.0325
      8 H          -0.7743    1.2480   -1.9128 H       1  LIG1        0.0636
      9 H          -1.8594    1.4539    0.2955 H       1  LIG1        0.0629
     10 S          -0.7934    1.6786    3.0022 S.3     1  LIG1       -0.1426
     11 H          -0.8798    0.3764    3.3554 H       1  LIG1        0.1071
     12 N           1.8273    1.1739   -2.3855 N.pl3   1  LIG1       -0.3575
     13 H           2.7740    0.8199   -2.4059 H       1  LIG1        0.1423
     14 H           1.2533    0.7827   -3.1190 H       1  LIG1        0.1423
     15 C           4.2282    0.0505   -0.2520 C.ar    1  LIG1        0.0132
     16 C           5.6245    0.0910   -0.3001 C.ar    1  LIG1       -0.0385
     17 C           3.5140    1.2438   -0.0223 C.ar    1  LIG1       -0.0012
     18 C           6.3402    1.2808   -0.1342 C.ar    1  LIG1        0.0049
     19 H           6.1872   -0.8238   -0.4596 H       1  LIG1        0.0635
     20 C           4.2306    2.4302    0.1569 C.ar    1  LIG1       -0.0316
     21 C           5.6309    2.4802    0.1070 C.ar    1  LIG1        0.0330
     22 H           3.6734    3.3470    0.3301 H       1  LIG1        0.0642
     23 S           3.3177   -1.4897   -0.4193 S.3     1  LIG1       -0.1420
     24 H           4.3695   -2.2252   -0.8293 H       1  LIG1        0.1071
     25 N           6.2990    3.6839    0.3349 N.pl3   1  LIG1       -0.3575
     26 H           7.2338    3.7278   -0.0484 H       1  LIG1        0.1423
     27 H           5.7584    4.5114    0.1223 H       1  LIG1        0.1423
     28 C           8.5290    0.9955   -1.3874 C.ar    1  LIG1        0.0126
     29 C           9.9291    0.9715   -1.3682 C.ar    1  LIG1       -0.0462
     30 C           7.8340    1.2650   -0.1910 C.ar    1  LIG1       -0.0012
     31 C          10.6391    1.2213   -0.1996 C.ar    1  LIG1       -0.0400
     32 H          10.4800    0.7603   -2.2802 H       1  LIG1        0.0629
     33 C           8.5634    1.5187    0.9781 C.ar    1  LIG1       -0.0322
     34 C           9.9651    1.5018    0.9997 C.ar    1  LIG1        0.0252
     35 H           8.0160    1.7253    1.8938 H       1  LIG1        0.0642
     36 H          11.7256    1.1934   -0.2155 H       1  LIG1        0.0636
     37 S           7.5992    0.7112   -2.8991 S.3     1  LIG1       -0.1420
     38 H           8.6710    0.7135   -3.7162 H       1  LIG1        0.1071
     39 N          10.6661    1.6931    2.1919 N.pl3   1  LIG1       -0.3579
     40 H          11.6138    2.0278    2.0848 H       1  LIG1        0.1423
     41 H          10.1659    2.2046    2.9060 H       1  LIG1        0.1423
@<TRIPOS>BOND
     1    38    37    1
     2    14    12    1
     3    37    28    1
     4    13    12    1
     5    12     7    1
     6    32    29    1
     7     8     6    1
     8    28    29   ar
     9    28    30   ar
    10    29    31   ar
    11     7     6   ar
    12     7     4   ar
    13     6     3   ar
    14    24    23    1
    15    19    16    1
    16    23    15    1
    17    16    15   ar
    18    16    18   ar
    19    15    17   ar
    20    36    31    1
    21    31    34   ar
    22    30    18    1
    23    30    33   ar
    24    18    21   ar
    25    26    25    1
    26    17     4    1
    27    17    20   ar
    28     4     2   ar
    29    21    20   ar
    30    21    25    1
    31    27    25    1
    32    20    22    1
    33     3     9    1
    34     3     1   ar
    35    33    34   ar
    36    33    35    1
    37    34    39    1
    38     2     1   ar
    39     2     5    1
    40     1    10    1
    41    40    39    1
    42    39    41    1
    43    10    11    1
