@<TRIPOS>MOLECULE
mol_data/opt/b3lyp/geoms/mol2/4gh4gh-4gh-4gh-.out
 54 57 0 0 0
SMALL
GASTEIGER

@<TRIPOS>ATOM
      1 C          -0.1383    2.1594    1.0968 C.ar    1  LIG1        0.0054
      2 C           1.2556    2.0856    1.0178 C.ar    1  LIG1       -0.0390
      3 C          -0.9025    1.4216    0.1854 C.ar    1  LIG1       -0.0468
      4 C           1.8979    1.2789    0.0732 C.ar    1  LIG1        0.0049
      5 H           1.8617    2.6596    1.7114 H       1  LIG1        0.0635
      6 C          -0.2844    0.6229   -0.7683 C.ar    1  LIG1       -0.0394
      7 C           1.1171    0.5349   -0.8469 C.ar    1  LIG1        0.0325
      8 H          -0.8893    0.0623   -1.4768 H       1  LIG1        0.0636
      9 H          -1.9857    1.4754    0.2255 H       1  LIG1        0.0629
     10 S          -0.9338    3.2398    2.2973 S.3     1  LIG1       -0.1426
     11 H          -0.9859    2.3754    3.3357 H       1  LIG1        0.1071
     12 N           1.7156   -0.2100   -1.8532 N.pl3   1  LIG1       -0.3575
     13 H           2.6707   -0.4905   -1.6763 H       1  LIG1        0.1423
     14 H           1.1539   -0.9640   -2.2227 H       1  LIG1        0.1423
     15 C           4.1384    0.1582    0.5079 C.ar    1  LIG1        0.0132
     16 C           5.5334    0.1969    0.4300 C.ar    1  LIG1       -0.0385
     17 C           3.3923    1.2476    0.0153 C.ar    1  LIG1       -0.0012
     18 C           6.2178    1.2799   -0.1304 C.ar    1  LIG1        0.0049
     19 H           6.1196   -0.6276    0.8245 H       1  LIG1        0.0635
     20 C           4.0774    2.3357   -0.5325 C.ar    1  LIG1       -0.0316
     21 C           5.4762    2.3808   -0.6193 C.ar    1  LIG1        0.0330
     22 H           3.4961    3.1706   -0.9148 H       1  LIG1        0.0642
     23 S           3.2695   -1.2170    1.2722 S.3     1  LIG1       -0.1420
     24 H           4.3346   -2.0407    1.3223 H       1  LIG1        0.1071
     25 N           6.1105    3.5095   -1.1391 N.pl3   1  LIG1       -0.3575
     26 H           7.0456    3.3478   -1.4887 H       1  LIG1        0.1423
     27 H           5.5484    4.0483   -1.7837 H       1  LIG1        0.1423
     28 C           8.4263    0.3533   -0.9789 C.ar    1  LIG1        0.0132
     29 C           9.8238    0.3849   -0.9599 C.ar    1  LIG1       -0.0385
     30 C           7.7107    1.2705   -0.1834 C.ar    1  LIG1       -0.0012
     31 C          10.5398    1.3093   -0.1932 C.ar    1  LIG1        0.0049
     32 H          10.3878   -0.3242   -1.5580 H       1  LIG1        0.0635
     33 C           8.4276    2.1943    0.5861 C.ar    1  LIG1       -0.0316
     34 C           9.8283    2.2381    0.6012 C.ar    1  LIG1        0.0330
     35 H           7.8700    2.8999    1.1960 H       1  LIG1        0.0642
     36 S           7.5289   -0.8199   -2.0031 S.3     1  LIG1       -0.1420
     37 H           8.6018   -1.2240   -2.7112 H       1  LIG1        0.1071
     38 N          10.4937    3.1453    1.4272 N.pl3   1  LIG1       -0.3575
     39 H          11.4407    3.3595    1.1447 H       1  LIG1        0.1423
     40 H           9.9634    3.9755    1.6543 H       1  LIG1        0.1423
     41 C          12.7698    1.6451   -1.3594 C.ar    1  LIG1        0.0126
     42 C          14.1682    1.5835   -1.3155 C.ar    1  LIG1       -0.0462
     43 C          12.0345    1.2926   -0.2095 C.ar    1  LIG1       -0.0012
     44 C          14.8380    1.1964   -0.1606 C.ar    1  LIG1       -0.0400
     45 H          14.7499    1.8461   -2.1944 H       1  LIG1        0.0629
     46 C          12.7237    0.9085    0.9485 C.ar    1  LIG1       -0.0322
     47 C          14.1236    0.8517    0.9978 C.ar    1  LIG1        0.0252
     48 H          12.1454    0.6391    1.8282 H       1  LIG1        0.0642
     49 H          15.9241    1.1558   -0.1586 H       1  LIG1        0.0636
     50 S          11.8930    2.1771   -2.8356 S.3     1  LIG1       -0.1420
     51 H          12.9931    2.5650   -3.5107 H       1  LIG1        0.1071
     52 N          14.7831    0.4022    2.1433 N.pl3   1  LIG1       -0.3579
     53 H          15.7367    0.7218    2.2441 H       1  LIG1        0.1423
     54 H          14.2618    0.4982    3.0039 H       1  LIG1        0.1423
@<TRIPOS>BOND
     1    51    50    1
     2    50    41    1
     3    37    36    1
     4    14    12    1
     5    45    42    1
     6    36    28    1
     7    12    13    1
     8    12     7    1
     9    27    25    1
    10    32    29    1
    11    26    25    1
    12     8     6    1
    13    41    42   ar
    14    41    43   ar
    15    42    44   ar
    16    25    21    1
    17    28    29   ar
    18    28    30   ar
    19    29    31   ar
    20    22    20    1
    21     7     6   ar
    22     7     4   ar
    23     6     3   ar
    24    21    20   ar
    25    21    18   ar
    26    20    17   ar
    27    43    31    1
    28    43    46   ar
    29    31    34   ar
    30    30    18    1
    31    30    33   ar
    32    44    49    1
    33    44    47   ar
    34    18    16   ar
    35    17     4    1
    36    17    15   ar
    37     4     2   ar
    38     3     9    1
    39     3     1   ar
    40    16    15   ar
    41    16    19    1
    42    15    23    1
    43    33    34   ar
    44    33    35    1
    45    34    38    1
    46    46    47   ar
    47    46    48    1
    48    47    52    1
    49     2     1   ar
    50     2     5    1
    51     1    10    1
    52    39    38    1
    53    23    24    1
    54    38    40    1
    55    52    53    1
    56    52    54    1
    57    10    11    1
