@<TRIPOS>MOLECULE
mol_data/opt/b3lyp/geoms/mol2/4gh4gh-4gh4gh-.out
 54 57 0 0 0
SMALL
GASTEIGER

@<TRIPOS>ATOM
      1 C          -0.1376    2.2095    1.0634 C.ar    1  LIG1        0.0054
      2 C           1.2562    2.1285    0.9897 C.ar    1  LIG1       -0.0390
      3 C          -0.9024    1.4603    0.1620 C.ar    1  LIG1       -0.0468
      4 C           1.8976    1.3039    0.0601 C.ar    1  LIG1        0.0049
      5 H           1.8627    2.7111    1.6756 H       1  LIG1        0.0635
      6 C          -0.2852    0.6436   -0.7769 C.ar    1  LIG1       -0.0394
      7 C           1.1161    0.5483   -0.8500 C.ar    1  LIG1        0.0325
      8 H          -0.8905    0.0741   -1.4779 H       1  LIG1        0.0636
      9 H          -1.9855    1.5193    0.1981 H       1  LIG1        0.0629
     10 S          -0.9317    3.3126    2.2441 S.3     1  LIG1       -0.1426
     11 H          -0.9904    2.4653    3.2961 H       1  LIG1        0.1071
     12 N           1.7144   -0.2153   -1.8425 N.pl3   1  LIG1       -0.3575
     13 H           2.6674   -0.4977   -1.6578 H       1  LIG1        0.1423
     14 H           1.1501   -0.9724   -2.2016 H       1  LIG1        0.1423
     15 C           4.1320    0.1807    0.5192 C.ar    1  LIG1        0.0132
     16 C           5.5273    0.2121    0.4446 C.ar    1  LIG1       -0.0385
     17 C           3.3920    1.2653    0.0070 C.ar    1  LIG1       -0.0012
     18 C           6.2180    1.2830   -0.1313 C.ar    1  LIG1        0.0049
     19 H           6.1089   -0.6084    0.8540 H       1  LIG1        0.0635
     20 C           4.0833    2.3414   -0.5564 C.ar    1  LIG1       -0.0316
     21 C           5.4825    2.3790   -0.6400 C.ar    1  LIG1        0.0330
     22 H           3.5067    3.1724   -0.9537 H       1  LIG1        0.0642
     23 S           3.2549   -1.1783    1.3032 S.3     1  LIG1       -0.1420
     24 H           4.3165   -2.0055    1.3699 H       1  LIG1        0.1071
     25 N           6.1231    3.4963   -1.1762 N.pl3   1  LIG1       -0.3575
     26 H           7.0587    3.3251   -1.5202 H       1  LIG1        0.1423
     27 H           5.5652    4.0270   -1.8313 H       1  LIG1        0.1423
     28 C           8.4247    0.3333   -0.9584 C.ar    1  LIG1        0.0132
     29 C           9.8223    0.3592   -0.9361 C.ar    1  LIG1       -0.0385
     30 C           7.7110    1.2663   -0.1799 C.ar    1  LIG1       -0.0012
     31 C          10.5402    1.2928   -0.1824 C.ar    1  LIG1        0.0049
     32 H          10.3849   -0.3618   -1.5211 H       1  LIG1        0.0635
     33 C           8.4298    2.1993    0.5767 C.ar    1  LIG1       -0.0316
     34 C           9.8306    2.2373    0.5950 C.ar    1  LIG1        0.0330
     35 H           7.8736    2.9170    1.1736 H       1  LIG1        0.0642
     36 S           7.5251   -0.8523   -1.9660 S.3     1  LIG1       -0.1420
     37 H           8.5982   -1.2726   -2.6645 H       1  LIG1        0.1071
     38 N          10.4976    3.1548    1.4082 N.pl3   1  LIG1       -0.3575
     39 H          11.4464    3.3601    1.1250 H       1  LIG1        0.1423
     40 H           9.9705    3.9910    1.6202 H       1  LIG1        0.1423
     41 C          12.7747    1.6009   -1.3475 C.ar    1  LIG1        0.0126
     42 C          14.1727    1.5343   -1.2988 C.ar    1  LIG1       -0.0462
     43 C          12.0349    1.2695   -0.1942 C.ar    1  LIG1       -0.0012
     44 C          14.8378    1.1626   -0.1362 C.ar    1  LIG1       -0.0400
     45 H          14.7579    1.7808   -2.1800 H       1  LIG1        0.0629
     46 C          12.7194    0.9007    0.9715 C.ar    1  LIG1       -0.0322
     47 C          14.1189    0.8389    1.0255 C.ar    1  LIG1        0.0252
     48 H          12.1376    0.6474    1.8537 H       1  LIG1        0.0642
     49 H          15.9238    1.1176   -0.1305 H       1  LIG1        0.0636
     50 S          11.9040    2.1135   -2.8342 S.3     1  LIG1       -0.1420
     51 H          13.0077    2.4840   -3.5132 H       1  LIG1        0.1071
     52 N          14.7734    0.4047    2.1797 N.pl3   1  LIG1       -0.3579
     53 H          15.7283    0.7212    2.2778 H       1  LIG1        0.1423
     54 H          14.2505    0.5168    3.0373 H       1  LIG1        0.1423
@<TRIPOS>BOND
     1    51    50    1
     2    50    41    1
     3    37    36    1
     4    14    12    1
     5    45    42    1
     6    36    28    1
     7    12    13    1
     8    12     7    1
     9    27    25    1
    10    32    29    1
    11    26    25    1
    12     8     6    1
    13    41    42   ar
    14    41    43   ar
    15    42    44   ar
    16    25    21    1
    17    28    29   ar
    18    28    30   ar
    19    22    20    1
    20    29    31   ar
    21     7     6   ar
    22     7     4   ar
    23     6     3   ar
    24    21    20   ar
    25    21    18   ar
    26    20    17   ar
    27    43    31    1
    28    43    46   ar
    29    31    34   ar
    30    30    18    1
    31    30    33   ar
    32    44    49    1
    33    44    47   ar
    34    18    16   ar
    35    17     4    1
    36    17    15   ar
    37     4     2   ar
    38     3     9    1
    39     3     1   ar
    40    16    15   ar
    41    16    19    1
    42    15    23    1
    43    33    34   ar
    44    33    35    1
    45    34    38    1
    46    46    47   ar
    47    46    48    1
    48     2     1   ar
    49     2     5    1
    50    47    52    1
    51     1    10    1
    52    39    38    1
    53    23    24    1
    54    38    40    1
    55    52    53    1
    56    52    54    1
    57    10    11    1
