@<TRIPOS>MOLECULE
mol_data/opt/b3lyp/geoms/mol2/4gh4gh-4gh.out
 41 43 0 0 0
SMALL
GASTEIGER

@<TRIPOS>ATOM
      1 C          -0.0250    1.4717    1.3339 C.ar    1  LIG1        0.0054
      2 C           1.3688    1.4203    1.2400 C.ar    1  LIG1       -0.0390
      3 C          -0.7805    1.3943    0.1582 C.ar    1  LIG1       -0.0468
      4 C           2.0191    1.2700    0.0110 C.ar    1  LIG1        0.0049
      5 H           1.9685    1.4887    2.1420 H       1  LIG1        0.0635
      6 C          -0.1543    1.2563   -1.0740 C.ar    1  LIG1       -0.0394
      7 C           1.2471    1.1937   -1.1756 C.ar    1  LIG1        0.0325
      8 H          -0.7521    1.2076   -1.9808 H       1  LIG1        0.0636
      9 H          -1.8634    1.4431    0.2115 H       1  LIG1        0.0629
     10 S          -0.8295    1.7094    2.9269 S.3     1  LIG1       -0.1426
     11 H          -0.9186    0.4121    3.2973 H       1  LIG1        0.1071
     12 N           1.8551    1.1325   -2.4219 N.pl3   1  LIG1       -0.3575
     13 H           2.8025    0.7797   -2.4261 H       1  LIG1        0.1423
     14 H           1.2904    0.7298   -3.1564 H       1  LIG1        0.1423
     15 C           4.2334    0.0458   -0.2445 C.ar    1  LIG1        0.0132
     16 C           5.6300    0.0890   -0.2765 C.ar    1  LIG1       -0.0385
     17 C           3.5137    1.2405   -0.0405 C.ar    1  LIG1       -0.0012
     18 C           6.3410    1.2829   -0.1192 C.ar    1  LIG1        0.0049
     19 H           6.1968   -0.8266   -0.4159 H       1  LIG1        0.0635
     20 C           4.2255    2.4311    0.1303 C.ar    1  LIG1       -0.0316
     21 C           5.6262    2.4838    0.0963 C.ar    1  LIG1        0.0330
     22 H           3.6642    3.3489    0.2838 H       1  LIG1        0.0642
     23 S           3.3285   -1.4990   -0.4007 S.3     1  LIG1       -0.1420
     24 H           4.3858   -2.2366   -0.7921 H       1  LIG1        0.1071
     25 N           6.2886    3.6924    0.3147 N.pl3   1  LIG1       -0.3575
     26 H           7.2282    3.7327   -0.0570 H       1  LIG1        0.1423
     27 H           5.7492    4.5153    0.0829 H       1  LIG1        0.1423
     28 C           8.5453    0.9842   -1.3418 C.ar    1  LIG1        0.0126
     29 C           9.9451    0.9640   -1.3055 C.ar    1  LIG1       -0.0462
     30 C           7.8353    1.2699   -0.1579 C.ar    1  LIG1       -0.0012
     31 C          10.6405    1.2328   -0.1323 C.ar    1  LIG1       -0.0400
     32 H          10.5074    0.7406   -2.2075 H       1  LIG1        0.0629
     33 C           8.5501    1.5428    1.0159 C.ar    1  LIG1       -0.0322
     34 C           9.9515    1.5296    1.0545 C.ar    1  LIG1        0.0252
     35 H           7.9912    1.7616    1.9217 H       1  LIG1        0.0642
     36 H          11.7271    1.2074   -0.1348 H       1  LIG1        0.0636
     37 S           7.6342    0.6755   -2.8601 S.3     1  LIG1       -0.1420
     38 H           8.7158    0.6664   -3.6642 H       1  LIG1        0.1071
     39 N          10.6376    1.7404    2.2520 N.pl3   1  LIG1       -0.3579
     40 H          11.5860    2.0752    2.1514 H       1  LIG1        0.1423
     41 H          10.1278    2.2615    2.9522 H       1  LIG1        0.1423
@<TRIPOS>BOND
     1    38    37    1
     2    14    12    1
     3    37    28    1
     4    13    12    1
     5    12     7    1
     6    32    29    1
     7     8     6    1
     8    28    29   ar
     9    28    30   ar
    10    29    31   ar
    11     7     6   ar
    12     7     4   ar
    13     6     3   ar
    14    24    23    1
    15    19    16    1
    16    23    15    1
    17    16    15   ar
    18    16    18   ar
    19    15    17   ar
    20    30    18    1
    21    30    33   ar
    22    36    31    1
    23    31    34   ar
    24    18    21   ar
    25    26    25    1
    26    17     4    1
    27    17    20   ar
    28     4     2   ar
    29    27    25    1
    30    21    20   ar
    31    21    25    1
    32    20    22    1
    33     3     9    1
    34     3     1   ar
    35    33    34   ar
    36    33    35    1
    37    34    39    1
    38     2     1   ar
    39     2     5    1
    40     1    10    1
    41    40    39    1
    42    39    41    1
    43    10    11    1
