@<TRIPOS>MOLECULE
mol_data/opt/b3lyp/geoms/mol2/4gh4gh-4gh4gh.out
 54 57 0 0 0
SMALL
GASTEIGER

@<TRIPOS>ATOM
      1 C          -0.1395    2.1593    1.0910 C.ar    1  LIG1        0.0054
      2 C           1.2545    2.0867    1.0131 C.ar    1  LIG1       -0.0390
      3 C          -0.9024    1.4147    0.1841 C.ar    1  LIG1       -0.0468
      4 C           1.8981    1.2747    0.0739 C.ar    1  LIG1        0.0049
      5 H           1.8596    2.6659    1.7031 H       1  LIG1        0.0635
      6 C          -0.2831    0.6106   -0.7642 C.ar    1  LIG1       -0.0394
      7 C           1.1186    0.5238   -0.8417 C.ar    1  LIG1        0.0325
      8 H          -0.8870    0.0447   -1.4692 H       1  LIG1        0.0636
      9 H          -1.9857    1.4674    0.2234 H       1  LIG1        0.0629
     10 S          -0.9367    3.2465    2.2842 S.3     1  LIG1       -0.1426
     11 H          -0.9879    2.3888    3.3282 H       1  LIG1        0.1071
     12 N           1.7184   -0.2268   -1.8430 N.pl3   1  LIG1       -0.3575
     13 H           2.6737   -0.5052   -1.6638 H       1  LIG1        0.1423
     14 H           1.1577   -0.9837   -2.2080 H       1  LIG1        0.1423
     15 C           4.1397    0.1593    0.5166 C.ar    1  LIG1        0.0132
     16 C           5.5347    0.1990    0.4389 C.ar    1  LIG1       -0.0385
     17 C           3.3926    1.2448    0.0168 C.ar    1  LIG1       -0.0012
     18 C           6.2181    1.2792   -0.1283 C.ar    1  LIG1        0.0049
     19 H           6.1217   -0.6223    0.8388 H       1  LIG1        0.0635
     20 C           4.0767    2.3300   -0.5378 C.ar    1  LIG1       -0.0316
     21 C           5.4754    2.3761   -0.6244 C.ar    1  LIG1        0.0330
     22 H           3.4945    3.1617   -0.9257 H       1  LIG1        0.0642
     23 S           3.2719   -1.2119    1.2895 S.3     1  LIG1       -0.1420
     24 H           4.3382   -2.0338    1.3464 H       1  LIG1        0.1071
     25 N           6.1087    3.5021   -1.1511 N.pl3   1  LIG1       -0.3575
     26 H           7.0439    3.3391   -1.4999 H       1  LIG1        0.1423
     27 H           5.5460    4.0366   -1.7989 H       1  LIG1        0.1423
     28 C           8.4277    0.3494   -0.9701 C.ar    1  LIG1        0.0132
     29 C           9.8252    0.3826   -0.9510 C.ar    1  LIG1       -0.0385
     30 C           7.7111    1.2710   -0.1808 C.ar    1  LIG1       -0.0012
     31 C          10.5400    1.3127   -0.1901 C.ar    1  LIG1        0.0049
     32 H          10.3902   -0.3298   -1.5443 H       1  LIG1        0.0635
     33 C           8.4267    2.2005    0.5829 C.ar    1  LIG1       -0.0316
     34 C           9.8274    2.2459    0.5981 C.ar    1  LIG1        0.0330
     35 H           7.8682    2.9095    1.1881 H       1  LIG1        0.0642
     36 S           7.5320   -0.8312   -1.9870 S.3     1  LIG1       -0.1420
     37 H           8.6054   -1.2384   -2.6926 H       1  LIG1        0.1071
     38 N          10.4915    3.1592    1.4183 N.pl3   1  LIG1       -0.3575
     39 H          11.4386    3.3720    1.1350 H       1  LIG1        0.1423
     40 H           9.9606    3.9907    1.6391 H       1  LIG1        0.1423
     41 C          12.7700    1.6435   -1.3577 C.ar    1  LIG1        0.0126
     42 C          14.1685    1.5838   -1.3130 C.ar    1  LIG1       -0.0462
     43 C          12.0347    1.2974   -0.2058 C.ar    1  LIG1       -0.0012
     44 C          14.8383    1.2047   -0.1555 C.ar    1  LIG1       -0.0400
     45 H          14.7501    1.8417   -2.1932 H       1  LIG1        0.0629
     46 C          12.7240    0.9213    0.9548 C.ar    1  LIG1       -0.0322
     47 C          14.1240    0.8663    1.0049 C.ar    1  LIG1        0.0252
     48 H          12.1458    0.6567    1.8360 H       1  LIG1        0.0642
     49 H          15.9246    1.1654   -0.1529 H       1  LIG1        0.0636
     50 S          11.8930    2.1654   -2.8374 S.3     1  LIG1       -0.1420
     51 H          12.9930    2.5477   -3.5157 H       1  LIG1        0.1071
     52 N          14.7836    0.4248    2.1533 N.pl3   1  LIG1       -0.3579
     53 H          15.7369    0.7455    2.2522 H       1  LIG1        0.1423
     54 H          14.2621    0.5259    3.0132 H       1  LIG1        0.1423
@<TRIPOS>BOND
     1    51    50    1
     2    50    41    1
     3    37    36    1
     4    14    12    1
     5    45    42    1
     6    36    28    1
     7    12    13    1
     8    12     7    1
     9    27    25    1
    10    32    29    1
    11    26    25    1
    12     8     6    1
    13    41    42   ar
    14    41    43   ar
    15    42    44   ar
    16    25    21    1
    17    28    29   ar
    18    28    30   ar
    19    29    31   ar
    20    22    20    1
    21     7     6   ar
    22     7     4   ar
    23     6     3   ar
    24    21    20   ar
    25    21    18   ar
    26    20    17   ar
    27    43    31    1
    28    43    46   ar
    29    31    34   ar
    30    30    18    1
    31    30    33   ar
    32    44    49    1
    33    44    47   ar
    34    18    16   ar
    35    17     4    1
    36    17    15   ar
    37     4     2   ar
    38     3     9    1
    39     3     1   ar
    40    16    15   ar
    41    16    19    1
    42    15    23    1
    43    33    34   ar
    44    33    35    1
    45    34    38    1
    46    46    47   ar
    47    46    48    1
    48    47    52    1
    49     2     1   ar
    50     2     5    1
    51     1    10    1
    52    39    38    1
    53    23    24    1
    54    38    40    1
    55    52    53    1
    56    52    54    1
    57    10    11    1
