@<TRIPOS>MOLECULE
mol_data/opt/b3lyp/geoms/mol2/4gh4gh4gh-4gh-.out
 54 57 0 0 0
SMALL
GASTEIGER

@<TRIPOS>ATOM
      1 C          -0.1329    2.2154    1.0902 C.ar    1  LIG1        0.0054
      2 C           1.2604    2.1295    1.0140 C.ar    1  LIG1       -0.0390
      3 C          -0.9015    1.4945    0.1691 C.ar    1  LIG1       -0.0468
      4 C           1.8977    1.3271    0.0625 C.ar    1  LIG1        0.0049
      5 H           1.8699    2.6905    1.7153 H       1  LIG1        0.0635
      6 C          -0.2883    0.7002   -0.7915 C.ar    1  LIG1       -0.0394
      7 C           1.1125    0.6001   -0.8675 C.ar    1  LIG1        0.0325
      8 H          -0.8965    0.1528   -1.5074 H       1  LIG1        0.0636
      9 H          -1.9843    1.5579    0.2069 H       1  LIG1        0.0629
     10 S          -0.9215    3.2903    2.3001 S.3     1  LIG1       -0.1426
     11 H          -0.9841    2.4156    3.3292 H       1  LIG1        0.1071
     12 N           1.7069   -0.1396   -1.8802 N.pl3   1  LIG1       -0.3575
     13 H           2.6587   -0.4310   -1.7037 H       1  LIG1        0.1423
     14 H           1.1390   -0.8840   -2.2594 H       1  LIG1        0.1423
     15 C           4.1265    0.1811    0.4912 C.ar    1  LIG1        0.0132
     16 C           5.5220    0.2073    0.4169 C.ar    1  LIG1       -0.0385
     17 C           3.3920    1.2825    0.0080 C.ar    1  LIG1       -0.0012
     18 C           6.2179    1.2896   -0.1307 C.ar    1  LIG1        0.0049
     19 H           6.0995   -0.6267    0.8042 H       1  LIG1        0.0635
     20 C           4.0886    2.3696   -0.5270 C.ar    1  LIG1       -0.0316
     21 C           5.4879    2.4024   -0.6100 C.ar    1  LIG1        0.0330
     22 H           3.5160    3.2137   -0.9022 H       1  LIG1        0.0642
     23 S           3.2424   -1.1937    1.2392 S.3     1  LIG1       -0.1420
     24 H           4.3004   -2.0268    1.2866 H       1  LIG1        0.1071
     25 N           6.1341    3.5303   -1.1165 N.pl3   1  LIG1       -0.3575
     26 H           7.0684    3.3633   -1.4662 H       1  LIG1        0.1423
     27 H           5.5785    4.0813   -1.7566 H       1  LIG1        0.1423
     28 C           8.4195    0.3509   -0.9836 C.ar    1  LIG1        0.0132
     29 C           9.8171    0.3687   -0.9609 C.ar    1  LIG1       -0.0385
     30 C           7.7108    1.2666   -0.1803 C.ar    1  LIG1       -0.0012
     31 C          10.5401    1.2783   -0.1831 C.ar    1  LIG1        0.0049
     32 H          10.3758   -0.3396   -1.5650 H       1  LIG1        0.0635
     33 C           8.4345    2.1753    0.6005 C.ar    1  LIG1       -0.0316
     34 C           9.8355    2.2056    0.6193 C.ar    1  LIG1        0.0330
     35 H           7.8823    2.8799    1.2165 H       1  LIG1        0.0642
     36 S           7.5135   -0.8031   -2.0220 S.3     1  LIG1       -0.1420
     37 H           8.5832   -1.2060   -2.7356 H       1  LIG1        0.1071
     38 N          10.5075    3.0979    1.4563 N.pl3   1  LIG1       -0.3575
     39 H          11.4574    3.3054    1.1783 H       1  LIG1        0.1423
     40 H           9.9849    3.9312    1.6897 H       1  LIG1        0.1423
     41 C          12.7758    1.6048   -1.3408 C.ar    1  LIG1        0.0126
     42 C          14.1734    1.5296   -1.2945 C.ar    1  LIG1       -0.0462
     43 C          12.0346    1.2475   -0.1961 C.ar    1  LIG1       -0.0012
     44 C          14.8369    1.1245   -0.1421 C.ar    1  LIG1       -0.0400
     45 H          14.7596    1.7959   -2.1692 H       1  LIG1        0.0629
     46 C          12.7175    0.8450    0.9594 C.ar    1  LIG1       -0.0322
     47 C          14.1167    0.7746    1.0112 C.ar    1  LIG1        0.0252
     48 H          12.1347    0.5720    1.8349 H       1  LIG1        0.0642
     49 H          15.9226    1.0738   -0.1381 H       1  LIG1        0.0636
     50 S          11.9074    2.1602   -2.8132 S.3     1  LIG1       -0.1420
     51 H          13.0129    2.5410   -3.4835 H       1  LIG1        0.1071
     52 N          14.7692    0.3072    2.1534 N.pl3   1  LIG1       -0.3579
     53 H          15.7260    0.6154    2.2588 H       1  LIG1        0.1423
     54 H          14.2475    0.4005    3.0140 H       1  LIG1        0.1423
@<TRIPOS>BOND
     1    51    50    1
     2    50    41    1
     3    37    36    1
     4    14    12    1
     5    45    42    1
     6    36    28    1
     7    12    13    1
     8    12     7    1
     9    27    25    1
    10    32    29    1
    11     8     6    1
    12    26    25    1
    13    41    42   ar
    14    41    43   ar
    15    42    44   ar
    16    25    21    1
    17    28    29   ar
    18    28    30   ar
    19    29    31   ar
    20    22    20    1
    21     7     6   ar
    22     7     4   ar
    23     6     3   ar
    24    21    20   ar
    25    21    18   ar
    26    20    17   ar
    27    43    31    1
    28    43    46   ar
    29    31    34   ar
    30    30    18    1
    31    30    33   ar
    32    44    49    1
    33    44    47   ar
    34    18    16   ar
    35    17     4    1
    36    17    15   ar
    37     4     2   ar
    38     3     9    1
    39     3     1   ar
    40    16    15   ar
    41    16    19    1
    42    15    23    1
    43    33    34   ar
    44    33    35    1
    45    34    38    1
    46    46    47   ar
    47    46    48    1
    48    47    52    1
    49     2     1   ar
    50     2     5    1
    51     1    10    1
    52    39    38    1
    53    23    24    1
    54    38    40    1
    55    52    53    1
    56    52    54    1
    57    10    11    1
