@<TRIPOS>MOLECULE
mol_data/opt/b3lyp/geoms/mol2/4gh4gh.out
 28 29 0 0 0
SMALL
GASTEIGER

@<TRIPOS>ATOM
      1 C           0.1059    0.5696    1.1348 C.ar    1  LIG1        0.0054
      2 C           1.4994    0.5852    1.0254 C.ar    1  LIG1       -0.0390
      3 C          -0.6503    1.2683    0.1865 C.ar    1  LIG1       -0.0468
      4 C           2.1492    1.2565   -0.0155 C.ar    1  LIG1        0.0049
      5 H           2.0994    0.0561    1.7588 H       1  LIG1        0.0635
      6 C          -0.0245    1.9520   -0.8480 C.ar    1  LIG1       -0.0394
      7 C           1.3763    1.9636   -0.9705 C.ar    1  LIG1        0.0325
      8 H          -0.6224    2.4996   -1.5724 H       1  LIG1        0.0636
      9 H          -1.7328    1.2747    0.2619 H       1  LIG1        0.0629
     10 S          -0.6986   -0.2662    2.5114 S.3     1  LIG1       -0.1426
     11 H          -0.7694   -1.5048    1.9742 H       1  LIG1        0.1071
     12 N           1.9836    2.7165   -1.9678 N.pl3   1  LIG1       -0.3575
     13 H           2.9239    2.4340   -2.2086 H       1  LIG1        0.1423
     14 H           1.4126    2.8829   -2.7846 H       1  LIG1        0.1423
     15 C           4.3563    0.4768   -1.0066 C.ar    1  LIG1        0.0126
     16 C           5.7558    0.5231   -1.0073 C.ar    1  LIG1       -0.0462
     17 C           3.6443    1.2611   -0.0760 C.ar    1  LIG1       -0.0012
     18 C           6.4493    1.3259   -0.1090 C.ar    1  LIG1       -0.0400
     19 H           6.3186   -0.0821   -1.7122 H       1  LIG1        0.0629
     20 C           4.3574    2.0578    0.8268 C.ar    1  LIG1       -0.0322
     21 C           5.7589    2.1068    0.8315 C.ar    1  LIG1        0.0252
     22 H           3.7972    2.6581    1.5387 H       1  LIG1        0.0642
     23 H           7.5360    1.3393   -0.1296 H       1  LIG1        0.0636
     24 S           3.4372   -0.5889   -2.1254 S.3     1  LIG1       -0.1420
     25 H           4.5021   -0.9670   -2.8594 H       1  LIG1        0.1071
     26 N           6.4466    2.8662    1.7796 N.pl3   1  LIG1       -0.3579
     27 H           7.3787    3.1489    1.5099 H       1  LIG1        0.1423
     28 H           5.9221    3.6342    2.1756 H       1  LIG1        0.1423
@<TRIPOS>BOND
     1    25    24    1
     2    14    12    1
     3    13    12    1
     4    24    15    1
     5    12     7    1
     6    19    16    1
     7     8     6    1
     8    16    15   ar
     9    16    18   ar
    10    15    17   ar
    11     7     6   ar
    12     7     4   ar
    13     6     3   ar
    14    23    18    1
    15    18    21   ar
    16    17     4    1
    17    17    20   ar
    18     4     2   ar
    19     3     9    1
    20     3     1   ar
    21    20    21   ar
    22    20    22    1
    23    21    26    1
    24     2     1   ar
    25     2     5    1
    26     1    10    1
    27    27    26    1
    28    26    28    1
    29    11    10    1
