@<TRIPOS>MOLECULE
mol_data/opt/b3lyp/geoms/mol2/4gi.out
 16 16 0 0 0
SMALL
GASTEIGER

@<TRIPOS>ATOM
      1 C           0.0774    0.0126   -0.0048 C.ar    1  LIG1        0.0048
      2 C           1.4767    0.0098    0.0023 C.ar    1  LIG1       -0.0483
      3 C          -0.5989    1.2386    0.0008 C.ar    1  LIG1       -0.0483
      4 C           2.1787    1.2141    0.0130 C.ar    1  LIG1       -0.0578
      5 H           2.0237   -0.9287    0.0040 H       1  LIG1        0.0629
      6 C           0.1169    2.4333    0.0115 C.ar    1  LIG1       -0.0578
      7 C           1.5176    2.4479    0.0148 C.ar    1  LIG1       -0.0504
      8 H          -0.4277    3.3743    0.0193 H       1  LIG1        0.0621
      9 H           3.2657    1.1894    0.0218 H       1  LIG1        0.0621
     10 H          -1.6850    1.2610    0.0011 H       1  LIG1        0.0629
     11 S          -0.9009   -1.4866   -0.0144 S.3     1  LIG1       -0.1426
     12 H           0.1306   -2.3526   -0.0162 H       1  LIG1        0.1071
     13 C           2.2863    3.7479   -0.0065 C.3     1  LIG1       -0.0397
     14 H           1.7321    4.5488    0.4922 H       1  LIG1        0.0278
     15 H           2.4815    4.0795   -1.0342 H       1  LIG1        0.0278
     16 H           3.2556    3.6482    0.4913 H       1  LIG1        0.0278
@<TRIPOS>BOND
     1    15    13    1
     2    12    11    1
     3    11     1    1
     4    13     7    1
     5    13    16    1
     6    13    14    1
     7     1     3   ar
     8     1     2   ar
     9     3    10    1
    10     3     6   ar
    11     2     5    1
    12     2     4   ar
    13     6     7   ar
    14     6     8    1
    15     4     7   ar
    16     4     9    1
