@<TRIPOS>MOLECULE
mol_data/opt/b3lyp/geoms/mol2/4gi4gi-4gi4gi-.out
 58 61 0 0 0
SMALL
GASTEIGER

@<TRIPOS>ATOM
      1 C          -0.1618    2.4566   -1.0141 C.ar    1  LIG1        0.0053
      2 C           1.2329    2.4020   -0.9316 C.ar    1  LIG1       -0.0406
      3 C          -0.9191    1.5029   -0.3278 C.ar    1  LIG1       -0.0483
      4 C           1.8750    1.4068   -0.1843 C.ar    1  LIG1       -0.0129
      5 H           1.8417    3.1366   -1.4504 H       1  LIG1        0.0635
      6 C          -0.2790    0.5218    0.4255 C.ar    1  LIG1       -0.0572
      7 C           1.1153    0.4452    0.5157 C.ar    1  LIG1       -0.0426
      8 H          -0.8819   -0.2092    0.9578 H       1  LIG1        0.0621
      9 H          -2.0036    1.5226   -0.3816 H       1  LIG1        0.0629
     10 S          -1.0290    3.7174   -1.9430 S.3     1  LIG1       -0.1426
     11 H           0.0448    4.2098   -2.5899 H       1  LIG1        0.1071
     12 C           1.7743   -0.6329    1.3420 C.3     1  LIG1       -0.0391
     13 H           1.0263   -1.2263    1.8747 H       1  LIG1        0.0278
     14 H           2.4621   -0.2098    2.0814 H       1  LIG1        0.0278
     15 H           2.3598   -1.3138    0.7145 H       1  LIG1        0.0278
     16 C           4.1591    0.6104   -0.9601 C.ar    1  LIG1        0.0130
     17 C           5.5532    0.6647   -0.8559 C.ar    1  LIG1       -0.0400
     18 C           3.3712    1.4139   -0.1177 C.ar    1  LIG1       -0.0042
     19 C           6.1864    1.4982    0.0715 C.ar    1  LIG1       -0.0129
     20 H           6.1700    0.0507   -1.5055 H       1  LIG1        0.0635
     21 C           4.0209    2.2548    0.7949 C.ar    1  LIG1       -0.0495
     22 C           5.4115    2.3198    0.9168 C.ar    1  LIG1       -0.0421
     23 H           3.4070    2.8816    1.4364 H       1  LIG1        0.0627
     24 S           3.3413   -0.4385   -2.1610 S.3     1  LIG1       -0.1420
     25 H           4.4617   -1.0437   -2.6019 H       1  LIG1        0.1071
     26 C           6.0507    3.2465    1.9229 C.3     1  LIG1       -0.0391
     27 H           5.2955    3.8574    2.4242 H       1  LIG1        0.0278
     28 H           6.7728    3.9193    1.4486 H       1  LIG1        0.0278
     29 H           6.5944    2.6849    2.6905 H       1  LIG1        0.0278
     30 C           8.4107    0.7485    1.0402 C.ar    1  LIG1        0.0130
     31 C           9.8088    0.7991    1.0279 C.ar    1  LIG1       -0.0400
     32 C           7.6830    1.5195    0.1169 C.ar    1  LIG1       -0.0042
     33 C          10.5043    1.6045    0.1205 C.ar    1  LIG1       -0.0129
     34 H          10.3798    0.2027    1.7335 H       1  LIG1        0.0635
     35 C           8.3943    2.3110   -0.7937 C.ar    1  LIG1       -0.0495
     36 C           9.7899    2.3792   -0.8173 C.ar    1  LIG1       -0.0421
     37 H           7.8265    2.8974   -1.5114 H       1  LIG1        0.0627
     38 S           7.5125   -0.2974    2.1845 S.3     1  LIG1       -0.1420
     39 H           8.5924   -0.6959    2.8849 H       1  LIG1        0.1071
     40 C          10.4976    3.2555   -1.8225 C.3     1  LIG1       -0.0391
     41 H           9.7817    3.7247   -2.5024 H       1  LIG1        0.0278
     42 H          11.2124    2.6833   -2.4232 H       1  LIG1        0.0278
     43 H          11.0629    4.0519   -1.3260 H       1  LIG1        0.0278
     44 C          12.7399    2.5618    0.8513 C.ar    1  LIG1        0.0125
     45 C          14.1390    2.5034    0.8422 C.ar    1  LIG1       -0.0477
     46 C          12.0019    1.5922    0.1462 C.ar    1  LIG1       -0.0042
     47 C          14.8011    1.4967    0.1455 C.ar    1  LIG1       -0.0578
     48 H          14.7174    3.2477    1.3819 H       1  LIG1        0.0629
     49 C          12.6960    0.5859   -0.5384 C.ar    1  LIG1       -0.0501
     50 C          14.0924    0.5137   -0.5550 C.ar    1  LIG1       -0.0498
     51 H          12.1161   -0.1589   -1.0778 H       1  LIG1        0.0627
     52 H          15.8880    1.4768    0.1505 H       1  LIG1        0.0621
     53 S          11.8477    3.8303    1.7490 S.3     1  LIG1       -0.1420
     54 H          12.9398    4.5097    2.1509 H       1  LIG1        0.1071
     55 C          14.8088   -0.6006   -1.2800 C.3     1  LIG1       -0.0397
     56 H          14.2075   -0.9931   -2.1052 H       1  LIG1        0.0278
     57 H          15.0250   -1.4398   -0.6069 H       1  LIG1        0.0278
     58 H          15.7647   -0.2609   -1.6903 H       1  LIG1        0.0278
@<TRIPOS>BOND
     1    25    24    1
     2    11    10    1
     3    41    40    1
     4    42    40    1
     5    24    16    1
     6    56    55    1
     7    10     1    1
     8    40    43    1
     9    40    36    1
    10    58    55    1
    11    37    35    1
    12    20    17    1
    13     5     2    1
    14    55    57    1
    15    55    50    1
    16    51    49    1
    17     1     2   ar
    18     1     3   ar
    19    16    17   ar
    20    16    18   ar
    21     2     4   ar
    22    17    19   ar
    23    36    35   ar
    24    36    33   ar
    25    35    32   ar
    26    50    49   ar
    27    50    47   ar
    28    49    46   ar
    29     9     3    1
    30     3     6   ar
    31     4    18    1
    32     4     7   ar
    33    18    21   ar
    34    19    32    1
    35    19    22   ar
    36    32    30   ar
    37    33    46    1
    38    33    31   ar
    39    47    52    1
    40    47    45   ar
    41    46    44   ar
    42     6     7   ar
    43     6     8    1
    44     7    12    1
    45    15    12    1
    46    21    22   ar
    47    21    23    1
    48    45    44   ar
    49    45    48    1
    50    44    53    1
    51    22    26    1
    52    31    30   ar
    53    31    34    1
    54    30    38    1
    55    12    13    1
    56    12    14    1
    57    28    26    1
    58    53    54    1
    59    26    27    1
    60    26    29    1
    61    38    39    1
