@<TRIPOS>MOLECULE
mol_data/opt/b3lyp/geoms/mol2/4gi4gi-4gi-4gi.out
 58 61 0 0 0
SMALL
GASTEIGER

@<TRIPOS>ATOM
      1 C          -0.1597    2.4525   -1.0350 C.ar    1  LIG1        0.0053
      2 C           1.2348    2.3987   -0.9485 C.ar    1  LIG1       -0.0406
      3 C          -0.9184    1.4981   -0.3513 C.ar    1  LIG1       -0.0483
      4 C           1.8753    1.4035   -0.1997 C.ar    1  LIG1       -0.0129
      5 H           1.8446    3.1338   -1.4652 H       1  LIG1        0.0635
      6 C          -0.2799    0.5169    0.4034 C.ar    1  LIG1       -0.0572
      7 C           1.1141    0.4411    0.4975 C.ar    1  LIG1       -0.0426
      8 H          -0.8839   -0.2148    0.9335 H       1  LIG1        0.0621
      9 H          -2.0028    1.5171   -0.4081 H       1  LIG1        0.0629
     10 S          -1.0250    3.7131   -1.9658 S.3     1  LIG1       -0.1426
     11 H           0.0505    4.2070   -2.6088 H       1  LIG1        0.1071
     12 C           1.7715   -0.6372    1.3250 C.3     1  LIG1       -0.0391
     13 H           1.0224   -1.2320    1.8544 H       1  LIG1        0.0278
     14 H           2.4563   -0.2142    2.0672 H       1  LIG1        0.0278
     15 H           2.3598   -1.3168    0.6986 H       1  LIG1        0.0278
     16 C           4.1619    0.6100   -0.9709 C.ar    1  LIG1        0.0130
     17 C           5.5557    0.6649   -0.8628 C.ar    1  LIG1       -0.0400
     18 C           3.3713    1.4114   -0.1289 C.ar    1  LIG1       -0.0042
     19 C           6.1860    1.4966    0.0682 C.ar    1  LIG1       -0.0129
     20 H           6.1746    0.0525   -1.5120 H       1  LIG1        0.0635
     21 C           4.0180    2.2505    0.7873 C.ar    1  LIG1       -0.0495
     22 C           5.4083    2.3159    0.9132 C.ar    1  LIG1       -0.0421
     23 H           3.4021    2.8756    1.4287 H       1  LIG1        0.0627
     24 S           3.3479   -0.4368   -2.1761 S.3     1  LIG1       -0.1420
     25 H           4.4696   -1.0410   -2.6147 H       1  LIG1        0.1071
     26 C           6.0444    3.2409    1.9229 C.3     1  LIG1       -0.0391
     27 H           5.2872    3.8479    2.4259 H       1  LIG1        0.0278
     28 H           6.7649    3.9173    1.4513 H       1  LIG1        0.0278
     29 H           6.5893    2.6781    2.6888 H       1  LIG1        0.0278
     30 C           8.4078    0.7441    1.0401 C.ar    1  LIG1        0.0130
     31 C           9.8059    0.7956    1.0322 C.ar    1  LIG1       -0.0400
     32 C           7.6824    1.5187    0.1180 C.ar    1  LIG1       -0.0042
     33 C          10.5035    1.6054    0.1304 C.ar    1  LIG1       -0.0129
     34 H          10.3751    0.1965    1.7369 H       1  LIG1        0.0635
     35 C           8.3958    2.3147   -0.7869 C.ar    1  LIG1       -0.0495
     36 C           9.7914    2.3839   -0.8060 C.ar    1  LIG1       -0.0421
     37 H           7.8297    2.9040   -1.5036 H       1  LIG1        0.0627
     38 S           7.5067   -0.3071    2.1773 S.3     1  LIG1       -0.1420
     39 H           8.5848   -0.7084    2.8788 H       1  LIG1        0.1071
     40 C          10.5017    3.2655   -1.8049 C.3     1  LIG1       -0.0391
     41 H           9.7877    3.7372   -2.4849 H       1  LIG1        0.0278
     42 H          11.2189    2.6966   -2.4059 H       1  LIG1        0.0278
     43 H          11.0648    4.0599   -1.3028 H       1  LIG1        0.0278
     44 C          12.7361    2.5592    0.8738 C.ar    1  LIG1        0.0125
     45 C          14.1356    2.5014    0.8690 C.ar    1  LIG1       -0.0477
     46 C          12.0010    1.5942    0.1605 C.ar    1  LIG1       -0.0042
     47 C          14.8003    1.4999    0.1680 C.ar    1  LIG1       -0.0578
     48 H          14.7118    3.2422    1.4160 H       1  LIG1        0.0629
     49 C          12.6981    0.5925   -0.5288 C.ar    1  LIG1       -0.0501
     50 C          14.0941    0.5212   -0.5418 C.ar    1  LIG1       -0.0498
     51 H          12.1203   -0.1494   -1.0746 H       1  LIG1        0.0627
     52 H          15.8873    1.4804    0.1768 H       1  LIG1        0.0621
     53 S          11.8408    3.8216    1.7769 S.3     1  LIG1       -0.1420
     54 H          12.9315    4.4994    2.1856 H       1  LIG1        0.1071
     55 C          14.8157   -0.5844   -1.2749 C.3     1  LIG1       -0.0397
     56 H          14.1745   -1.0492   -2.0290 H       1  LIG1        0.0278
     57 H          15.1379   -1.3755   -0.5864 H       1  LIG1        0.0278
     58 H          15.7131   -0.2111   -1.7787 H       1  LIG1        0.0278
@<TRIPOS>BOND
     1    25    24    1
     2    11    10    1
     3    41    40    1
     4    42    40    1
     5    24    16    1
     6    56    55    1
     7    10     1    1
     8    40    43    1
     9    40    36    1
    10    58    55    1
    11    20    17    1
    12    37    35    1
    13     5     2    1
    14    55    57    1
    15    55    50    1
    16    51    49    1
    17     1     2   ar
    18     1     3   ar
    19    16    17   ar
    20    16    18   ar
    21     2     4   ar
    22    17    19   ar
    23    36    35   ar
    24    36    33   ar
    25    35    32   ar
    26    50    49   ar
    27    50    47   ar
    28    49    46   ar
    29     9     3    1
    30     3     6   ar
    31     4    18    1
    32     4     7   ar
    33    18    21   ar
    34    19    32    1
    35    19    22   ar
    36    32    30   ar
    37    33    46    1
    38    33    31   ar
    39    46    44   ar
    40    47    52    1
    41    47    45   ar
    42     6     7   ar
    43     6     8    1
    44     7    12    1
    45    15    12    1
    46    21    22   ar
    47    21    23    1
    48    45    44   ar
    49    45    48    1
    50    44    53    1
    51    22    26    1
    52    31    30   ar
    53    31    34    1
    54    30    38    1
    55    12    13    1
    56    12    14    1
    57    28    26    1
    58    53    54    1
    59    26    27    1
    60    26    29    1
    61    38    39    1
