@<TRIPOS>MOLECULE
mol_data/opt/b3lyp/geoms/mol2/4gi4gi4gi-4gi-.out
 58 61 0 0 0
SMALL
GASTEIGER

@<TRIPOS>ATOM
      1 C          -0.1656    2.4361   -1.0051 C.ar    1  LIG1        0.0053
      2 C           1.2294    2.3847   -0.9246 C.ar    1  LIG1       -0.0406
      3 C          -0.9198    1.4845   -0.3125 C.ar    1  LIG1       -0.0483
      4 C           1.8748    1.3947   -0.1733 C.ar    1  LIG1       -0.0129
      5 H           1.8358    3.1179   -1.4482 H       1  LIG1        0.0635
      6 C          -0.2764    0.5088    0.4450 C.ar    1  LIG1       -0.0572
      7 C           1.1182    0.4353    0.5331 C.ar    1  LIG1       -0.0426
      8 H          -0.8770   -0.2206    0.9823 H       1  LIG1        0.0621
      9 H          -2.0044    1.5016   -0.3646 H       1  LIG1        0.0629
     10 S          -1.0368    3.6906   -1.9385 S.3     1  LIG1       -0.1426
     11 H           0.0340    4.1779   -2.5942 H       1  LIG1        0.1071
     12 C           1.7806   -0.6372    1.3641 C.3     1  LIG1       -0.0391
     13 H           1.0349   -1.2266    1.9042 H       1  LIG1        0.0278
     14 H           2.4720   -0.2091    2.0973 H       1  LIG1        0.0278
     15 H           2.3629   -1.3227    0.7385 H       1  LIG1        0.0278
     16 C           4.1587    0.5969   -0.9481 C.ar    1  LIG1        0.0130
     17 C           5.5530    0.6545   -0.8472 C.ar    1  LIG1       -0.0400
     18 C           3.3711    1.4051   -0.1098 C.ar    1  LIG1       -0.0042
     19 C           6.1865    1.4959    0.0729 C.ar    1  LIG1       -0.0129
     20 H           6.1695    0.0369   -1.4936 H       1  LIG1        0.0635
     21 C           4.0211    2.2538    0.7953 C.ar    1  LIG1       -0.0495
     22 C           5.4118    2.3222    0.9138 C.ar    1  LIG1       -0.0421
     23 H           3.4074    2.8841    1.4337 H       1  LIG1        0.0627
     24 S           3.3404   -0.4616   -2.1401 S.3     1  LIG1       -0.1420
     25 H           4.4608   -1.0686   -2.5783 H       1  LIG1        0.1071
     26 C           6.0517    3.2575    1.9115 C.3     1  LIG1       -0.0391
     27 H           5.2962    3.8675    2.4133 H       1  LIG1        0.0278
     28 H           6.7682    3.9310    1.4299 H       1  LIG1        0.0278
     29 H           6.6021    2.7028    2.6794 H       1  LIG1        0.0278
     30 C           8.4140    0.7545    1.0407 C.ar    1  LIG1        0.0130
     31 C           9.8119    0.8080    1.0259 C.ar    1  LIG1       -0.0400
     32 C           7.6831    1.5203    0.1156 C.ar    1  LIG1       -0.0042
     33 C          10.5042    1.6115    0.1143 C.ar    1  LIG1       -0.0129
     34 H          10.3853    0.2158    1.7329 H       1  LIG1        0.0635
     35 C           8.3912    2.3100   -0.7991 C.ar    1  LIG1       -0.0495
     36 C           9.7866    2.3811   -0.8253 C.ar    1  LIG1       -0.0421
     37 H           7.8209    2.8925   -1.5181 H       1  LIG1        0.0627
     38 S           7.5197   -0.2884    2.1909 S.3     1  LIG1       -0.1420
     39 H           8.6016   -0.6821    2.8908 H       1  LIG1        0.1071
     40 C          10.4908    3.2550   -1.8351 C.3     1  LIG1       -0.0391
     41 H           9.7728    3.7201   -2.5156 H       1  LIG1        0.0278
     42 H          11.2057    2.6819   -2.4349 H       1  LIG1        0.0278
     43 H          11.0554    4.0544   -1.3427 H       1  LIG1        0.0278
     44 C          12.7387    2.5769    0.8373 C.ar    1  LIG1        0.0125
     45 C          14.1379    2.5217    0.8265 C.ar    1  LIG1       -0.0477
     46 C          12.0018    1.6025    0.1377 C.ar    1  LIG1       -0.0042
     47 C          14.8012    1.5132    0.1333 C.ar    1  LIG1       -0.0578
     48 H          14.7154    3.2697    1.3619 H       1  LIG1        0.0629
     49 C          12.6972    0.5946   -0.5432 C.ar    1  LIG1       -0.0501
     50 C          14.0938    0.5254   -0.5615 C.ar    1  LIG1       -0.0498
     51 H          12.1182   -0.1540   -1.0784 H       1  LIG1        0.0627
     52 H          15.8882    1.4958    0.1369 H       1  LIG1        0.0621
     53 S          11.8448    3.8474    1.7306 S.3     1  LIG1       -0.1420
     54 H          12.9360    4.5308    2.1284 H       1  LIG1        0.1071
     55 C          14.8115   -0.5907   -1.2825 C.3     1  LIG1       -0.0397
     56 H          14.2107   -0.9870   -2.1061 H       1  LIG1        0.0278
     57 H          15.0287   -1.4271   -0.6062 H       1  LIG1        0.0278
     58 H          15.7670   -0.2513   -1.6940 H       1  LIG1        0.0278
@<TRIPOS>BOND
     1    11    10    1
     2    25    24    1
     3    41    40    1
     4    42    40    1
     5    24    16    1
     6    56    55    1
     7    10     1    1
     8    40    43    1
     9    40    36    1
    10    58    55    1
    11    37    35    1
    12    20    17    1
    13     5     2    1
    14    55    57    1
    15    55    50    1
    16    51    49    1
    17     1     2   ar
    18     1     3   ar
    19    16    17   ar
    20    16    18   ar
    21     2     4   ar
    22    17    19   ar
    23    36    35   ar
    24    36    33   ar
    25    35    32   ar
    26    50    49   ar
    27    50    47   ar
    28    49    46   ar
    29     9     3    1
    30     3     6   ar
    31     4    18    1
    32     4     7   ar
    33    18    21   ar
    34    19    32    1
    35    19    22   ar
    36    33    46    1
    37    33    31   ar
    38    32    30   ar
    39    47    52    1
    40    47    45   ar
    41    46    44   ar
    42     6     7   ar
    43     6     8    1
    44     7    12    1
    45    15    12    1
    46    21    22   ar
    47    21    23    1
    48    45    44   ar
    49    45    48    1
    50    44    53    1
    51    22    26    1
    52    31    30   ar
    53    31    34    1
    54    30    38    1
    55    12    13    1
    56    12    14    1
    57    28    26    1
    58    53    54    1
    59    26    27    1
    60    26    29    1
    61    38    39    1
