@<TRIPOS>MOLECULE
mol_data/opt/b3lyp/geoms/mol2/4gi4gi-.out
 30 31 0 0 0
SMALL
GASTEIGER

@<TRIPOS>ATOM
      1 C           0.0840    0.4356   -1.0777 C.ar    1  LIG1        0.0053
      2 C           1.4759    0.4670   -0.9493 C.ar    1  LIG1       -0.0406
      3 C          -0.6920    1.2447   -0.2428 C.ar    1  LIG1       -0.0483
      4 C           2.0971    1.2851    0.0026 C.ar    1  LIG1       -0.0129
      5 H           2.0990   -0.1495   -1.5906 H       1  LIG1        0.0635
      6 C          -0.0722    2.0664    0.6955 C.ar    1  LIG1       -0.0572
      7 C           1.3186    2.1080    0.8444 C.ar    1  LIG1       -0.0426
      8 H          -0.6888    2.6936    1.3341 H       1  LIG1        0.0621
      9 H          -1.7751    1.2333   -0.3211 H       1  LIG1        0.0629
     10 S          -0.7536   -0.5822   -2.2887 S.3     1  LIG1       -0.1426
     11 H           0.3196   -1.3059   -2.6608 H       1  LIG1        0.1071
     12 C           1.9535    3.0121    1.8736 C.3     1  LIG1       -0.0391
     13 H           1.1977    3.6265    2.3699 H       1  LIG1        0.0278
     14 H           2.6919    3.6822    1.4210 H       1  LIG1        0.0278
     15 H           2.4756    2.4334    2.6435 H       1  LIG1        0.0278
     16 C           4.2964    0.5076    1.0089 C.ar    1  LIG1        0.0125
     17 C           5.6967    0.5479    1.0271 C.ar    1  LIG1       -0.0477
     18 C           3.5936    1.2897    0.0735 C.ar    1  LIG1       -0.0042
     19 C           6.3938    1.3500    0.1290 C.ar    1  LIG1       -0.0578
     20 H           6.2479   -0.0518    1.7457 H       1  LIG1        0.0629
     21 C           4.3237    2.0804   -0.8247 C.ar    1  LIG1       -0.0501
     22 C           5.7207    2.1293   -0.8198 C.ar    1  LIG1       -0.0498
     23 H           3.7708    2.6773   -1.5456 H       1  LIG1        0.0627
     24 H           7.4803    1.3657    0.1670 H       1  LIG1        0.0621
     25 S           3.3631   -0.5305    2.1324 S.3     1  LIG1       -0.1420
     26 H           4.4294   -0.9757    2.8257 H       1  LIG1        0.1071
     27 C           6.4791    2.9733   -1.8164 C.3     1  LIG1       -0.0397
     28 H           5.8357    3.7333   -2.2682 H       1  LIG1        0.0278
     29 H           6.8845    2.3605   -2.6311 H       1  LIG1        0.0278
     30 H           7.3258    3.4842   -1.3464 H       1  LIG1        0.0278
@<TRIPOS>BOND
     1    11    10    1
     2    29    27    1
     3    10     1    1
     4    28    27    1
     5    27    30    1
     6    27    22    1
     7     5     2    1
     8    23    21    1
     9     1     2   ar
    10     1     3   ar
    11     2     4   ar
    12    21    22   ar
    13    21    18   ar
    14    22    19   ar
    15     9     3    1
    16     3     6   ar
    17     4    18    1
    18     4     7   ar
    19    18    16   ar
    20    19    24    1
    21    19    17   ar
    22     6     7   ar
    23     6     8    1
    24     7    12    1
    25    16    17   ar
    26    16    25    1
    27    17    20    1
    28    14    12    1
    29    12    13    1
    30    12    15    1
    31    25    26    1
