@<TRIPOS>MOLECULE
mol_data/opt/b3lyp/geoms/mol2/4gi4gi-4gi4gi.out
 58 61 0 0 0
SMALL
GASTEIGER

@<TRIPOS>ATOM
      1 C          -0.1606    2.4524   -1.0264 C.ar    1  LIG1        0.0053
      2 C           1.2339    2.3993   -0.9408 C.ar    1  LIG1       -0.0406
      3 C          -0.9184    1.4964   -0.3440 C.ar    1  LIG1       -0.0483
      4 C           1.8755    1.4031   -0.1943 C.ar    1  LIG1       -0.0129
      5 H           1.8430    3.1359   -1.4563 H       1  LIG1        0.0635
      6 C          -0.2789    0.5143    0.4087 C.ar    1  LIG1       -0.0572
      7 C           1.1152    0.4391    0.5018 C.ar    1  LIG1       -0.0426
      8 H          -0.8822   -0.2187    0.9379 H       1  LIG1        0.0621
      9 H          -2.0028    1.5147   -0.4005 H       1  LIG1        0.0629
     10 S          -1.0271    3.7148   -1.9539 S.3     1  LIG1       -0.1426
     11 H           0.0462    4.2041   -2.6039 H       1  LIG1        0.1071
     12 C           1.7737   -0.6404    1.3268 C.3     1  LIG1       -0.0391
     13 H           1.0252   -1.2369    1.8552 H       1  LIG1        0.0278
     14 H           2.4584   -0.2183    2.0697 H       1  LIG1        0.0278
     15 H           2.3625   -1.3182    0.6990 H       1  LIG1        0.0278
     16 C           4.1620    0.6123   -0.9684 C.ar    1  LIG1        0.0130
     17 C           5.5559    0.6676   -0.8611 C.ar    1  LIG1       -0.0400
     18 C           3.3715    1.4115   -0.1244 C.ar    1  LIG1       -0.0042
     19 C           6.1863    1.4978    0.0712 C.ar    1  LIG1       -0.0129
     20 H           6.1746    0.0569   -1.5119 H       1  LIG1        0.0635
     21 C           4.0184    2.2493    0.7930 C.ar    1  LIG1       -0.0495
     22 C           5.4087    2.3152    0.9182 C.ar    1  LIG1       -0.0421
     23 H           3.4025    2.8729    1.4358 H       1  LIG1        0.0627
     24 S           3.3477   -0.4326   -2.1752 S.3     1  LIG1       -0.1420
     25 H           4.4693   -1.0361   -2.6150 H       1  LIG1        0.1071
     26 C           6.0447    3.2385    1.9294 C.3     1  LIG1       -0.0391
     27 H           5.2879    3.8479    2.4302 H       1  LIG1        0.0278
     28 H           6.7685    3.9127    1.4598 H       1  LIG1        0.0278
     29 H           6.5857    2.6743    2.6971 H       1  LIG1        0.0278
     30 C           8.4091    0.7475    1.0427 C.ar    1  LIG1        0.0130
     31 C           9.8072    0.7993    1.0335 C.ar    1  LIG1       -0.0400
     32 C           7.6827    1.5202    0.1198 C.ar    1  LIG1       -0.0042
     33 C          10.5039    1.6074    0.1295 C.ar    1  LIG1       -0.0129
     34 H          10.3771    0.2018    1.7389 H       1  LIG1        0.0635
     35 C           8.3953    2.3144   -0.7874 C.ar    1  LIG1       -0.0495
     36 C           9.7909    2.3838   -0.8080 C.ar    1  LIG1       -0.0421
     37 H           7.8285    2.9021   -1.5049 H       1  LIG1        0.0627
     38 S           7.5094   -0.3022    2.1824 S.3     1  LIG1       -0.1420
     39 H           8.5884   -0.7032    2.8827 H       1  LIG1        0.1071
     40 C          10.5000    3.2630   -1.8097 C.3     1  LIG1       -0.0391
     41 H           9.7851    3.7337   -2.4896 H       1  LIG1        0.0278
     42 H          11.2161    2.6926   -2.4107 H       1  LIG1        0.0278
     43 H          11.0642    4.0582   -1.3101 H       1  LIG1        0.0278
     44 C          12.7372    2.5647    0.8672 C.ar    1  LIG1        0.0125
     45 C          14.1363    2.5075    0.8611 C.ar    1  LIG1       -0.0477
     46 C          12.0015    1.5962    0.1584 C.ar    1  LIG1       -0.0042
     47 C          14.8007    1.5027    0.1637 C.ar    1  LIG1       -0.0578
     48 H          14.7130    3.2510    1.4037 H       1  LIG1        0.0629
     49 C          12.6979    0.5919   -0.5269 C.ar    1  LIG1       -0.0501
     50 C          14.0944    0.5207   -0.5405 C.ar    1  LIG1       -0.0498
     51 H          12.1198   -0.1523   -1.0692 H       1  LIG1        0.0627
     52 H          15.8877    1.4837    0.1711 H       1  LIG1        0.0621
     53 S          11.8420    3.8304    1.7657 S.3     1  LIG1       -0.1420
     54 H          12.9327    4.5093    2.1725 H       1  LIG1        0.1071
     55 C          14.8134   -0.5913   -1.2665 C.3     1  LIG1       -0.0397
     56 H          14.2108   -0.9881   -2.0886 H       1  LIG1        0.0278
     57 H          15.0364   -1.4282   -0.5927 H       1  LIG1        0.0278
     58 H          15.7660   -0.2476   -1.6810 H       1  LIG1        0.0278
@<TRIPOS>BOND
     1    25    24    1
     2    11    10    1
     3    41    40    1
     4    42    40    1
     5    24    16    1
     6    56    55    1
     7    10     1    1
     8    40    43    1
     9    40    36    1
    10    58    55    1
    11    20    17    1
    12    37    35    1
    13     5     2    1
    14    55    57    1
    15    55    50    1
    16    51    49    1
    17     1     2   ar
    18     1     3   ar
    19    16    17   ar
    20    16    18   ar
    21     2     4   ar
    22    17    19   ar
    23    36    35   ar
    24    36    33   ar
    25    35    32   ar
    26    50    49   ar
    27    50    47   ar
    28    49    46   ar
    29     9     3    1
    30     3     6   ar
    31     4    18    1
    32     4     7   ar
    33    18    21   ar
    34    19    32    1
    35    19    22   ar
    36    32    30   ar
    37    33    46    1
    38    33    31   ar
    39    46    44   ar
    40    47    52    1
    41    47    45   ar
    42     6     7   ar
    43     6     8    1
    44     7    12    1
    45    15    12    1
    46    21    22   ar
    47    21    23    1
    48    45    44   ar
    49    45    48    1
    50    44    53    1
    51    22    26    1
    52    31    30   ar
    53    31    34    1
    54    30    38    1
    55    12    13    1
    56    12    14    1
    57    28    26    1
    58    53    54    1
    59    26    27    1
    60    26    29    1
    61    38    39    1
