@<TRIPOS>MOLECULE
mol_data/opt/b3lyp/geoms/mol2/4gi4gi4gi-4gi.out
 58 61 0 0 0
SMALL
GASTEIGER

@<TRIPOS>ATOM
      1 C          -0.1602    2.4506   -1.0303 C.ar    1  LIG1        0.0053
      2 C           1.2343    2.3971   -0.9442 C.ar    1  LIG1       -0.0406
      3 C          -0.9185    1.4956   -0.3471 C.ar    1  LIG1       -0.0483
      4 C           1.8753    1.4016   -0.1962 C.ar    1  LIG1       -0.0129
      5 H           1.8439    3.1327   -1.4606 H       1  LIG1        0.0635
      6 C          -0.2796    0.5140    0.4067 C.ar    1  LIG1       -0.0572
      7 C           1.1145    0.4385    0.5005 C.ar    1  LIG1       -0.0426
      8 H          -0.8833   -0.2182    0.9365 H       1  LIG1        0.0621
      9 H          -2.0029    1.5144   -0.4035 H       1  LIG1        0.0629
     10 S          -1.0259    3.7115   -1.9603 S.3     1  LIG1       -0.1426
     11 H           0.0499    4.2085   -2.6002 H       1  LIG1        0.1071
     12 C           1.7723   -0.6401    1.3272 C.3     1  LIG1       -0.0391
     13 H           1.0235   -1.2349    1.8571 H       1  LIG1        0.0278
     14 H           2.4577   -0.2173    2.0691 H       1  LIG1        0.0278
     15 H           2.3601   -1.3196    0.7003 H       1  LIG1        0.0278
     16 C           4.1621    0.6087   -0.9676 C.ar    1  LIG1        0.0130
     17 C           5.5559    0.6639   -0.8596 C.ar    1  LIG1       -0.0400
     18 C           3.3713    1.4098   -0.1256 C.ar    1  LIG1       -0.0042
     19 C           6.1859    1.4959    0.0714 C.ar    1  LIG1       -0.0129
     20 H           6.1749    0.0518   -1.5088 H       1  LIG1        0.0635
     21 C           4.0178    2.2491    0.7906 C.ar    1  LIG1       -0.0495
     22 C           5.4080    2.3149    0.9165 C.ar    1  LIG1       -0.0421
     23 H           3.4017    2.8739    1.4320 H       1  LIG1        0.0627
     24 S           3.3484   -0.4385   -2.1728 S.3     1  LIG1       -0.1420
     25 H           4.4704   -1.0418   -2.6120 H       1  LIG1        0.1071
     26 C           6.0439    3.2400    1.9262 C.3     1  LIG1       -0.0391
     27 H           5.2865    3.8464    2.4296 H       1  LIG1        0.0278
     28 H           6.7637    3.9171    1.4546 H       1  LIG1        0.0278
     29 H           6.5894    2.6774    2.6917 H       1  LIG1        0.0278
     30 C           8.4084    0.7447    1.0430 C.ar    1  LIG1        0.0130
     31 C           9.8065    0.7967    1.0346 C.ar    1  LIG1       -0.0400
     32 C           7.6824    1.5186    0.1208 C.ar    1  LIG1       -0.0042
     33 C          10.5035    1.6063    0.1322 C.ar    1  LIG1       -0.0129
     34 H          10.3761    0.1981    1.7394 H       1  LIG1        0.0635
     35 C           8.3953    2.3144   -0.7848 C.ar    1  LIG1       -0.0495
     36 C           9.7908    2.3841   -0.8044 C.ar    1  LIG1       -0.0421
     37 H           7.8288    2.9031   -1.5016 H       1  LIG1        0.0627
     38 S           7.5081   -0.3064    2.1811 S.3     1  LIG1       -0.1420
     39 H           8.5864   -0.7055    2.8835 H       1  LIG1        0.1071
     40 C          10.5006    3.2655   -1.8037 C.3     1  LIG1       -0.0391
     41 H           9.7862    3.7370   -2.4836 H       1  LIG1        0.0278
     42 H          11.2176    2.6967   -2.4049 H       1  LIG1        0.0278
     43 H          11.0636    4.0602   -1.3020 H       1  LIG1        0.0278
     44 C          12.7358    2.5608    0.8753 C.ar    1  LIG1        0.0125
     45 C          14.1354    2.5037    0.8702 C.ar    1  LIG1       -0.0477
     46 C          12.0011    1.5958    0.1618 C.ar    1  LIG1       -0.0042
     47 C          14.8004    1.5028    0.1686 C.ar    1  LIG1       -0.0578
     48 H          14.7114    3.2445    1.4173 H       1  LIG1        0.0629
     49 C          12.6984    0.5947   -0.5281 C.ar    1  LIG1       -0.0501
     50 C          14.0945    0.5241   -0.5415 C.ar    1  LIG1       -0.0498
     51 H          12.1209   -0.1472   -1.0740 H       1  LIG1        0.0627
     52 H          15.8874    1.4838    0.1771 H       1  LIG1        0.0621
     53 S          11.8402    3.8225    1.7791 S.3     1  LIG1       -0.1420
     54 H          12.9306    4.5007    2.1877 H       1  LIG1        0.1071
     55 C          14.8164   -0.5809   -1.2753 C.3     1  LIG1       -0.0397
     56 H          14.1754   -1.0451   -2.0300 H       1  LIG1        0.0278
     57 H          15.1383   -1.3726   -0.5873 H       1  LIG1        0.0278
     58 H          15.7139   -0.2071   -1.7784 H       1  LIG1        0.0278
@<TRIPOS>BOND
     1    25    24    1
     2    11    10    1
     3    41    40    1
     4    42    40    1
     5    24    16    1
     6    56    55    1
     7    10     1    1
     8    40    43    1
     9    40    36    1
    10    58    55    1
    11    20    17    1
    12    37    35    1
    13     5     2    1
    14    55    57    1
    15    55    50    1
    16    51    49    1
    17     1     2   ar
    18     1     3   ar
    19    16    17   ar
    20    16    18   ar
    21     2     4   ar
    22    17    19   ar
    23    36    35   ar
    24    36    33   ar
    25    35    32   ar
    26    50    49   ar
    27    50    47   ar
    28    49    46   ar
    29     9     3    1
    30     3     6   ar
    31     4    18    1
    32     4     7   ar
    33    18    21   ar
    34    19    32    1
    35    19    22   ar
    36    32    30   ar
    37    33    46    1
    38    33    31   ar
    39    46    44   ar
    40    47    52    1
    41    47    45   ar
    42     6     7   ar
    43     6     8    1
    44     7    12    1
    45    15    12    1
    46    21    22   ar
    47    21    23    1
    48    45    44   ar
    49    45    48    1
    50    44    53    1
    51    22    26    1
    52    31    30   ar
    53    31    34    1
    54    30    38    1
    55    12    13    1
    56    12    14    1
    57    28    26    1
    58    53    54    1
    59    26    27    1
    60    26    29    1
    61    38    39    1
