@<TRIPOS>MOLECULE
mol_data/opt/b3lyp/geoms/mol2/4gi4gi.out
 30 31 0 0 0
SMALL
GASTEIGER

@<TRIPOS>ATOM
      1 C           0.0979    0.4290   -1.1053 C.ar    1  LIG1        0.0053
      2 C           1.4883    0.4628   -0.9616 C.ar    1  LIG1       -0.0406
      3 C          -0.6884    1.2388   -0.2807 C.ar    1  LIG1       -0.0483
      4 C           2.0978    1.2838   -0.0047 C.ar    1  LIG1       -0.0129
      5 H           2.1192   -0.1542   -1.5946 H       1  LIG1        0.0635
      6 C          -0.0802    2.0633    0.6626 C.ar    1  LIG1       -0.0572
      7 C           1.3088    2.1074    0.8267 C.ar    1  LIG1       -0.0426
      8 H          -0.7047    2.6910    1.2931 H       1  LIG1        0.0621
      9 H          -1.7706    1.2257   -0.3708 H       1  LIG1        0.0629
     10 S          -0.7248   -0.5926   -2.3228 S.3     1  LIG1       -0.1426
     11 H           0.3539   -1.3140   -2.6833 H       1  LIG1        0.1071
     12 C           1.9311    3.0145    1.8610 C.3     1  LIG1       -0.0391
     13 H           1.1690    3.6292    2.3473 H       1  LIG1        0.0278
     14 H           2.6739    3.6844    1.4153 H       1  LIG1        0.0278
     15 H           2.4451    2.4381    2.6381 H       1  LIG1        0.0278
     16 C           4.2872    0.5118    1.0279 C.ar    1  LIG1        0.0125
     17 C           5.6866    0.5548    1.0621 C.ar    1  LIG1       -0.0477
     18 C           3.5935    1.2908    0.0825 C.ar    1  LIG1       -0.0042
     19 C           6.3926    1.3564    0.1699 C.ar    1  LIG1       -0.0578
     20 H           6.2308   -0.0417    1.7886 H       1  LIG1        0.0629
     21 C           4.3321    2.0804   -0.8090 C.ar    1  LIG1       -0.0501
     22 C           5.7293    2.1317   -0.7884 C.ar    1  LIG1       -0.0498
     23 H           3.7861    2.6751   -1.5372 H       1  LIG1        0.0627
     24 H           7.4785    1.3748    0.2205 H       1  LIG1        0.0621
     25 S           3.3423   -0.5250    2.1433 S.3     1  LIG1       -0.1420
     26 H           4.4011   -0.9651    2.8513 H       1  LIG1        0.1071
     27 C           6.4959    2.9717   -1.7819 C.3     1  LIG1       -0.0397
     28 H           5.8859    3.7941   -2.1662 H       1  LIG1        0.0278
     29 H           6.8181    2.3743   -2.6441 H       1  LIG1        0.0278
     30 H           7.3967    3.4009   -1.3322 H       1  LIG1        0.0278
@<TRIPOS>BOND
     1    11    10    1
     2    29    27    1
     3    10     1    1
     4    28    27    1
     5    27    30    1
     6    27    22    1
     7     5     2    1
     8    23    21    1
     9     1     2   ar
    10     1     3   ar
    11     2     4   ar
    12    21    22   ar
    13    21    18   ar
    14    22    19   ar
    15     9     3    1
    16     3     6   ar
    17     4    18    1
    18     4     7   ar
    19    18    16   ar
    20    19    24    1
    21    19    17   ar
    22     6     7   ar
    23     6     8    1
    24     7    12    1
    25    16    17   ar
    26    16    25    1
    27    17    20    1
    28    14    12    1
    29    12    13    1
    30    12    15    1
    31    25    26    1
