@<TRIPOS>MOLECULE
mol_data/opt/b3lyp/geoms/mol2/4gi4gi4gi-.out
 44 46 0 0 0
SMALL
GASTEIGER

@<TRIPOS>ATOM
      1 C           0.0118    1.4398   -1.5479 C.ar    1  LIG1        0.0053
      2 C           1.4015    1.4326   -1.3951 C.ar    1  LIG1       -0.0406
      3 C          -0.7955    1.3395   -0.4113 C.ar    1  LIG1       -0.0483
      4 C           1.9899    1.3155   -0.1297 C.ar    1  LIG1       -0.0129
      5 H           2.0481    1.5174   -2.2635 H       1  LIG1        0.0635
      6 C          -0.2086    1.2371    0.8477 C.ar    1  LIG1       -0.0572
      7 C           1.1798    1.2188    1.0218 C.ar    1  LIG1       -0.0426
      8 H          -0.8497    1.1644    1.7224 H       1  LIG1        0.0621
      9 H          -1.8774    1.3370   -0.5063 H       1  LIG1        0.0629
     10 S          -0.7850    1.6042   -3.1427 S.3     1  LIG1       -0.1426
     11 H           0.3087    1.3733   -3.8940 H       1  LIG1        0.1071
     12 C           1.7801    1.0980    2.4019 C.3     1  LIG1       -0.0391
     13 H           1.0023    1.1384    3.1691 H       1  LIG1        0.0278
     14 H           2.4976    1.9003    2.6017 H       1  LIG1        0.0278
     15 H           2.3192    0.1512    2.5184 H       1  LIG1        0.0278
     16 C           4.2435    0.1532    0.0311 C.ar    1  LIG1        0.0130
     17 C           5.6382    0.2350    0.1070 C.ar    1  LIG1       -0.0400
     18 C           3.4844    1.3348   -0.0314 C.ar    1  LIG1       -0.0042
     19 C           6.2996    1.4671    0.1293 C.ar    1  LIG1       -0.0129
     20 H           6.2336   -0.6723    0.1490 H       1  LIG1        0.0635
     21 C           4.1622    2.5604   -0.0213 C.ar    1  LIG1       -0.0495
     22 C           5.5536    2.6624    0.0600 C.ar    1  LIG1       -0.0421
     23 H           3.5705    3.4702   -0.0796 H       1  LIG1        0.0627
     24 S           3.3899   -1.4213   -0.0180 S.3     1  LIG1       -0.1420
     25 H           4.4859   -2.1793    0.1820 H       1  LIG1        0.1071
     26 C           6.2238    4.0154    0.0656 C.3     1  LIG1       -0.0391
     27 H           5.4900    4.8137   -0.0730 H       1  LIG1        0.0278
     28 H           6.9704    4.0977   -0.7313 H       1  LIG1        0.0278
     29 H           6.7449    4.1968    1.0121 H       1  LIG1        0.0278
     30 C           8.4921    1.6394    1.3993 C.ar    1  LIG1        0.0125
     31 C           9.8930    1.6410    1.3950 C.ar    1  LIG1       -0.0477
     32 C           7.7963    1.4802    0.1865 C.ar    1  LIG1       -0.0042
     33 C          10.5975    1.4848    0.2055 C.ar    1  LIG1       -0.0578
     34 H          10.4389    1.7635    2.3261 H       1  LIG1        0.0629
     35 C           8.5335    1.3158   -0.9944 C.ar    1  LIG1       -0.0501
     36 C           9.9311    1.3136   -1.0142 C.ar    1  LIG1       -0.0498
     37 H           7.9859    1.1904   -1.9252 H       1  LIG1        0.0627
     38 H          11.6844    1.4940    0.2295 H       1  LIG1        0.0621
     39 S           7.5478    1.8140    2.9120 S.3     1  LIG1       -0.1420
     40 H           8.6102    2.0084    3.7178 H       1  LIG1        0.1071
     41 C          10.6970    1.1126   -2.3002 C.3     1  LIG1       -0.0397
     42 H          10.0599    1.2741   -3.1740 H       1  LIG1        0.0278
     43 H          11.0985    0.0941   -2.3702 H       1  LIG1        0.0278
     44 H          11.5472    1.7989   -2.3714 H       1  LIG1        0.0278
@<TRIPOS>BOND
     1    11    10    1
     2    42    41    1
     3    10     1    1
     4    44    41    1
     5    43    41    1
     6    41    36    1
     7     5     2    1
     8    37    35    1
     9     1     2   ar
    10     1     3   ar
    11     2     4   ar
    12    36    35   ar
    13    36    33   ar
    14    35    32   ar
    15    28    26    1
    16     9     3    1
    17     3     6   ar
    18     4    18    1
    19     4     7   ar
    20    23    21    1
    21    27    26    1
    22    18    21   ar
    23    18    16   ar
    24    21    22   ar
    25    24    16    1
    26    24    25    1
    27    16    17   ar
    28    22    26    1
    29    22    19   ar
    30    26    29    1
    31    17    19   ar
    32    17    20    1
    33    19    32    1
    34    32    30   ar
    35    33    38    1
    36    33    31   ar
    37     6     7   ar
    38     6     8    1
    39     7    12    1
    40    31    30   ar
    41    31    34    1
    42    30    39    1
    43    12    15    1
    44    12    14    1
    45    12    13    1
    46    39    40    1
