@<TRIPOS>MOLECULE
mol_data/opt/b3lyp/geoms/mol2/4gi4gi-4gi-.out
 44 46 0 0 0
SMALL
GASTEIGER

@<TRIPOS>ATOM
      1 C           0.0128    1.4395   -1.5541 C.ar    1  LIG1        0.0053
      2 C           1.4025    1.4318   -1.4004 C.ar    1  LIG1       -0.0406
      3 C          -0.7953    1.3417   -0.4178 C.ar    1  LIG1       -0.0483
      4 C           1.9900    1.3168   -0.1344 C.ar    1  LIG1       -0.0129
      5 H           2.0497    1.5148   -2.2685 H       1  LIG1        0.0635
      6 C          -0.2092    1.2414    0.8418 C.ar    1  LIG1       -0.0572
      7 C           1.1790    1.2227    1.0168 C.ar    1  LIG1       -0.0426
      8 H          -0.8510    1.1707    1.7161 H       1  LIG1        0.0621
      9 H          -1.8771    1.3395   -0.5136 H       1  LIG1        0.0629
     10 S          -0.7828    1.6014   -3.1498 S.3     1  LIG1       -0.1426
     11 H           0.3112    1.3677   -3.8999 H       1  LIG1        0.1071
     12 C           1.7782    1.1042    2.3975 C.3     1  LIG1       -0.0391
     13 H           1.0001    1.1470    3.1642 H       1  LIG1        0.0278
     14 H           2.4965    1.9062    2.5961 H       1  LIG1        0.0278
     15 H           2.3163    0.1571    2.5163 H       1  LIG1        0.0278
     16 C           4.2428    0.1537    0.0300 C.ar    1  LIG1        0.0130
     17 C           5.6376    0.2349    0.1068 C.ar    1  LIG1       -0.0400
     18 C           3.4844    1.3355   -0.0350 C.ar    1  LIG1       -0.0042
     19 C           6.2996    1.4667    0.1273 C.ar    1  LIG1       -0.0129
     20 H           6.2324   -0.6726    0.1508 H       1  LIG1        0.0635
     21 C           4.1628    2.5608   -0.0266 C.ar    1  LIG1       -0.0495
     22 C           5.5542    2.6623    0.0555 C.ar    1  LIG1       -0.0421
     23 H           3.5715    3.4709   -0.0869 H       1  LIG1        0.0627
     24 S           3.3884   -1.4205   -0.0170 S.3     1  LIG1       -0.1420
     25 H           4.4839   -2.1787    0.1849 H       1  LIG1        0.1071
     26 C           6.2251    4.0149    0.0593 C.3     1  LIG1       -0.0391
     27 H           5.4918    4.8133   -0.0811 H       1  LIG1        0.0278
     28 H           6.9724    4.0955   -0.7371 H       1  LIG1        0.0278
     29 H           6.7455    4.1976    1.0060 H       1  LIG1        0.0278
     30 C           8.4911    1.6396    1.3989 C.ar    1  LIG1        0.0125
     31 C           9.8919    1.6408    1.3957 C.ar    1  LIG1       -0.0477
     32 C           7.7962    1.4791    0.1857 C.ar    1  LIG1       -0.0042
     33 C          10.5974    1.4829    0.2069 C.ar    1  LIG1       -0.0578
     34 H          10.4371    1.7644    2.3270 H       1  LIG1        0.0629
     35 C           8.5343    1.3130   -0.9944 C.ar    1  LIG1       -0.0501
     36 C           9.9319    1.3102   -1.0131 C.ar    1  LIG1       -0.0498
     37 H           7.9874    1.1867   -1.9255 H       1  LIG1        0.0627
     38 H          11.6843    1.4918    0.2317 H       1  LIG1        0.0621
     39 S           7.5455    1.8167    2.9105 S.3     1  LIG1       -0.1420
     40 H           8.6073    2.0121    3.7169 H       1  LIG1        0.1071
     41 C          10.6986    1.1066   -2.2981 C.3     1  LIG1       -0.0397
     42 H          10.0665    1.2830   -3.1728 H       1  LIG1        0.0278
     43 H          11.0852    0.0827   -2.3739 H       1  LIG1        0.0278
     44 H          11.5589    1.7807   -2.3623 H       1  LIG1        0.0278
@<TRIPOS>BOND
     1    11    10    1
     2    42    41    1
     3    10     1    1
     4    43    41    1
     5    44    41    1
     6    41    36    1
     7     5     2    1
     8    37    35    1
     9     1     2   ar
    10     1     3   ar
    11     2     4   ar
    12    36    35   ar
    13    36    33   ar
    14    35    32   ar
    15    28    26    1
    16     9     3    1
    17     3     6   ar
    18     4    18    1
    19     4     7   ar
    20    23    21    1
    21    27    26    1
    22    18    21   ar
    23    18    16   ar
    24    21    22   ar
    25    24    16    1
    26    24    25    1
    27    16    17   ar
    28    22    26    1
    29    22    19   ar
    30    26    29    1
    31    17    19   ar
    32    17    20    1
    33    19    32    1
    34    32    30   ar
    35    33    38    1
    36    33    31   ar
    37     6     7   ar
    38     6     8    1
    39     7    12    1
    40    31    30   ar
    41    31    34    1
    42    30    39    1
    43    12    15    1
    44    12    14    1
    45    12    13    1
    46    39    40    1
