@<TRIPOS>MOLECULE
mol_data/opt/b3lyp/geoms/mol2/4gi4gi-4gi.out
 44 46 0 0 0
SMALL
GASTEIGER

@<TRIPOS>ATOM
      1 C          -0.0051    1.4560   -1.4920 C.ar    1  LIG1        0.0053
      2 C           1.3863    1.4477   -1.3550 C.ar    1  LIG1       -0.0406
      3 C          -0.7994    1.3403   -0.3477 C.ar    1  LIG1       -0.0483
      4 C           1.9890    1.3146   -0.0979 C.ar    1  LIG1       -0.0129
      5 H           2.0231    1.5443   -2.2294 H       1  LIG1        0.0635
      6 C          -0.1983    1.2218    0.9032 C.ar    1  LIG1       -0.0572
      7 C           1.1920    1.2022    1.0613 C.ar    1  LIG1       -0.0426
      8 H          -0.8294    1.1372    1.7840 H       1  LIG1        0.0621
      9 H          -1.8822    1.3383   -0.4306 H       1  LIG1        0.0629
     10 S          -0.8200    1.6405   -3.0755 S.3     1  LIG1       -0.1426
     11 H           0.2659    1.4227   -3.8419 H       1  LIG1        0.1071
     12 C           1.8078    1.0636    2.4328 C.3     1  LIG1       -0.0391
     13 H           1.0389    1.0950    3.2094 H       1  LIG1        0.0278
     14 H           2.5285    1.8627    2.6346 H       1  LIG1        0.0278
     15 H           2.3473    0.1149    2.5312 H       1  LIG1        0.0278
     16 C           4.2451    0.1521    0.0229 C.ar    1  LIG1        0.0130
     17 C           5.6405    0.2341    0.0845 C.ar    1  LIG1       -0.0400
     18 C           3.4845    1.3337   -0.0161 C.ar    1  LIG1       -0.0042
     19 C           6.3012    1.4664    0.1154 C.ar    1  LIG1       -0.0129
     20 H           6.2369   -0.6731    0.1084 H       1  LIG1        0.0635
     21 C           4.1615    2.5597    0.0022 C.ar    1  LIG1       -0.0495
     22 C           5.5537    2.6618    0.0695 C.ar    1  LIG1       -0.0421
     23 H           3.5685    3.4697   -0.0378 H       1  LIG1        0.0627
     24 S           3.3919   -1.4222   -0.0373 S.3     1  LIG1       -0.1420
     25 H           4.4906   -2.1819    0.1405 H       1  LIG1        0.1071
     26 C           6.2228    4.0152    0.0852 C.3     1  LIG1       -0.0391
     27 H           5.4870    4.8145   -0.0361 H       1  LIG1        0.0278
     28 H           6.9613    4.1080   -0.7180 H       1  LIG1        0.0278
     29 H           6.7531    4.1854    1.0286 H       1  LIG1        0.0278
     30 C           8.5068    1.6250    1.3647 C.ar    1  LIG1        0.0125
     31 C           9.9071    1.6295    1.3458 C.ar    1  LIG1       -0.0477
     32 C           7.7984    1.4800    0.1569 C.ar    1  LIG1       -0.0042
     33 C          10.5995    1.4897    0.1467 C.ar    1  LIG1       -0.0578
     34 H          10.4626    1.7421    2.2724 H       1  LIG1        0.0629
     35 C           8.5232    1.3317   -1.0333 C.ar    1  LIG1       -0.0501
     36 C           9.9210    1.3320   -1.0676 C.ar    1  LIG1       -0.0498
     37 H           7.9661    1.2178   -1.9599 H       1  LIG1        0.0627
     38 H          11.6866    1.5013    0.1593 H       1  LIG1        0.0621
     39 S           7.5775    1.7794    2.8888 S.3     1  LIG1       -0.1420
     40 H           8.6478    1.9652    3.6862 H       1  LIG1        0.1071
     41 C          10.6718    1.1432   -2.3641 C.3     1  LIG1       -0.0397
     42 H          10.0613    1.4289   -3.2254 H       1  LIG1        0.0278
     43 H          10.9658    0.0956   -2.5056 H       1  LIG1        0.0278
     44 H          11.5883    1.7410   -2.3866 H       1  LIG1        0.0278
@<TRIPOS>BOND
     1    11    10    1
     2    42    41    1
     3    10     1    1
     4    43    41    1
     5    44    41    1
     6    41    36    1
     7     5     2    1
     8    37    35    1
     9     1     2   ar
    10     1     3   ar
    11     2     4   ar
    12    36    35   ar
    13    36    33   ar
    14    35    32   ar
    15    28    26    1
    16     9     3    1
    17     3     6   ar
    18     4    18    1
    19     4     7   ar
    20    23    21    1
    21    24    16    1
    22    24    25    1
    23    27    26    1
    24    18    21   ar
    25    18    16   ar
    26    21    22   ar
    27    16    17   ar
    28    22    26    1
    29    22    19   ar
    30    17    20    1
    31    17    19   ar
    32    26    29    1
    33    19    32    1
    34    33    38    1
    35    33    31   ar
    36    32    30   ar
    37     6     7   ar
    38     6     8    1
    39     7    12    1
    40    31    30   ar
    41    31    34    1
    42    30    39    1
    43    12    15    1
    44    12    14    1
    45    12    13    1
    46    39    40    1
