@<TRIPOS>MOLECULE
mol_data/opt/b3lyp/geoms/mol2/4gi4gi4gi4gi-.out
 58 61 0 0 0
SMALL
GASTEIGER

@<TRIPOS>ATOM
      1 C          -0.1675    2.4205   -1.0049 C.ar    1  LIG1        0.0053
      2 C           1.2276    2.3725   -0.9239 C.ar    1  LIG1       -0.0406
      3 C          -0.9196    1.4658   -0.3145 C.ar    1  LIG1       -0.0483
      4 C           1.8751    1.3827   -0.1741 C.ar    1  LIG1       -0.0129
      5 H           1.8324    3.1081   -1.4459 H       1  LIG1        0.0635
      6 C          -0.2742    0.4902    0.4415 C.ar    1  LIG1       -0.0572
      7 C           1.1205    0.4201    0.5301 C.ar    1  LIG1       -0.0426
      8 H          -0.8731   -0.2417    0.9771 H       1  LIG1        0.0621
      9 H          -2.0043    1.4802   -0.3671 H       1  LIG1        0.0629
     10 S          -1.0414    3.6745   -1.9366 S.3     1  LIG1       -0.1426
     11 H           0.0285    4.1660   -2.5906 H       1  LIG1        0.1071
     12 C           1.7854   -0.6523    1.3593 C.3     1  LIG1       -0.0391
     13 H           1.0409   -1.2457    1.8966 H       1  LIG1        0.0278
     14 H           2.4740   -0.2237    2.0948 H       1  LIG1        0.0278
     15 H           2.3712   -1.3340    0.7329 H       1  LIG1        0.0278
     16 C           4.1615    0.5930   -0.9499 C.ar    1  LIG1        0.0130
     17 C           5.5555    0.6538   -0.8480 C.ar    1  LIG1       -0.0400
     18 C           3.3713    1.3967   -0.1097 C.ar    1  LIG1       -0.0042
     19 C           6.1864    1.4940    0.0749 C.ar    1  LIG1       -0.0129
     20 H           6.1740    0.0397   -1.4959 H       1  LIG1        0.0635
     21 C           4.0187    2.2443    0.7982 C.ar    1  LIG1       -0.0495
     22 C           5.4092    2.3158    0.9178 C.ar    1  LIG1       -0.0421
     23 H           3.4030    2.8711    1.4381 H       1  LIG1        0.0627
     24 S           3.3465   -0.4643   -2.1453 S.3     1  LIG1       -0.1420
     25 H           4.4687   -1.0671   -2.5848 H       1  LIG1        0.1071
     26 C           6.0460    3.2498    1.9188 C.3     1  LIG1       -0.0391
     27 H           5.2886    3.8570    2.4212 H       1  LIG1        0.0278
     28 H           6.7616    3.9261    1.4398 H       1  LIG1        0.0278
     29 H           6.5965    2.6942    2.6858 H       1  LIG1        0.0278
     30 C           8.4151    0.7562    1.0424 C.ar    1  LIG1        0.0130
     31 C           9.8130    0.8128    1.0283 C.ar    1  LIG1       -0.0400
     32 C           7.6830    1.5220    0.1182 C.ar    1  LIG1       -0.0042
     33 C          10.5038    1.6192    0.1182 C.ar    1  LIG1       -0.0129
     34 H          10.3873    0.2206    1.7346 H       1  LIG1        0.0635
     35 C           8.3897    2.3146   -0.7949 C.ar    1  LIG1       -0.0495
     36 C           9.7849    2.3887   -0.8204 C.ar    1  LIG1       -0.0421
     37 H           7.8185    2.8969   -1.5132 H       1  LIG1        0.0627
     38 S           7.5226   -0.2908    2.1902 S.3     1  LIG1       -0.1420
     39 H           8.6051   -0.6836    2.8898 H       1  LIG1        0.1071
     40 C          10.4878    3.2658   -1.8285 C.3     1  LIG1       -0.0391
     41 H           9.7689    3.7314   -2.5078 H       1  LIG1        0.0278
     42 H          11.2032    2.6949   -2.4297 H       1  LIG1        0.0278
     43 H          11.0514    4.0648   -1.3345 H       1  LIG1        0.0278
     44 C          12.7362    2.5880    0.8439 C.ar    1  LIG1        0.0125
     45 C          14.1355    2.5356    0.8333 C.ar    1  LIG1       -0.0477
     46 C          12.0015    1.6135    0.1422 C.ar    1  LIG1       -0.0042
     47 C          14.8011    1.5299    0.1384 C.ar    1  LIG1       -0.0578
     48 H          14.7113    3.2838    1.3704 H       1  LIG1        0.0629
     49 C          12.6991    0.6084   -0.5406 C.ar    1  LIG1       -0.0501
     50 C          14.0959    0.5420   -0.5587 C.ar    1  LIG1       -0.0498
     51 H          12.1218   -0.1404   -1.0774 H       1  LIG1        0.0627
     52 H          15.8881    1.5148    0.1422 H       1  LIG1        0.0621
     53 S          11.8396    3.8550    1.7393 S.3     1  LIG1       -0.1420
     54 H          12.9293    4.5399    2.1385 H       1  LIG1        0.1071
     55 C          14.8162   -0.5711   -1.2816 C.3     1  LIG1       -0.0397
     56 H          14.2156   -0.9683   -2.1051 H       1  LIG1        0.0278
     57 H          15.0367   -1.4075   -0.6066 H       1  LIG1        0.0278
     58 H          15.7701   -0.2283   -1.6939 H       1  LIG1        0.0278
@<TRIPOS>BOND
     1    11    10    1
     2    25    24    1
     3    41    40    1
     4    42    40    1
     5    24    16    1
     6    56    55    1
     7    10     1    1
     8    40    43    1
     9    40    36    1
    10    58    55    1
    11    37    35    1
    12    20    17    1
    13     5     2    1
    14    55    57    1
    15    55    50    1
    16    51    49    1
    17     1     2   ar
    18     1     3   ar
    19    16    17   ar
    20    16    18   ar
    21     2     4   ar
    22    17    19   ar
    23    36    35   ar
    24    36    33   ar
    25    35    32   ar
    26    50    49   ar
    27    50    47   ar
    28    49    46   ar
    29     9     3    1
    30     3     6   ar
    31     4    18    1
    32     4     7   ar
    33    18    21   ar
    34    19    32    1
    35    19    22   ar
    36    32    30   ar
    37    33    46    1
    38    33    31   ar
    39    47    52    1
    40    47    45   ar
    41    46    44   ar
    42     6     7   ar
    43     6     8    1
    44     7    12    1
    45    15    12    1
    46    21    22   ar
    47    21    23    1
    48    45    44   ar
    49    45    48    1
    50    44    53    1
    51    22    26    1
    52    31    30   ar
    53    31    34    1
    54    30    38    1
    55    12    13    1
    56    12    14    1
    57    28    26    1
    58    53    54    1
    59    26    27    1
    60    26    29    1
    61    38    39    1
