@<TRIPOS>MOLECULE
mol_data/opt/b3lyp/geoms/mol2/4gi4gi4gi4gi.out
 58 61 0 0 0
SMALL
GASTEIGER

@<TRIPOS>ATOM
      1 C          -0.1673    2.4520   -0.9732 C.ar    1  LIG1        0.0053
      2 C           1.2278    2.3994   -0.8959 C.ar    1  LIG1       -0.0406
      3 C          -0.9203    1.4897   -0.2943 C.ar    1  LIG1       -0.0483
      4 C           1.8745    1.3976   -0.1614 C.ar    1  LIG1       -0.0129
      5 H           1.8333    3.1407   -1.4089 H       1  LIG1        0.0635
      6 C          -0.2757    0.5021    0.4466 C.ar    1  LIG1       -0.0572
      7 C           1.1190    0.4273    0.5312 C.ar    1  LIG1       -0.0426
      8 H          -0.8754   -0.2356    0.9733 H       1  LIG1        0.0621
      9 H          -2.0050    1.5076   -0.3443 H       1  LIG1        0.0629
     10 S          -1.0399    3.7211   -1.8853 S.3     1  LIG1       -0.1426
     11 H           0.0296    4.2181   -2.5356 H       1  LIG1        0.1071
     12 C           1.7828   -0.6582    1.3438 C.3     1  LIG1       -0.0391
     13 H           1.0380   -1.2564    1.8754 H       1  LIG1        0.0278
     14 H           2.4750   -0.2418    2.0829 H       1  LIG1        0.0278
     15 H           2.3645   -1.3335    0.7066 H       1  LIG1        0.0278
     16 C           4.1573    0.6125   -0.9525 C.ar    1  LIG1        0.0130
     17 C           5.5517    0.6687   -0.8528 C.ar    1  LIG1       -0.0400
     18 C           3.3709    1.4070   -0.1001 C.ar    1  LIG1       -0.0042
     19 C           6.1867    1.4952    0.0797 C.ar    1  LIG1       -0.0129
     20 H           6.1673    0.0616   -1.5100 H       1  LIG1        0.0635
     21 C           4.0223    2.2412    0.8175 C.ar    1  LIG1       -0.0495
     22 C           5.4132    2.3078    0.9349 C.ar    1  LIG1       -0.0421
     23 H           3.4095    2.8611    1.4668 H       1  LIG1        0.0627
     24 S           3.3373   -0.4270   -2.1599 S.3     1  LIG1       -0.1420
     25 H           4.4571   -1.0265   -2.6098 H       1  LIG1        0.1071
     26 C           6.0544    3.2273    1.9464 C.3     1  LIG1       -0.0391
     27 H           5.2993    3.8286    2.4594 H       1  LIG1        0.0278
     28 H           6.7693    3.9092    1.4742 H       1  LIG1        0.0278
     29 H           6.6066    2.6608    2.7041 H       1  LIG1        0.0278
     30 C           8.4159    0.7409    1.0333 C.ar    1  LIG1        0.0130
     31 C           9.8139    0.7945    1.0165 C.ar    1  LIG1       -0.0400
     32 C           7.6833    1.5191    0.1199 C.ar    1  LIG1       -0.0042
     33 C          10.5044    1.6099    0.1143 C.ar    1  LIG1       -0.0129
     34 H          10.3885    0.1928    1.7145 H       1  LIG1        0.0635
     35 C           8.3898    2.3206   -0.7857 C.ar    1  LIG1       -0.0495
     36 C           9.7851    2.3919   -0.8137 C.ar    1  LIG1       -0.0421
     37 H           7.8182    2.9126   -1.4958 H       1  LIG1        0.0627
     38 S           7.5239   -0.3176    2.1709 S.3     1  LIG1       -0.1420
     39 H           8.6071   -0.7208    2.8633 H       1  LIG1        0.1071
     40 C          10.4875    3.2792   -1.8131 C.3     1  LIG1       -0.0391
     41 H           9.7683    3.7530   -2.4861 H       1  LIG1        0.0278
     42 H          11.2014    2.7141   -2.4215 H       1  LIG1        0.0278
     43 H          11.0528    4.0721   -1.3111 H       1  LIG1        0.0278
     44 C          12.7405    2.5650    0.8463 C.ar    1  LIG1        0.0125
     45 C          14.1397    2.5099    0.8317 C.ar    1  LIG1       -0.0477
     46 C          12.0021    1.6006    0.1346 C.ar    1  LIG1       -0.0042
     47 C          14.8015    1.5112    0.1230 C.ar    1  LIG1       -0.0578
     48 H          14.7184    3.2503    1.3764 H       1  LIG1        0.0629
     49 C          12.6960    0.6024   -0.5621 C.ar    1  LIG1       -0.0501
     50 C          14.0925    0.5334   -0.5843 C.ar    1  LIG1       -0.0498
     51 H          12.1159   -0.1385   -1.1066 H       1  LIG1        0.0627
     52 H          15.8885    1.4938    0.1240 H       1  LIG1        0.0621
     53 S          11.8487    3.8230    1.7592 S.3     1  LIG1       -0.1420
     54 H          12.9409    4.4998    2.1653 H       1  LIG1        0.1071
     55 C          14.8088   -0.5723   -1.3225 C.3     1  LIG1       -0.0397
     56 H          14.2038   -0.9609   -2.1468 H       1  LIG1        0.0278
     57 H          15.0328   -1.4156   -0.6572 H       1  LIG1        0.0278
     58 H          15.7606   -0.2254   -1.7363 H       1  LIG1        0.0278
@<TRIPOS>BOND
     1    25    24    1
     2    11    10    1
     3    41    40    1
     4    42    40    1
     5    24    16    1
     6    56    55    1
     7    10     1    1
     8    40    43    1
     9    40    36    1
    10    58    55    1
    11    20    17    1
    12    37    35    1
    13     5     2    1
    14    55    57    1
    15    55    50    1
    16    51    49    1
    17     1     2   ar
    18     1     3   ar
    19    16    17   ar
    20    16    18   ar
    21     2     4   ar
    22    17    19   ar
    23    36    35   ar
    24    36    33   ar
    25    35    32   ar
    26    50    49   ar
    27    50    47   ar
    28    49    46   ar
    29     9     3    1
    30     3     6   ar
    31     4    18    1
    32     4     7   ar
    33    18    21   ar
    34    19    32    1
    35    19    22   ar
    36    33    46    1
    37    33    31   ar
    38    32    30   ar
    39    47    52    1
    40    47    45   ar
    41    46    44   ar
    42     6     7   ar
    43     6     8    1
    44     7    12    1
    45    15    12    1
    46    21    22   ar
    47    21    23    1
    48    45    44   ar
    49    45    48    1
    50    44    53    1
    51    22    26    1
    52    31    30   ar
    53    31    34    1
    54    30    38    1
    55    12    13    1
    56    12    14    1
    57    28    26    1
    58    53    54    1
    59    26    27    1
    60    26    29    1
    61    38    39    1
