@<TRIPOS>MOLECULE
mol_data/opt/b3lyp/geoms/mol2/4gi4gi4gi.out
 44 46 0 0 0
SMALL
GASTEIGER

@<TRIPOS>ATOM
      1 C          -0.0017    1.4706   -1.5006 C.ar    1  LIG1        0.0053
      2 C           1.3893    1.4604   -1.3603 C.ar    1  LIG1       -0.0406
      3 C          -0.7989    1.3470   -0.3592 C.ar    1  LIG1       -0.0483
      4 C           1.9889    1.3177   -0.1029 C.ar    1  LIG1       -0.0129
      5 H           2.0282    1.5631   -2.2326 H       1  LIG1        0.0635
      6 C          -0.2008    1.2191    0.8922 C.ar    1  LIG1       -0.0572
      7 C           1.1890    1.1974    1.0536 C.ar    1  LIG1       -0.0426
      8 H          -0.8342    1.1284    1.7709 H       1  LIG1        0.0621
      9 H          -1.8815    1.3463   -0.4447 H       1  LIG1        0.0629
     10 S          -0.8126    1.6673   -3.0847 S.3     1  LIG1       -0.1426
     11 H           0.2744    1.4518   -3.8502 H       1  LIG1        0.1071
     12 C           1.8015    1.0485    2.4255 C.3     1  LIG1       -0.0391
     13 H           1.0306    1.0728    3.2003 H       1  LIG1        0.0278
     14 H           2.5206    1.8469    2.6355 H       1  LIG1        0.0278
     15 H           2.3419    0.0998    2.5177 H       1  LIG1        0.0278
     16 C           4.2438    0.1527    0.0141 C.ar    1  LIG1        0.0130
     17 C           5.6391    0.2332    0.0793 C.ar    1  LIG1       -0.0400
     18 C           3.4842    1.3352   -0.0174 C.ar    1  LIG1       -0.0042
     19 C           6.3007    1.4646    0.1210 C.ar    1  LIG1       -0.0129
     20 H           6.2348   -0.6747    0.0973 H       1  LIG1        0.0635
     21 C           4.1621    2.5605    0.0119 C.ar    1  LIG1       -0.0495
     22 C           5.5542    2.6610    0.0829 C.ar    1  LIG1       -0.0421
     23 H           3.5699    3.4712   -0.0225 H       1  LIG1        0.0627
     24 S           3.3896   -1.4205   -0.0599 S.3     1  LIG1       -0.1420
     25 H           4.4873   -2.1823    0.1152 H       1  LIG1        0.1071
     26 C           6.2244    4.0137    0.1104 C.3     1  LIG1       -0.0391
     27 H           5.4895    4.8145   -0.0051 H       1  LIG1        0.0278
     28 H           6.9640    4.1124   -0.6911 H       1  LIG1        0.0278
     29 H           6.7539    4.1756    1.0558 H       1  LIG1        0.0278
     30 C           8.5044    1.6108    1.3748 C.ar    1  LIG1        0.0125
     31 C           9.9052    1.6128    1.3582 C.ar    1  LIG1       -0.0477
     32 C           7.7979    1.4767    0.1652 C.ar    1  LIG1       -0.0042
     33 C          10.5991    1.4815    0.1595 C.ar    1  LIG1       -0.0578
     34 H          10.4592    1.7161    2.2867 H       1  LIG1        0.0629
     35 C           8.5246    1.3370   -1.0253 C.ar    1  LIG1       -0.0501
     36 C           9.9220    1.3355   -1.0575 C.ar    1  LIG1       -0.0498
     37 H           7.9688    1.2310   -1.9536 H       1  LIG1        0.0627
     38 H          11.6862    1.4905    0.1741 H       1  LIG1        0.0621
     39 S           7.5735    1.7538    2.8991 S.3     1  LIG1       -0.1420
     40 H           8.6430    1.9317    3.6993 H       1  LIG1        0.1071
     41 C          10.6764    1.1612   -2.3541 C.3     1  LIG1       -0.0397
     42 H          10.0327    1.3452   -3.2187 H       1  LIG1        0.0278
     43 H          11.0731    0.1430   -2.4509 H       1  LIG1        0.0278
     44 H          11.5287    1.8456   -2.4166 H       1  LIG1        0.0278
@<TRIPOS>BOND
     1    11    10    1
     2    42    41    1
     3    10     1    1
     4    43    41    1
     5    44    41    1
     6    41    36    1
     7     5     2    1
     8    37    35    1
     9     1     2   ar
    10     1     3   ar
    11     2     4   ar
    12    36    35   ar
    13    36    33   ar
    14    35    32   ar
    15    28    26    1
    16     9     3    1
    17     3     6   ar
    18     4    18    1
    19     4     7   ar
    20    24    16    1
    21    24    25    1
    22    23    21    1
    23    18    21   ar
    24    18    16   ar
    25    27    26    1
    26    21    22   ar
    27    16    17   ar
    28    17    20    1
    29    17    19   ar
    30    22    26    1
    31    22    19   ar
    32    26    29    1
    33    19    32    1
    34    33    38    1
    35    33    31   ar
    36    32    30   ar
    37     6     7   ar
    38     6     8    1
    39     7    12    1
    40    31    30   ar
    41    31    34    1
    42    30    39    1
    43    12    15    1
    44    12    14    1
    45    12    13    1
    46    39    40    1
