@<TRIPOS>MOLECULE
mol_data/opt/b3lyp/geoms/mol2/4gi4gi-4gi-4gi-.out
 58 61 0 0 0
SMALL
GASTEIGER

@<TRIPOS>ATOM
      1 C          -0.1654    2.4562   -0.9906 C.ar    1  LIG1        0.0053
      2 C           1.2296    2.4009   -0.9139 C.ar    1  LIG1       -0.0406
      3 C          -0.9205    1.5073   -0.2954 C.ar    1  LIG1       -0.0483
      4 C           1.8741    1.4097   -0.1634 C.ar    1  LIG1       -0.0129
      5 H           1.8368    3.1318   -1.4398 H       1  LIG1        0.0635
      6 C          -0.2780    0.5300    0.4607 C.ar    1  LIG1       -0.0572
      7 C           1.1167    0.4528    0.5454 C.ar    1  LIG1       -0.0426
      8 H          -0.8792   -0.1975    0.9998 H       1  LIG1        0.0621
      9 H          -2.0052    1.5277   -0.3444 H       1  LIG1        0.0629
     10 S          -1.0355    3.7118   -1.9237 S.3     1  LIG1       -0.1426
     11 H           0.0371    4.2043   -2.5724 H       1  LIG1        0.1071
     12 C           1.7784   -0.6211    1.3751 C.3     1  LIG1       -0.0391
     13 H           1.0322   -1.2122    1.9126 H       1  LIG1        0.0278
     14 H           2.4679   -0.1941    2.1107 H       1  LIG1        0.0278
     15 H           2.3626   -1.3047    0.7493 H       1  LIG1        0.0278
     16 C           4.1544    0.6079   -0.9450 C.ar    1  LIG1        0.0130
     17 C           5.5490    0.6617   -0.8468 C.ar    1  LIG1       -0.0400
     18 C           3.3706    1.4159   -0.1030 C.ar    1  LIG1       -0.0042
     19 C           6.1867    1.4990    0.0741 C.ar    1  LIG1       -0.0129
     20 H           6.1626    0.0442   -1.4961 H       1  LIG1        0.0635
     21 C           4.0247    2.2606    0.8029 C.ar    1  LIG1       -0.0495
     22 C           5.4159    2.3251    0.9188 C.ar    1  LIG1       -0.0421
     23 H           3.4139    2.8909    1.4440 H       1  LIG1        0.0627
     24 S           3.3309   -0.4462   -2.1373 S.3     1  LIG1       -0.1420
     25 H           4.4490   -1.0541   -2.5802 H       1  LIG1        0.1071
     26 C           6.0599    3.2564    1.9175 C.3     1  LIG1       -0.0391
     27 H           5.3071    3.8704    2.4187 H       1  LIG1        0.0278
     28 H           6.7806    3.9262    1.4370 H       1  LIG1        0.0278
     29 H           6.6061    2.6982    2.6858 H       1  LIG1        0.0278
     30 C           8.4148    0.7543    1.0383 C.ar    1  LIG1        0.0130
     31 C           9.8129    0.8039    1.0195 C.ar    1  LIG1       -0.0400
     32 C           7.6834    1.5195    0.1130 C.ar    1  LIG1       -0.0042
     33 C          10.5048    1.6028    0.1037 C.ar    1  LIG1       -0.0129
     34 H          10.3865    0.2120    1.7266 H       1  LIG1        0.0635
     35 C           8.3913    2.3043   -0.8061 C.ar    1  LIG1       -0.0495
     36 C           9.7868    2.3715   -0.8363 C.ar    1  LIG1       -0.0421
     37 H           7.8207    2.8862   -1.5253 H       1  LIG1        0.0627
     38 S           7.5211   -0.2838    2.1933 S.3     1  LIG1       -0.1420
     39 H           8.6039   -0.6779    2.8917 H       1  LIG1        0.1071
     40 C          10.4906    3.2409   -1.8503 C.3     1  LIG1       -0.0391
     41 H           9.7722    3.7029   -2.5324 H       1  LIG1        0.0278
     42 H          11.2052    2.6652   -2.4478 H       1  LIG1        0.0278
     43 H          11.0552    4.0425   -1.3616 H       1  LIG1        0.0278
     44 C          12.7442    2.5640    0.8177 C.ar    1  LIG1        0.0125
     45 C          14.1432    2.5047    0.8028 C.ar    1  LIG1       -0.0477
     46 C          12.0025    1.5899    0.1230 C.ar    1  LIG1       -0.0042
     47 C          14.8016    1.4926    0.1104 C.ar    1  LIG1       -0.0578
     48 H          14.7245    3.2524    1.3347 H       1  LIG1        0.0629
     49 C          12.6930    0.5782   -0.5575 C.ar    1  LIG1       -0.0501
     50 C          14.0893    0.5050   -0.5799 C.ar    1  LIG1       -0.0498
     51 H          12.1103   -0.1702   -1.0889 H       1  LIG1        0.0627
     52 H          15.8886    1.4722    0.1108 H       1  LIG1        0.0621
     53 S          11.8569    3.8394    1.7103 S.3     1  LIG1       -0.1420
     54 H          12.9512    4.5210    2.1023 H       1  LIG1        0.1071
     55 C          14.8022   -0.6145   -1.3003 C.3     1  LIG1       -0.0397
     56 H          14.1882   -1.0270   -2.1061 H       1  LIG1        0.0278
     57 H          15.0410   -1.4395   -0.6175 H       1  LIG1        0.0278
     58 H          15.7460   -0.2724   -1.7360 H       1  LIG1        0.0278
@<TRIPOS>BOND
     1    25    24    1
     2    11    10    1
     3    41    40    1
     4    42    40    1
     5    24    16    1
     6    56    55    1
     7    10     1    1
     8    40    43    1
     9    40    36    1
    10    58    55    1
    11    37    35    1
    12    20    17    1
    13     5     2    1
    14    55    57    1
    15    55    50    1
    16    51    49    1
    17     1     2   ar
    18     1     3   ar
    19    16    17   ar
    20    16    18   ar
    21     2     4   ar
    22    17    19   ar
    23    36    35   ar
    24    36    33   ar
    25    35    32   ar
    26    50    49   ar
    27    50    47   ar
    28    49    46   ar
    29     9     3    1
    30     3     6   ar
    31     4    18    1
    32     4     7   ar
    33    18    21   ar
    34    19    32    1
    35    19    22   ar
    36    33    46    1
    37    33    31   ar
    38    47    52    1
    39    47    45   ar
    40    32    30   ar
    41    46    44   ar
    42     6     7   ar
    43     6     8    1
    44     7    12    1
    45    15    12    1
    46    45    44   ar
    47    45    48    1
    48    21    22   ar
    49    21    23    1
    50    44    53    1
    51    22    26    1
    52    31    30   ar
    53    31    34    1
    54    30    38    1
    55    12    13    1
    56    12    14    1
    57    28    26    1
    58    53    54    1
    59    26    27    1
    60    26    29    1
    61    38    39    1
