@<TRIPOS>MOLECULE
mol_data/opt/b3lyp/geoms/mol2/4gl.out
 17 17 0 0 0
SMALL
GASTEIGER

@<TRIPOS>ATOM
      1 C           0.0370    0.0096    0.0004 C.ar    1  LIG1        0.0050
      2 C           1.4301   -0.0654    0.0001 C.ar    1  LIG1       -0.0451
      3 C          -0.5725    1.2742    0.0003 C.ar    1  LIG1       -0.0451
      4 C           2.2118    1.0940   -0.0004 C.ar    1  LIG1       -0.0189
      5 H           1.9277   -1.0309    0.0001 H       1  LIG1        0.0630
      6 C           0.1972    2.4285   -0.0002 C.ar    1  LIG1       -0.0189
      7 C           1.5974    2.3494   -0.0006 C.ar    1  LIG1        0.1202
      8 H          -0.2671    3.4091   -0.0003 H       1  LIG1        0.0654
      9 H           3.2905    0.9980   -0.0007 H       1  LIG1        0.0654
     10 H          -1.6558    1.3560    0.0006 H       1  LIG1        0.0630
     11 S          -1.0246   -1.4344    0.0010 S.3     1  LIG1       -0.1426
     12 H          -0.0423   -2.3557    0.0011 H       1  LIG1        0.1071
     13 O           2.2603    3.5447   -0.0010 O.3     1  LIG1       -0.4951
     14 C           3.6784    3.5223   -0.0014 C.3     1  LIG1        0.0788
     15 H           3.9970    4.5657   -0.0018 H       1  LIG1        0.0660
     16 H           4.0768    3.0246    0.8923 H       1  LIG1        0.0660
     17 H           4.0762    3.0242   -0.8951 H       1  LIG1        0.0660
@<TRIPOS>BOND
     1    17    14    1
     2    15    14    1
     3    14    13    1
     4    14    16    1
     5    13     7    1
     6     9     4    1
     7     7     4   ar
     8     7     6   ar
     9     4     2   ar
    10     8     6    1
    11     6     3   ar
    12     2     5    1
    13     2     1   ar
    14     3     1   ar
    15     3    10    1
    16     1    11    1
    17    11    12    1
