@<TRIPOS>MOLECULE
mol_data/opt/b3lyp/geoms/mol2/4ha12hl6hl12df.out
 51 54 0 0 0
SMALL
GASTEIGER

@<TRIPOS>ATOM
      1 C          -0.2765   -0.1657   -0.2104 C.ar    1  LIG1        0.0252
      2 C           1.1144   -0.1005   -0.0394 C.ar    1  LIG1       -0.0303
      3 C          -0.9510    0.9507   -0.7343 C.ar    1  LIG1       -0.0410
      4 C           1.8352    1.0560   -0.3884 C.ar    1  LIG1        0.0210
      5 H           1.6279   -0.9358    0.4283 H       1  LIG1        0.0643
      6 C          -0.2383    2.1005   -1.0668 C.ar    1  LIG1       -0.0594
      7 C           1.1422    2.1682   -0.9044 C.ar    1  LIG1       -0.0509
      8 H          -0.7719    2.9562   -1.4711 H       1  LIG1        0.0618
      9 H          -2.0291    0.9154   -0.8662 H       1  LIG1        0.0636
     10 N          -0.9871   -1.2935    0.2026 N.pl3   1  LIG1       -0.3579
     11 H          -1.8860   -1.4225   -0.2404 H       1  LIG1        0.1423
     12 H          -0.4560   -2.1522    0.2390 H       1  LIG1        0.1423
     13 H           1.6887    3.0590   -1.1917 H       1  LIG1        0.0625
     14 C           3.2772    1.0897   -0.2244 C.ar    1  LIG1        0.1600
     15 C           4.2529    0.1182   -0.1739 C.ar    1  LIG1        0.1139
     16 C           5.4976    0.8054   -0.0307 C.ar    1  LIG1        0.1871
     17 C           5.2405    2.1600   -0.0100 C.ar    1  LIG1        0.1824
     18 O           3.8862    2.3305   -0.1348 O.2     1  LIG1       -0.4490
     19 N           4.1379   -1.2730   -0.2302 N.pl3   1  LIG1       -0.3522
     20 H           3.3487   -1.5836   -0.7855 H       1  LIG1        0.1425
     21 H           4.9960   -1.6933   -0.5723 H       1  LIG1        0.1425
     22 O           6.7158    0.1774    0.0245 O.3     1  LIG1       -0.4896
     23 C           7.0697   -0.2776    1.3426 C.3     1  LIG1        0.0791
     24 H           8.0257   -0.7952    1.2435 H       1  LIG1        0.0660
     25 H           7.1772    0.5686    2.0299 H       1  LIG1        0.0660
     26 H           6.3148   -0.9685    1.7342 H       1  LIG1        0.0660
     27 C           5.6447    4.6263    0.4677 C.ar    1  LIG1        0.1281
     28 C           6.1008    3.3250    0.0895 C.ar    1  LIG1        0.0640
     29 C           7.4708    3.1858   -0.1801 C.ar    1  LIG1       -0.0036
     30 C           8.3304    4.2767   -0.0914 C.ar    1  LIG1        0.1498
     31 C           7.7757    5.5317    0.2351 C.ar    1  LIG1        0.1509
     32 N           6.4709    5.6729    0.5136 N.ar    1  LIG1       -0.2249
     33 H           7.8467    2.2088   -0.4542 H       1  LIG1        0.0663
     34 N           4.3474    4.8773    0.8538 N.pl3   1  LIG1       -0.3426
     35 H           4.1173    5.8581    0.9079 H       1  LIG1        0.1437
     36 H           3.6237    4.2466    0.5499 H       1  LIG1        0.1437
     37 O           9.6762    4.2178   -0.2783 O.3     1  LIG1       -0.4928
     38 C          10.2338    3.0703   -0.9045 C.3     1  LIG1        0.0789
     39 H          11.2729    3.3248   -1.1124 H       1  LIG1        0.0660
     40 H          10.1898    2.1930   -0.2465 H       1  LIG1        0.0660
     41 H           9.7225    2.8430   -1.8473 H       1  LIG1        0.0660
     42 C           8.5810    6.7518    0.3118 C.ar    1  LIG1        0.1776
     43 C           9.7447    7.2111   -0.2958 C.ar    1  LIG1        0.1404
     44 C           9.9556    8.5445    0.2044 C.ar    1  LIG1        0.1729
     45 C           8.9316    8.8056    1.0639 C.ar    1  LIG1        0.1353
     46 O           8.0977    7.7222    1.1258 O.2     1  LIG1       -0.4562
     47 H           8.6682    9.6524    1.6766 H       1  LIG1        0.1068
     48 N          11.2581    6.1898   -2.1202 N.1     1  LIG1       -0.1906
     49 C          10.5604    6.6105   -1.2884 C.1     1  LIG1        0.1067
     50 O          11.0083    9.3058   -0.1817 O.3     1  LIG1       -0.5028
     51 H          10.9527   10.1713    0.2435 H       1  LIG1        0.2923
@<TRIPOS>BOND
     1    48    49    3
     2    41    38    1
     3     8     6    1
     4    49    43    1
     5    13     7    1
     6    39    38    1
     7     6     7   ar
     8     6     3   ar
     9    38    37    1
    10    38    40    1
    11     7     4   ar
    12     9     3    1
    13    20    19    1
    14     3     1   ar
    15    21    19    1
    16    33    29    1
    17     4    14    1
    18     4     2   ar
    19    43    44   ar
    20    43    42   ar
    21    37    30    1
    22    11    10    1
    23    19    15    1
    24    14    15   ar
    25    14    18   ar
    26     1     2   ar
    27     1    10    1
    28    50    44    1
    29    50    51    1
    30    29    30   ar
    31    29    28   ar
    32    15    16   ar
    33    18    17   ar
    34    30    31   ar
    35     2     5    1
    36    16    17   ar
    37    16    22    1
    38    17    28    1
    39    22    23    1
    40    28    27   ar
    41    10    12    1
    42    44    45   ar
    43    31    42    1
    44    31    32   ar
    45    42    46   ar
    46    27    32   ar
    47    27    34    1
    48    36    34    1
    49    34    35    1
    50    45    46   ar
    51    45    47    1
    52    24    23    1
    53    23    26    1
    54    23    25    1
