@<TRIPOS>MOLECULE
mol_data/opt/b3lyp/geoms/mol2/4ha6ld6ia12fl-.out
 52 55 0 0 0
SMALL
GASTEIGER

@<TRIPOS>ATOM
      1 C          -0.1485   -0.0142   -0.3308 C.ar    1  LIG1        0.0251
      2 C           1.2509    0.0814   -0.2885 C.ar    1  LIG1       -0.0332
      3 C          -0.9097    1.1220   -0.0099 C.ar    1  LIG1       -0.0410
      4 C           1.8915    1.2783    0.0622 C.ar    1  LIG1       -0.0110
      5 H           1.8469   -0.7879   -0.5546 H       1  LIG1        0.0642
      6 C          -0.2754    2.3120    0.3354 C.ar    1  LIG1       -0.0594
      7 C           1.1142    2.4061    0.3715 C.ar    1  LIG1       -0.0537
      8 H          -0.8775    3.1821    0.5813 H       1  LIG1        0.0618
      9 H          -1.9950    1.0663   -0.0344 H       1  LIG1        0.0636
     10 N          -0.7685   -1.2267   -0.6346 N.pl3   1  LIG1       -0.3579
     11 H          -1.7102   -1.1500   -0.9935 H       1  LIG1        0.1423
     12 H          -0.2113   -1.8728   -1.1763 H       1  LIG1        0.1423
     13 H           1.5932    3.3386    0.6410 H       1  LIG1        0.0624
     14 C           4.1820    2.3691   -0.3484 C.ar    1  LIG1        0.2230
     15 C           3.3744    1.3040    0.1434 C.ar    1  LIG1        0.0450
     16 C           4.0788    0.2513    0.7113 C.ar    1  LIG1       -0.0295
     17 C           5.4861    0.2517    0.7728 C.ar    1  LIG1        0.0785
     18 C           6.1834    1.3555    0.2365 C.ar    1  LIG1        0.0938
     19 N           5.5070    2.3854   -0.3012 N.ar    1  LIG1       -0.2110
     20 H           3.5347   -0.5828    1.1411 H       1  LIG1        0.0639
     21 O           3.5479    3.4101   -0.9183 O.3     1  LIG1       -0.4792
     22 C           4.3499    4.4675   -1.4600 C.3     1  LIG1        0.0804
     23 H           3.6385    5.1603   -1.9099 H       1  LIG1        0.0660
     24 H           4.9218    4.9678   -0.6742 H       1  LIG1        0.0660
     25 H           5.0441    4.0866   -2.2128 H       1  LIG1        0.0660
     26 N           6.6502   -1.7545    1.9350 N.1     1  LIG1       -0.1908
     27 C           6.1476   -0.8441    1.4114 C.1     1  LIG1        0.1013
     28 C           8.3870    2.5799    0.6215 C.ar    1  LIG1        0.0482
     29 C           7.6657    1.4282    0.2129 C.ar    1  LIG1        0.0228
     30 C           8.4088    0.3376   -0.2578 C.ar    1  LIG1       -0.0487
     31 C           9.7924    0.4013   -0.3113 C.ar    1  LIG1       -0.0319
     32 C          10.4252    1.5736    0.1404 C.ar    1  LIG1        0.1101
     33 N           9.7217    2.6308    0.5907 N.ar    1  LIG1       -0.2480
     34 H           7.8988   -0.5516   -0.6131 H       1  LIG1        0.0625
     35 C           7.7159    3.8213    1.1565 C.3     1  LIG1       -0.0217
     36 H           6.9034    3.5818    1.8482 H       1  LIG1        0.0293
     37 H           7.2795    4.4068    0.3420 H       1  LIG1        0.0293
     38 H           8.4645    4.4291    1.6661 H       1  LIG1        0.0293
     39 H          10.3621   -0.4122   -0.7477 H       1  LIG1        0.0640
     40 C          11.8737    1.6828    0.1439 C.ar    1  LIG1        0.1979
     41 C          12.8755    0.7341    0.1396 C.ar    1  LIG1        0.2069
     42 C          14.1221    1.4431    0.1570 C.ar    1  LIG1        0.2002
     43 C          13.7922    2.7695    0.1821 C.ar    1  LIG1        0.1380
     44 O          12.4445    2.9301    0.1985 O.2     1  LIG1       -0.4538
     45 H          14.3920    3.6645    0.2174 H       1  LIG1        0.1069
     46 O          12.7826   -0.6268    0.1452 O.3     1  LIG1       -0.5008
     47 H          11.9349   -0.8833    0.5349 H       1  LIG1        0.2924
     48 O          15.3823    0.9366    0.2270 O.3     1  LIG1       -0.4888
     49 C          15.7159   -0.0131   -0.7921 C.3     1  LIG1        0.0791
     50 H          16.7490   -0.3088   -0.6018 H       1  LIG1        0.0660
     51 H          15.0678   -0.8932   -0.7464 H       1  LIG1        0.0660
     52 H          15.6449    0.4415   -1.7882 H       1  LIG1        0.0660
@<TRIPOS>BOND
     1    25    22    1
     2    23    22    1
     3    52    49    1
     4    22    21    1
     5    22    24    1
     6    12    10    1
     7    11    10    1
     8    21    14    1
     9    49    51    1
    10    49    50    1
    11    49    48    1
    12    39    31    1
    13    10     1    1
    14    34    30    1
    15     5     2    1
    16    14    19   ar
    17    14    15   ar
    18     1     2   ar
    19     1     3   ar
    20    31    30   ar
    21    31    32   ar
    22    19    18   ar
    23     2     4   ar
    24    30    29   ar
    25     9     3    1
    26     3     6   ar
    27     4    15    1
    28     4     7   ar
    29    41    40   ar
    30    41    46    1
    31    41    42   ar
    32    32    40    1
    33    32    33   ar
    34    15    16   ar
    35    40    44   ar
    36    46    47    1
    37    42    43   ar
    38    42    48    1
    39    43    44   ar
    40    43    45    1
    41    29    18    1
    42    29    28   ar
    43    18    17   ar
    44     6     7   ar
    45     6     8    1
    46    37    35    1
    47     7    13    1
    48    33    28   ar
    49    28    35    1
    50    16    17   ar
    51    16    20    1
    52    17    27    1
    53    35    38    1
    54    35    36    1
    55    27    26    3
