@<TRIPOS>MOLECULE
mol_data/opt/b3lyp/geoms/mol2/4hd.out
 15 15 0 0 0
SMALL
GASTEIGER

@<TRIPOS>ATOM
      1 C           0.0826    0.0390   -0.0666 C.ar    1  LIG1        0.0246
      2 C           1.4916    0.0366   -0.0459 C.ar    1  LIG1       -0.0398
      3 C          -0.5894    1.2775   -0.0482 C.ar    1  LIG1       -0.0398
      4 C           2.2006    1.2268   -0.0085 C.ar    1  LIG1       -0.0426
      5 H           2.0252   -0.9099   -0.0557 H       1  LIG1        0.0636
      6 C           0.1206    2.4672   -0.0108 C.ar    1  LIG1       -0.0426
      7 C           1.5269    2.4613    0.0086 C.ar    1  LIG1        0.0519
      8 H          -0.4097    3.4136    0.0010 H       1  LIG1        0.0631
      9 H           3.2853    1.2102    0.0050 H       1  LIG1        0.0631
     10 H          -1.6757    1.2970   -0.0598 H       1  LIG1        0.0636
     11 N          -0.6256   -1.1487   -0.0535 N.pl3   1  LIG1       -0.3580
     12 H          -1.5860   -1.1114   -0.3617 H       1  LIG1        0.1423
     13 H          -0.1357   -1.9761   -0.3601 H       1  LIG1        0.1423
     14 N           2.8549    4.6897    0.0699 N.1     1  LIG1       -0.1909
     15 C           2.2592    3.6894    0.0427 C.1     1  LIG1        0.0992
@<TRIPOS>BOND
     1    12    11    1
     2    13    11    1
     3     1    11    1
     4     1     3   ar
     5     1     2   ar
     6    10     3    1
     7     5     2    1
     8     3     6   ar
     9     2     4   ar
    10     6     8    1
    11     6     7   ar
    12     4     9    1
    13     4     7   ar
    14     7    15    1
    15    15    14    3
