@<TRIPOS>MOLECULE
mol_data/opt/b3lyp/geoms/mol2/4hd13ai-12li-6lf.out
 54 57 0 0 0
SMALL
GASTEIGER

@<TRIPOS>ATOM
      1 C          -0.0377   -0.1216   -0.0896 C.ar    1  LIG1        0.0252
      2 C           1.3548   -0.0186    0.0010 C.ar    1  LIG1       -0.0307
      3 C          -0.7908    1.0277   -0.4107 C.ar    1  LIG1       -0.0398
      4 C           2.0473    1.1828   -0.2275 C.ar    1  LIG1        0.0174
      5 H           1.9188   -0.9013    0.2818 H       1  LIG1        0.0643
      6 C          -0.1390    2.2248   -0.6287 C.ar    1  LIG1       -0.0420
      7 C           1.2641    2.3310   -0.5481 C.ar    1  LIG1        0.0610
      8 H          -0.7107    3.1134   -0.8757 H       1  LIG1        0.0631
      9 H          -1.8733    0.9713   -0.4745 H       1  LIG1        0.0636
     10 N          -0.6752   -1.3182    0.1931 N.pl3   1  LIG1       -0.3579
     11 H          -1.6084   -1.4296   -0.1753 H       1  LIG1        0.1423
     12 H          -0.1161   -2.1559    0.1247 H       1  LIG1        0.1423
     13 N           2.2625    4.6781   -1.0083 N.1     1  LIG1       -0.1908
     14 C           1.8290    3.6139   -0.8054 C.1     1  LIG1        0.0998
     15 C           3.5022    1.1681   -0.1305 C.ar    1  LIG1        0.0485
     16 C           4.3593    0.0668   -0.0508 C.ar    1  LIG1       -0.0328
     17 C           5.6906    0.5140    0.0437 C.ar    1  LIG1       -0.0215
     18 C           5.6349    1.9172    0.0229 C.ar    1  LIG1        0.0892
     19 N           4.3124    2.2814   -0.0882 N.ar    1  LIG1       -0.3514
     20 H           4.0121    3.2463   -0.1240 H       1  LIG1        0.1660
     21 H           4.0615   -0.9718   -0.0819 H       1  LIG1        0.0642
     22 C           6.8965   -0.3765    0.1163 C.3     1  LIG1       -0.0376
     23 H           7.5672   -0.0922    0.9295 H       1  LIG1        0.0278
     24 H           7.4834   -0.3448   -0.8105 H       1  LIG1        0.0278
     25 H           6.5870   -1.4146    0.2679 H       1  LIG1        0.0278
     26 C           6.6315    2.9569    0.0890 C.ar    1  LIG1        0.1936
     27 C           7.9863    3.0503    0.3374 C.ar    1  LIG1        0.1706
     28 C           8.3454    4.4372    0.3137 C.ar    1  LIG1        0.0379
     29 C           7.1786    5.1177    0.0456 C.ar    1  LIG1        0.1475
     30 O           6.1470    4.2256   -0.0888 O.2     1  LIG1       -0.4491
     31 O           8.8298    2.0193    0.6538 O.3     1  LIG1       -0.4910
     32 C           9.7855    1.6955   -0.3602 C.3     1  LIG1        0.0790
     33 H          10.3782    0.8651    0.0286 H       1  LIG1        0.0660
     34 H           9.2875    1.3870   -1.2871 H       1  LIG1        0.0660
     35 H          10.4487    2.5408   -0.5765 H       1  LIG1        0.0660
     36 C           9.7040    4.9840    0.6319 C.3     1  LIG1       -0.0326
     37 H           9.6363    5.9833    1.0701 H       1  LIG1        0.0280
     38 H          10.3472    5.0582   -0.2542 H       1  LIG1        0.0280
     39 H          10.2099    4.3292    1.3480 H       1  LIG1        0.0280
     40 C           5.6615    7.1392    0.2952 C.ar    1  LIG1        0.2256
     41 C           6.8856    6.5355   -0.1237 C.ar    1  LIG1        0.0825
     42 C           7.8293    7.3829   -0.7066 C.ar    1  LIG1       -0.0029
     43 C           7.5613    8.7478   -0.8494 C.ar    1  LIG1        0.1358
     44 C           6.3289    9.2211   -0.4157 C.ar    1  LIG1        0.0728
     45 N           5.4027    8.4280    0.1437 N.ar    1  LIG1       -0.2171
     46 H           8.7676    6.9913   -1.0817 H       1  LIG1        0.0663
     47 H           6.0690   10.2754   -0.5186 H       1  LIG1        0.0868
     48 O           4.7454    6.3466    0.8901 O.3     1  LIG1       -0.4792
     49 C           3.5029    6.9530    1.2591 C.3     1  LIG1        0.0804
     50 H           2.9165    6.1511    1.7071 H       1  LIG1        0.0660
     51 H           3.6602    7.7645    1.9757 H       1  LIG1        0.0660
     52 H           2.9848    7.3444    0.3809 H       1  LIG1        0.0660
     53 O           8.5208    9.5372   -1.4259 O.3     1  LIG1       -0.5052
     54 H           8.1861   10.4418   -1.4870 H       1  LIG1        0.2922
@<TRIPOS>BOND
     1    54    53    1
     2    53    43    1
     3    34    32    1
     4    46    42    1
     5    13    14    3
     6     8     6    1
     7    43    42   ar
     8    43    44   ar
     9    24    22    1
    10    14     7    1
    11    42    41   ar
    12     6     7   ar
    13     6     3   ar
    14    35    32    1
    15     7     4   ar
    16    47    44    1
    17     9     3    1
    18    44    45   ar
    19     3     1   ar
    20    32    33    1
    21    32    31    1
    22    38    36    1
    23     4    15    1
    24     4     2   ar
    25    11    10    1
    26    15    19   ar
    27    15    16   ar
    28    20    19    1
    29    41    29    1
    30    41    40   ar
    31     1     2   ar
    32     1    10    1
    33    30    29   ar
    34    30    26   ar
    35    19    18   ar
    36    21    16    1
    37    16    17   ar
    38     2     5    1
    39    18    17   ar
    40    18    26    1
    41    17    22    1
    42    29    28   ar
    43    26    27   ar
    44    22    25    1
    45    22    23    1
    46    12    10    1
    47    45    40   ar
    48    40    48    1
    49    28    27   ar
    50    28    36    1
    51    27    31    1
    52    52    49    1
    53    36    37    1
    54    36    39    1
    55    48    49    1
    56    49    50    1
    57    49    51    1
