@<TRIPOS>MOLECULE
mol_data/opt/b3lyp/geoms/mol2/4hd4hd4hd.out
 41 43 0 0 0
SMALL
GASTEIGER

@<TRIPOS>ATOM
      1 C          -0.1498    0.6919    0.9847 C.ar    1  LIG1        0.0252
      2 C           1.2588    0.6733    0.9690 C.ar    1  LIG1       -0.0320
      3 C          -0.8299    1.1615   -0.1572 C.ar    1  LIG1       -0.0398
      4 C           1.9853    1.1154   -0.1358 C.ar    1  LIG1        0.0030
      5 H           1.7974    0.3274    1.8467 H       1  LIG1        0.0642
      6 C          -0.1210    1.5909   -1.2656 C.ar    1  LIG1       -0.0420
      7 C           1.2862    1.5730   -1.2795 C.ar    1  LIG1        0.0596
      8 H          -0.6522    1.9433   -2.1434 H       1  LIG1        0.0631
      9 H          -1.9158    1.1893   -0.1639 H       1  LIG1        0.0636
     10 N          -0.8433    0.3090    2.1114 N.pl3   1  LIG1       -0.3579
     11 H          -1.8237    0.0942    2.0145 H       1  LIG1        0.1423
     12 H          -0.3578   -0.2404    2.8035 H       1  LIG1        0.1423
     13 N           2.5310    2.3061   -3.4352 N.1     1  LIG1       -0.1909
     14 C           1.9845    1.9843   -2.4586 C.1     1  LIG1        0.0998
     15 C           4.2057   -0.1075   -0.1273 C.ar    1  LIG1        0.0330
     16 C           5.6115   -0.0599   -0.1017 C.ar    1  LIG1       -0.0314
     17 C           3.4787    1.1095   -0.0964 C.ar    1  LIG1        0.0053
     18 C           6.3152    1.1408   -0.0292 C.ar    1  LIG1        0.0030
     19 H           6.1698   -0.9914   -0.1272 H       1  LIG1        0.0643
     20 C           4.1797    2.3101   -0.0366 C.ar    1  LIG1       -0.0342
     21 C           5.5827    2.3517    0.0034 C.ar    1  LIG1        0.0602
     22 H           3.6272    3.2435   -0.0231 H       1  LIG1        0.0637
     23 N           3.5562   -1.3271   -0.1401 N.pl3   1  LIG1       -0.3575
     24 H           2.5947   -1.3277   -0.4480 H       1  LIG1        0.1423
     25 H           4.0925   -2.1207   -0.4587 H       1  LIG1        0.1423
     26 N           6.7416    4.6720    0.0940 N.1     1  LIG1       -0.1908
     27 C           6.2383    3.6231    0.0540 C.1     1  LIG1        0.0998
     28 C           8.5612    0.6708   -1.0976 C.ar    1  LIG1        0.0325
     29 C           9.9665    0.6454   -1.0024 C.ar    1  LIG1       -0.0392
     30 C           7.8075    1.1228    0.0170 C.ar    1  LIG1        0.0053
     31 C          10.6146    1.0519    0.1510 C.ar    1  LIG1       -0.0426
     32 H          10.5466    0.3006   -1.8540 H       1  LIG1        0.0636
     33 C           8.4744    1.5420    1.1668 C.ar    1  LIG1       -0.0348
     34 C           9.8743    1.5085    1.2555 C.ar    1  LIG1        0.0525
     35 H           7.8970    1.8951    2.0144 H       1  LIG1        0.0637
     36 H          11.6976    1.0242    0.2050 H       1  LIG1        0.0631
     37 N           7.9383    0.2235   -2.2498 N.pl3   1  LIG1       -0.3575
     38 H           6.9938    0.5465   -2.4061 H       1  LIG1        0.1423
     39 H           8.5048    0.2245   -3.0859 H       1  LIG1        0.1423
     40 N          11.0788    2.2447    3.4324 N.1     1  LIG1       -0.1909
     41 C          10.5358    1.9205    2.4548 C.1     1  LIG1        0.0992
@<TRIPOS>BOND
     1    13    14    3
     2    39    37    1
     3    14     7    1
     4    38    37    1
     5    37    28    1
     6     8     6    1
     7    32    29    1
     8     7     6   ar
     9     7     4   ar
    10     6     3   ar
    11    28    29   ar
    12    28    30   ar
    13    29    31   ar
    14    25    23    1
    15    24    23    1
    16     9     3    1
    17     3     1   ar
    18    23    15    1
    19     4    17    1
    20     4     2   ar
    21    15    16   ar
    22    15    17   ar
    23    19    16    1
    24    16    18   ar
    25    17    20   ar
    26    20    22    1
    27    20    21   ar
    28    18    21   ar
    29    18    30    1
    30    21    27    1
    31    30    33   ar
    32    27    26    3
    33    31    36    1
    34    31    34   ar
    35     2     1   ar
    36     2     5    1
    37     1    10    1
    38    33    34   ar
    39    33    35    1
    40    34    41    1
    41    11    10    1
    42    10    12    1
    43    41    40    3
