@<TRIPOS>MOLECULE
mol_data/opt/b3lyp/geoms/mol2/4hd4hd-4hd.out
 41 43 0 0 0
SMALL
GASTEIGER

@<TRIPOS>ATOM
      1 C          -0.1554    0.1423   -0.4044 C.ar    1  LIG1        0.0252
      2 C           1.2526    0.1650   -0.4367 C.ar    1  LIG1       -0.0320
      3 C          -0.8366    1.2760    0.0823 C.ar    1  LIG1       -0.0398
      4 C           1.9837    1.2667    0.0034 C.ar    1  LIG1        0.0030
      5 H           1.7895   -0.6973   -0.8216 H       1  LIG1        0.0642
      6 C          -0.1261    2.3776    0.5245 C.ar    1  LIG1       -0.0420
      7 C           1.2814    2.3966    0.4978 C.ar    1  LIG1        0.0596
      8 H          -0.6557    3.2430    0.9087 H       1  LIG1        0.0631
      9 H          -1.9221    1.2803    0.1166 H       1  LIG1        0.0636
     10 N          -0.8474   -0.9799   -0.8024 N.pl3   1  LIG1       -0.3579
     11 H          -1.8276   -0.8779   -1.0166 H       1  LIG1        0.1423
     12 H          -0.3627   -1.6552   -1.3735 H       1  LIG1        0.1423
     13 N           2.5110    4.5012    1.3879 N.1     1  LIG1       -0.1909
     14 C           1.9697    3.5464    0.9982 C.1     1  LIG1        0.0998
     15 C           4.2577    2.0814   -0.8245 C.ar    1  LIG1        0.0330
     16 C           5.6604    1.9510   -0.7983 C.ar    1  LIG1       -0.0314
     17 C           3.4747    1.2073   -0.0234 C.ar    1  LIG1        0.0053
     18 C           6.3142    0.9957   -0.0273 C.ar    1  LIG1        0.0030
     19 H           6.2563    2.6105   -1.4224 H       1  LIG1        0.0643
     20 C           4.1262    0.2416    0.7390 C.ar    1  LIG1       -0.0342
     21 C           5.5251    0.1174    0.7603 C.ar    1  LIG1        0.0602
     22 H           3.5335   -0.4190    1.3632 H       1  LIG1        0.0637
     23 N           3.6807    2.9917   -1.6809 N.pl3   1  LIG1       -0.3575
     24 H           4.2622    3.7609   -1.9798 H       1  LIG1        0.1423
     25 H           2.7230    3.2553   -1.5061 H       1  LIG1        0.1423
     26 N           6.5721   -1.7061    2.2809 N.1     1  LIG1       -0.1908
     27 C           6.1148   -0.8735    1.6068 C.1     1  LIG1        0.0998
     28 C           8.5350   -0.1691   -0.4946 C.ar    1  LIG1        0.0325
     29 C           9.9439   -0.1232   -0.4663 C.ar    1  LIG1       -0.0392
     30 C           7.8060    0.9560   -0.0243 C.ar    1  LIG1        0.0053
     31 C          10.6207    0.9926   -0.0088 C.ar    1  LIG1       -0.0426
     32 H          10.5031   -0.9828   -0.8250 H       1  LIG1        0.0636
     33 C           8.5040    2.0790    0.4215 C.ar    1  LIG1       -0.0348
     34 C           9.9061    2.1180    0.4392 C.ar    1  LIG1        0.0525
     35 H           7.9441    2.9355    0.7821 H       1  LIG1        0.0637
     36 H          11.7053    1.0041    0.0044 H       1  LIG1        0.0631
     37 N           7.9037   -1.2661   -1.0475 N.pl3   1  LIG1       -0.3575
     38 H           6.9328   -1.4044   -0.8111 H       1  LIG1        0.1423
     39 H           8.4339   -2.1255   -1.0486 H       1  LIG1        0.1423
     40 N          11.1571    4.2305    1.2773 N.1     1  LIG1       -0.1909
     41 C          10.5939    3.2819    0.9049 C.1     1  LIG1        0.0992
@<TRIPOS>BOND
     1    24    23    1
     2    23    25    1
     3    23    15    1
     4    19    16    1
     5    12    10    1
     6    39    37    1
     7    37    38    1
     8    37    28    1
     9    11    10    1
    10    32    29    1
    11    15    16   ar
    12    15    17   ar
    13     5     2    1
    14    10     1    1
    15    16    18   ar
    16    28    29   ar
    17    28    30   ar
    18    29    31   ar
    19     2     1   ar
    20     2     4   ar
    21     1     3   ar
    22    18    30    1
    23    18    21   ar
    24    30    33   ar
    25    17     4    1
    26    17    20   ar
    27    31    36    1
    28    31    34   ar
    29     4     7   ar
    30     3     9    1
    31     3     6   ar
    32    33    34   ar
    33    33    35    1
    34    34    41    1
    35     7     6   ar
    36     7    14    1
    37     6     8    1
    38    20    21   ar
    39    20    22    1
    40    21    27    1
    41    41    40    3
    42    14    13    3
    43    27    26    3
