@<TRIPOS>MOLECULE
mol_data/opt/b3lyp/geoms/mol2/4hd4hd4hd4hd.out
 54 57 0 0 0
SMALL
GASTEIGER

@<TRIPOS>ATOM
      1 C          -0.2705    1.5876    0.8525 C.ar    1  LIG1        0.0252
      2 C           1.1372    1.5350    0.8684 C.ar    1  LIG1       -0.0320
      3 C          -0.9527    1.0360   -0.2507 C.ar    1  LIG1       -0.0398
      4 C           1.8642    0.9646   -0.1772 C.ar    1  LIG1        0.0030
      5 H           1.6754    1.9733    1.7040 H       1  LIG1        0.0642
      6 C          -0.2451    0.4584   -1.2902 C.ar    1  LIG1       -0.0420
      7 C           1.1611    0.4073   -1.2747 C.ar    1  LIG1        0.0596
      8 H          -0.7774    0.0288   -2.1322 H       1  LIG1        0.0631
      9 H          -2.0377    1.0696   -0.2857 H       1  LIG1        0.0636
     10 N          -0.9595    2.2126    1.8675 N.pl3   1  LIG1       -0.3579
     11 H          -1.9457    2.0242    1.9587 H       1  LIG1        0.1423
     12 H          -0.4785    2.3781    2.7381 H       1  LIG1        0.1423
     13 N           2.3858   -0.7697   -3.2365 N.1     1  LIG1       -0.1909
     14 C           1.8486   -0.2345   -2.3527 C.1     1  LIG1        0.0998
     15 C           4.0698    0.3065    0.8980 C.ar    1  LIG1        0.0330
     16 C           5.4777    0.3261    0.8749 C.ar    1  LIG1       -0.0314
     17 C           3.3555    0.9659   -0.1369 C.ar    1  LIG1        0.0053
     18 C           6.1977    0.9768   -0.1213 C.ar    1  LIG1        0.0030
     19 H           6.0233   -0.1996    1.6532 H       1  LIG1        0.0643
     20 C           4.0757    1.6202   -1.1333 C.ar    1  LIG1       -0.0342
     21 C           5.4785    1.6481   -1.1433 C.ar    1  LIG1        0.0602
     22 H           3.5373    2.1368   -1.9203 H       1  LIG1        0.0637
     23 N           3.4136   -0.3315    1.9306 N.pl3   1  LIG1       -0.3575
     24 H           2.4498   -0.5877    1.7724 H       1  LIG1        0.1423
     25 H           3.9450   -1.0135    2.4514 H       1  LIG1        0.1423
     26 N           6.7097    2.9813   -2.9991 N.1     1  LIG1       -0.1908
     27 C           6.1587    2.3858   -2.1638 C.1     1  LIG1        0.0998
     28 C           8.4612    0.3467   -1.0964 C.ar    1  LIG1        0.0330
     29 C           9.8655    0.4155   -1.0127 C.ar    1  LIG1       -0.0314
     30 C           7.6878    0.9760   -0.0836 C.ar    1  LIG1        0.0053
     31 C          10.5266    1.0539    0.0349 C.ar    1  LIG1        0.0030
     32 H          10.4565   -0.0696   -1.7840 H       1  LIG1        0.0643
     33 C           8.3467    1.5966    0.9734 C.ar    1  LIG1       -0.0342
     34 C           9.7473    1.6536    1.0555 C.ar    1  LIG1        0.0602
     35 H           7.7581    2.0816    1.7451 H       1  LIG1        0.0637
     36 N           7.8753   -0.3834   -2.1029 N.pl3   1  LIG1       -0.3575
     37 H           6.8929   -0.2460   -2.2856 H       1  LIG1        0.1423
     38 H           8.4287   -0.5627   -2.9270 H       1  LIG1        0.1423
     39 N          10.7810    2.9387    3.0585 N.1     1  LIG1       -0.1908
     40 C          10.3404    2.3555    2.1519 C.1     1  LIG1        0.0998
     41 C          12.7609    1.6725   -0.9892 C.ar    1  LIG1        0.0325
     42 C          14.1686    1.6574   -0.9206 C.ar    1  LIG1       -0.0392
     43 C          12.0174    1.0793    0.0668 C.ar    1  LIG1        0.0053
     44 C          14.8303    1.0770    0.1469 C.ar    1  LIG1       -0.0426
     45 H          14.7393    2.1118   -1.7258 H       1  LIG1        0.0636
     46 C          12.7000    0.5087    1.1409 C.ar    1  LIG1       -0.0348
     47 C          14.1013    0.4917    1.1971 C.ar    1  LIG1        0.0525
     48 H          12.1331    0.0594    1.9488 H       1  LIG1        0.0637
     49 H          15.9145    1.0745    0.1787 H       1  LIG1        0.0631
     50 N          12.1357    2.2283   -2.0891 N.pl3   1  LIG1       -0.3575
     51 H          11.1652    2.4882   -1.9854 H       1  LIG1        0.1423
     52 H          12.6794    2.8858   -2.6286 H       1  LIG1        0.1423
     53 N          15.3331   -0.6272    3.1876 N.1     1  LIG1       -0.1909
     54 C          14.7769   -0.1213    2.2985 C.1     1  LIG1        0.0992
@<TRIPOS>BOND
     1    13    14    3
     2    26    27    3
     3    38    36    1
     4    52    50    1
     5    14     7    1
     6    37    36    1
     7    27    21    1
     8     8     6    1
     9    36    28    1
    10    50    51    1
    11    50    41    1
    12    22    20    1
    13    32    29    1
    14    45    42    1
    15     6     7   ar
    16     6     3   ar
    17     7     4   ar
    18    21    20   ar
    19    21    18   ar
    20    20    17   ar
    21    28    29   ar
    22    28    30   ar
    23    29    31   ar
    24    41    42   ar
    25    41    43   ar
    26    42    44   ar
    27     9     3    1
    28     3     1   ar
    29     4    17    1
    30     4     2   ar
    31    17    15   ar
    32    18    30    1
    33    18    16   ar
    34    30    33   ar
    35    31    43    1
    36    31    34   ar
    37    43    46   ar
    38    44    49    1
    39    44    47   ar
    40     1     2   ar
    41     1    10    1
    42     2     5    1
    43    16    15   ar
    44    16    19    1
    45    15    23    1
    46    33    34   ar
    47    33    35    1
    48    34    40    1
    49    46    47   ar
    50    46    48    1
    51    47    54    1
    52    24    23    1
    53    10    11    1
    54    10    12    1
    55    23    25    1
    56    40    39    3
    57    54    53    3
