@<TRIPOS>MOLECULE
mol_data/opt/b3lyp/geoms/mol2/4hd4hd4hd4hd-.out
 54 57 0 0 0
SMALL
GASTEIGER

@<TRIPOS>ATOM
      1 C          -0.2444    0.7240    1.0701 C.ar    1  LIG1        0.0252
      2 C           1.1630    0.6905    1.0138 C.ar    1  LIG1       -0.0320
      3 C          -0.9508    1.2261   -0.0417 C.ar    1  LIG1       -0.0398
      4 C           1.8637    1.1491   -0.1013 C.ar    1  LIG1        0.0030
      5 H           1.7216    0.3209    1.8691 H       1  LIG1        0.0642
      6 C          -0.2681    1.6724   -1.1597 C.ar    1  LIG1       -0.0420
      7 C           1.1378    1.6400   -1.2143 C.ar    1  LIG1        0.0596
      8 H          -0.8197    2.0492   -2.0145 H       1  LIG1        0.0631
      9 H          -2.0360    1.2656   -0.0174 H       1  LIG1        0.0636
     10 N          -0.9099    0.3245    2.2074 N.pl3   1  LIG1       -0.3579
     11 H          -1.8956    0.1250    2.1354 H       1  LIG1        0.1423
     12 H          -0.4119   -0.2440    2.8749 H       1  LIG1        0.1423
     13 N           2.3273    2.4088   -3.3886 N.1     1  LIG1       -0.1909
     14 C           1.8058    2.0699   -2.4042 C.1     1  LIG1        0.0998
     15 C           4.0738   -0.0952   -0.1190 C.ar    1  LIG1        0.0330
     16 C           5.4809   -0.0596   -0.1260 C.ar    1  LIG1       -0.0314
     17 C           3.3569    1.1288   -0.1013 C.ar    1  LIG1        0.0053
     18 C           6.1950    1.1366   -0.0975 C.ar    1  LIG1        0.0030
     19 H           6.0298   -0.9969   -0.1373 H       1  LIG1        0.0643
     20 C           4.0695    2.3244   -0.0881 C.ar    1  LIG1       -0.0342
     21 C           5.4729    2.3546   -0.0799 C.ar    1  LIG1        0.0602
     22 H           3.5254    3.2627   -0.0858 H       1  LIG1        0.0637
     23 N           3.4166   -1.3088   -0.0886 N.pl3   1  LIG1       -0.3575
     24 H           2.4460   -1.3120   -0.3662 H       1  LIG1        0.1423
     25 H           3.9393   -2.1172   -0.3913 H       1  LIG1        0.1423
     26 N           6.6737    4.6554   -0.0704 N.1     1  LIG1       -0.1908
     27 C           6.1448    3.6183   -0.0754 C.1     1  LIG1        0.0998
     28 C           8.4285    0.5980   -1.1715 C.ar    1  LIG1        0.0330
     29 C           9.8348    0.6134   -1.1069 C.ar    1  LIG1       -0.0314
     30 C           7.6863    1.1171   -0.0787 C.ar    1  LIG1        0.0053
     31 C          10.5275    1.1128   -0.0080 C.ar    1  LIG1        0.0030
     32 H          10.4033    0.2381   -1.9530 H       1  LIG1        0.0643
     33 C           8.3762    1.6190    1.0209 C.ar    1  LIG1       -0.0342
     34 C           9.7785    1.6196    1.0849 C.ar    1  LIG1        0.0602
     35 H           7.8149    2.0107    1.8624 H       1  LIG1        0.0637
     36 N           7.7976    0.0624   -2.2759 N.pl3   1  LIG1       -0.3575
     37 H           6.8401    0.3416   -2.4363 H       1  LIG1        0.1423
     38 H           8.3498   -0.0108   -3.1179 H       1  LIG1        0.1423
     39 N          10.9172    2.5073    3.2417 N.1     1  LIG1       -0.1908
     40 C          10.4168    2.1017    2.2716 C.1     1  LIG1        0.0998
     41 C          12.7937    2.2712    0.0239 C.ar    1  LIG1        0.0325
     42 C          14.2003    2.1615    0.0356 C.ar    1  LIG1       -0.0392
     43 C          12.0187    1.0795   -0.0007 C.ar    1  LIG1        0.0053
     44 C          14.8281    0.9299    0.0034 C.ar    1  LIG1       -0.0426
     45 H          14.7961    3.0696    0.0571 H       1  LIG1        0.0636
     46 C          12.6676   -0.1535   -0.0494 C.ar    1  LIG1       -0.0348
     47 C          14.0672   -0.2521   -0.0469 C.ar    1  LIG1        0.0525
     48 H          12.0713   -1.0597   -0.0687 H       1  LIG1        0.0637
     49 H          15.9113    0.8715    0.0136 H       1  LIG1        0.0631
     50 N          12.2098    3.5163   -0.0394 N.pl3   1  LIG1       -0.3575
     51 H          12.7621    4.2956    0.2856 H       1  LIG1        0.1423
     52 H          11.2285    3.5939    0.1809 H       1  LIG1        0.1423
     53 N          15.2177   -2.5755   -0.1334 N.1     1  LIG1       -0.1909
     54 C          14.7021   -1.5320   -0.0915 C.1     1  LIG1        0.0992
@<TRIPOS>BOND
     1    13    14    3
     2    38    36    1
     3    37    36    1
     4    14     7    1
     5    36    28    1
     6     8     6    1
     7    32    29    1
     8     7     6   ar
     9     7     4   ar
    10    28    29   ar
    11    28    30   ar
    12     6     3   ar
    13    29    31   ar
    14    25    23    1
    15    24    23    1
    16    19    16    1
    17    53    54    3
    18    16    15   ar
    19    16    18   ar
    20    15    17   ar
    21    15    23    1
    22     4    17    1
    23     4     2   ar
    24    17    20   ar
    25    18    21   ar
    26    18    30    1
    27    54    47    1
    28    20    22    1
    29    20    21   ar
    30    21    27    1
    31    30    33   ar
    32    27    26    3
    33    48    46    1
    34    46    47   ar
    35    46    43   ar
    36    47    44   ar
    37     3     9    1
    38     3     1   ar
    39    50    41    1
    40    50    52    1
    41    50    51    1
    42    31    43    1
    43    31    34   ar
    44    43    41   ar
    45    44    49    1
    46    44    42   ar
    47    41    42   ar
    48    42    45    1
    49     2     1   ar
    50     2     5    1
    51    33    34   ar
    52    33    35    1
    53     1    10    1
    54    34    40    1
    55    11    10    1
    56    10    12    1
    57    40    39    3
