@<TRIPOS>MOLECULE
mol_data/opt/b3lyp/geoms/mol2/4hd4hd4hd-4hd.out
 54 57 0 0 0
SMALL
GASTEIGER

@<TRIPOS>ATOM
      1 C          -0.2662    0.1921    0.5983 C.ar    1  LIG1        0.0252
      2 C           1.1413    0.1820    0.5413 C.ar    1  LIG1       -0.0320
      3 C          -0.9560    1.2749    0.0163 C.ar    1  LIG1       -0.0398
      4 C           1.8606    1.2141   -0.0625 C.ar    1  LIG1        0.0030
      5 H           1.6857   -0.6372    1.0024 H       1  LIG1        0.0642
      6 C          -0.2559    2.3005   -0.5943 C.ar    1  LIG1       -0.0420
      7 C           1.1502    2.2909   -0.6497 C.ar    1  LIG1        0.0596
      8 H          -0.7943    3.1266   -1.0468 H       1  LIG1        0.0631
      9 H          -2.0411    1.3052    0.0528 H       1  LIG1        0.0636
     10 N          -0.9480   -0.8072    1.2555 N.pl3   1  LIG1       -0.3579
     11 H          -1.9346   -0.9085    1.0747 H       1  LIG1        0.1423
     12 H          -0.4620   -1.6693    1.4478 H       1  LIG1        0.1423
     13 N           2.3613    4.2210   -1.8913 N.1     1  LIG1       -0.1909
     14 C           1.8303    3.3520   -1.3265 C.1     1  LIG1        0.0998
     15 C           4.0686    0.1364   -0.7066 C.ar    1  LIG1        0.0330
     16 C           5.4759    0.1652   -0.6898 C.ar    1  LIG1       -0.0314
     17 C           3.3522    1.1805   -0.0653 C.ar    1  LIG1        0.0053
     18 C           6.1960    1.1750   -0.0582 C.ar    1  LIG1        0.0030
     19 H           6.0223   -0.6209   -1.2031 H       1  LIG1        0.0643
     20 C           4.0707    2.1912    0.5678 C.ar    1  LIG1       -0.0342
     21 C           5.4739    2.2066    0.5945 C.ar    1  LIG1        0.0602
     22 H           3.5310    2.9866    1.0701 H       1  LIG1        0.0637
     23 N           3.4138   -0.9108   -1.3236 N.pl3   1  LIG1       -0.3575
     24 H           2.4490   -0.7580   -1.5795 H       1  LIG1        0.1423
     25 H           3.9437   -1.4364   -2.0033 H       1  LIG1        0.1423
     26 N           6.6725    4.1061    1.8952 N.1     1  LIG1       -0.1908
     27 C           6.1421    3.2473    1.3148 C.1     1  LIG1        0.0998
     28 C           8.4724    2.1366   -0.6854 C.ar    1  LIG1        0.0330
     29 C           9.8768    2.0210   -0.6429 C.ar    1  LIG1       -0.0314
     30 C           7.6863    1.1288   -0.0622 C.ar    1  LIG1        0.0053
     31 C          10.5269    0.9555   -0.0296 C.ar    1  LIG1        0.0030
     32 H          10.4766    2.7847   -1.1292 H       1  LIG1        0.0643
     33 C           8.3347    0.0538    0.5385 C.ar    1  LIG1       -0.0342
     34 C           9.7346   -0.0563    0.5734 C.ar    1  LIG1        0.0602
     35 H           7.7385   -0.7108    1.0256 H       1  LIG1        0.0637
     36 N           7.9008    3.1675   -1.3895 N.pl3   1  LIG1       -0.3575
     37 H           8.4715    3.9817   -1.5607 H       1  LIG1        0.1423
     38 H           6.9258    3.3732   -1.2334 H       1  LIG1        0.1423
     39 N          10.7723   -2.1048    1.7816 N.1     1  LIG1       -0.1908
     40 C          10.3198   -1.1720    1.2502 C.1     1  LIG1        0.0998
     41 C          12.7762   -0.0857   -0.6312 C.ar    1  LIG1        0.0325
     42 C          14.1829   -0.0324   -0.5545 C.ar    1  LIG1       -0.0392
     43 C          12.0189    0.9331    0.0068 C.ar    1  LIG1        0.0053
     44 C          14.8309    0.9929    0.1099 C.ar    1  LIG1       -0.0426
     45 H          14.7640   -0.8106   -1.0413 H       1  LIG1        0.0636
     46 C          12.6882    1.9680    0.6608 C.ar    1  LIG1       -0.0348
     47 C          14.0887    2.0163    0.7257 C.ar    1  LIG1        0.0525
     48 H          12.1063    2.7433    1.1482 H       1  LIG1        0.0637
     49 H          15.9145    1.0122    0.1565 H       1  LIG1        0.0631
     50 N          12.1752   -1.0751   -1.3844 N.pl3   1  LIG1       -0.3575
     51 H          11.1993   -1.2581   -1.2058 H       1  LIG1        0.1423
     52 H          12.7156   -1.9177   -1.5176 H       1  LIG1        0.1423
     53 N          15.2884    3.9592    1.9571 N.1     1  LIG1       -0.1909
     54 C          14.7476    3.0865    1.4077 C.1     1  LIG1        0.0992
@<TRIPOS>BOND
     1    25    23    1
     2    13    14    3
     3    24    23    1
     4    37    36    1
     5    52    50    1
     6    36    38    1
     7    36    28    1
     8    50    51    1
     9    50    41    1
    10    14     7    1
    11    23    15    1
    12    19    16    1
    13    32    29    1
    14     8     6    1
    15    45    42    1
    16    15    16   ar
    17    15    17   ar
    18    16    18   ar
    19    28    29   ar
    20    28    30   ar
    21     7     6   ar
    22     7     4   ar
    23    29    31   ar
    24    41    42   ar
    25    41    43   ar
    26     6     3   ar
    27    42    44   ar
    28    17     4    1
    29    17    20   ar
    30     4     2   ar
    31    30    18    1
    32    30    33   ar
    33    18    21   ar
    34    31    43    1
    35    31    34   ar
    36    43    46   ar
    37     3     9    1
    38     3     1   ar
    39    44    49    1
    40    44    47   ar
    41    33    34   ar
    42    33    35    1
    43     2     1   ar
    44     2     5    1
    45    20    21   ar
    46    20    22    1
    47    34    40    1
    48    21    27    1
    49     1    10    1
    50    46    47   ar
    51    46    48    1
    52    47    54    1
    53    11    10    1
    54    40    39    3
    55    10    12    1
    56    27    26    3
    57    54    53    3
