@<TRIPOS>MOLECULE
mol_data/opt/b3lyp/geoms/mol2/4hd4hd4hd-4hd-.out
 54 57 0 0 0
SMALL
GASTEIGER

@<TRIPOS>ATOM
      1 C          -0.2604   -0.0223    0.1091 C.ar    1  LIG1        0.0252
      2 C           1.1476    0.0005    0.0651 C.ar    1  LIG1       -0.0320
      3 C          -0.9554    1.2037    0.0788 C.ar    1  LIG1       -0.0398
      4 C           1.8619    1.1977    0.0047 C.ar    1  LIG1        0.0030
      5 H           1.6954   -0.9366    0.1063 H       1  LIG1        0.0642
      6 C          -0.2600    2.3980    0.0089 C.ar    1  LIG1       -0.0420
      7 C           1.1464    2.4205   -0.0329 C.ar    1  LIG1        0.0596
      8 H          -0.8022    3.3372   -0.0213 H       1  LIG1        0.0631
      9 H          -2.0409    1.2092    0.1159 H       1  LIG1        0.0636
     10 N          -0.9379   -1.2143    0.2327 N.pl3   1  LIG1       -0.3579
     11 H          -1.9232   -1.2267    0.0194 H       1  LIG1        0.1423
     12 H          -0.4465   -2.0676    0.0165 H       1  LIG1        0.1423
     13 N           2.3497    4.7099   -0.2448 N.1     1  LIG1       -0.1909
     14 C           1.8225    3.6764   -0.1442 C.1     1  LIG1        0.0998
     15 C           4.0821    0.5594   -1.0510 C.ar    1  LIG1        0.0330
     16 C           5.4889    0.5913   -1.0149 C.ar    1  LIG1       -0.0314
     17 C           3.3537    1.1775   -0.0012 C.ar    1  LIG1        0.0053
     18 C           6.1974    1.1961    0.0193 C.ar    1  LIG1        0.0030
     19 H           6.0444    0.1410   -1.8327 H       1  LIG1        0.0643
     20 C           4.0603    1.7799    1.0361 C.ar    1  LIG1       -0.0342
     21 C           5.4633    1.7939    1.0756 C.ar    1  LIG1        0.0602
     22 H           3.5114    2.2428    1.8489 H       1  LIG1        0.0637
     23 N           3.4388   -0.0856   -2.0880 N.pl3   1  LIG1       -0.3575
     24 H           2.4719    0.1572   -2.2478 H       1  LIG1        0.1423
     25 H           3.9746   -0.2332   -2.9305 H       1  LIG1        0.1423
     26 N           6.6371    2.8753    3.1222 N.1     1  LIG1       -0.1908
     27 C           6.1184    2.3822    2.2037 C.1     1  LIG1        0.0998
     28 C           8.4625    2.3634   -0.0699 C.ar    1  LIG1        0.0330
     29 C           9.8673    2.2553   -0.0765 C.ar    1  LIG1       -0.0314
     30 C           7.6880    1.1737   -0.0011 C.ar    1  LIG1        0.0053
     31 C          10.5298    1.0300   -0.0401 C.ar    1  LIG1        0.0030
     32 H          10.4571    3.1668   -0.1076 H       1  LIG1        0.0643
     33 C           8.3490   -0.0519    0.0117 C.ar    1  LIG1       -0.0342
     34 C           9.7490   -0.1528   -0.0116 C.ar    1  LIG1        0.0602
     35 H           7.7610   -0.9628    0.0541 H       1  LIG1        0.0637
     36 N           7.8797    3.6034   -0.2005 N.pl3   1  LIG1       -0.3575
     37 H           8.4413    4.3990    0.0650 H       1  LIG1        0.1423
     38 H           6.9059    3.6970    0.0461 H       1  LIG1        0.1423
     39 N          10.7788   -2.5334   -0.0748 N.1     1  LIG1       -0.1908
     40 C          10.3402   -1.4554   -0.0374 C.1     1  LIG1        0.0998
     41 C          12.7928    1.5840   -1.0459 C.ar    1  LIG1        0.0325
     42 C          14.1981    1.5297   -0.9635 C.ar    1  LIG1       -0.0392
     43 C          12.0205    0.9872   -0.0137 C.ar    1  LIG1        0.0053
     44 C          14.8322    0.9118    0.0997 C.ar    1  LIG1       -0.0426
     45 H          14.7895    1.9849   -1.7532 H       1  LIG1        0.0636
     46 C          12.6760    0.3597    1.0467 C.ar    1  LIG1       -0.0348
     47 C          14.0756    0.3159    1.1237 C.ar    1  LIG1        0.0525
     48 H          12.0885   -0.0968    1.8356 H       1  LIG1        0.0637
     49 H          15.9155    0.8824    0.1453 H       1  LIG1        0.0631
     50 N          12.1966    2.2440   -2.1066 N.pl3   1  LIG1       -0.3575
     51 H          12.7631    2.3532   -2.9352 H       1  LIG1        0.1423
     52 H          11.2323    2.0143   -2.2996 H       1  LIG1        0.1423
     53 N          15.2626   -0.8229    3.1302 N.1     1  LIG1       -0.1909
     54 C          14.7246   -0.3168    2.2304 C.1     1  LIG1        0.0992
@<TRIPOS>BOND
     1    51    50    1
     2    25    23    1
     3    52    50    1
     4    24    23    1
     5    50    41    1
     6    23    15    1
     7    19    16    1
     8    45    42    1
     9    15    16   ar
    10    15    17   ar
    11    41    42   ar
    12    41    43   ar
    13    16    18   ar
    14    42    44   ar
    15    13    14    3
    16    36    28    1
    17    36    38    1
    18    36    37    1
    19    14     7    1
    20    32    29    1
    21    29    28   ar
    22    29    31   ar
    23    39    40    3
    24    28    30   ar
    25    31    43    1
    26    31    34   ar
    27    40    34    1
    28     7     4   ar
    29     7     6   ar
    30     8     6    1
    31    43    46   ar
    32    34    33   ar
    33    17     4    1
    34    17    20   ar
    35    30    33   ar
    36    30    18    1
    37     4     2   ar
    38     6     3   ar
    39    33    35    1
    40    12    10    1
    41    18    21   ar
    42    11    10    1
    43     2     5    1
    44     2     1   ar
    45     3     1   ar
    46     3     9    1
    47    44    49    1
    48    44    47   ar
    49     1    10    1
    50    20    21   ar
    51    20    22    1
    52    46    47   ar
    53    46    48    1
    54    21    27    1
    55    47    54    1
    56    27    26    3
    57    54    53    3
