@<TRIPOS>MOLECULE
mol_data/opt/b3lyp/geoms/mol2/4hd4hd-4hd-4hd-.out
 54 57 0 0 0
SMALL
GASTEIGER

@<TRIPOS>ATOM
      1 C          -0.2326    1.2182   -1.1955 C.ar    1  LIG1        0.0252
      2 C           1.1744    1.2571   -1.1364 C.ar    1  LIG1       -0.0320
      3 C          -0.9550    1.1119    0.0100 C.ar    1  LIG1       -0.0398
      4 C           1.8648    1.1849    0.0719 C.ar    1  LIG1        0.0030
      5 H           1.7422    1.3503   -2.0577 H       1  LIG1        0.0642
      6 C          -0.2850    1.0381    1.2180 C.ar    1  LIG1       -0.0420
      7 C           1.1214    1.0697    1.2754 C.ar    1  LIG1        0.0596
      8 H          -0.8462    0.9444    2.1418 H       1  LIG1        0.0631
      9 H          -2.0403    1.0798   -0.0118 H       1  LIG1        0.0636
     10 N          -0.8834    1.2428   -2.4080 N.pl3   1  LIG1       -0.3579
     11 H          -1.8658    1.4701   -2.4142 H       1  LIG1        0.1423
     12 H          -0.3718    1.5653   -3.2149 H       1  LIG1        0.1423
     13 N           2.2748    0.8845    3.5925 N.1     1  LIG1       -0.1909
     14 C           1.7670    0.9544    2.5466 C.1     1  LIG1        0.0998
     15 C           4.1248    2.2144    0.6694 C.ar    1  LIG1        0.0330
     16 C           5.5305    2.1356    0.6123 C.ar    1  LIG1       -0.0314
     17 C           3.3575    1.1870    0.0576 C.ar    1  LIG1        0.0053
     18 C           6.1979    1.0968   -0.0317 C.ar    1  LIG1        0.0030
     19 H           6.1155    2.9119    1.0970 H       1  LIG1        0.0643
     20 C           4.0258    0.1626   -0.6091 C.ar    1  LIG1       -0.0342
     21 C           5.4264    0.0961   -0.6720 C.ar    1  LIG1        0.0602
     22 H           3.4432   -0.6194   -1.0847 H       1  LIG1        0.0637
     23 N           3.5335    3.3143    1.2530 N.pl3   1  LIG1       -0.3575
     24 H           4.0940    3.8177    1.9254 H       1  LIG1        0.1423
     25 H           2.5668    3.2276    1.5287 H       1  LIG1        0.1423
     26 N           6.5125   -1.8228   -2.0402 N.1     1  LIG1       -0.1908
     27 C           6.0399   -0.9636   -1.4122 C.1     1  LIG1        0.0998
     28 C           8.4634    2.0546   -0.6541 C.ar    1  LIG1        0.0330
     29 C           9.8662    1.9487   -0.6293 C.ar    1  LIG1       -0.0314
     30 C           7.6888    1.0445   -0.0268 C.ar    1  LIG1        0.0053
     31 C          10.5242    0.8977    0.0062 C.ar    1  LIG1        0.0030
     32 H          10.4594    2.7205   -1.1114 H       1  LIG1        0.0643
     33 C           8.3455   -0.0134    0.5973 C.ar    1  LIG1       -0.0342
     34 C           9.7457   -0.1052    0.6323 C.ar    1  LIG1        0.0602
     35 H           7.7588   -0.7917    1.0731 H       1  LIG1        0.0637
     36 N           7.8693    3.1495   -1.2505 N.pl3   1  LIG1       -0.3575
     37 H           8.4278    3.6616   -1.9170 H       1  LIG1        0.1423
     38 H           6.8948    3.0651   -1.4999 H       1  LIG1        0.1423
     39 N          10.8208   -2.1485    1.8176 N.1     1  LIG1       -0.1908
     40 C          10.3535   -1.2259    1.2834 C.1     1  LIG1        0.0998
     41 C          12.7445    0.6680   -1.1869 C.ar    1  LIG1        0.0325
     42 C          14.1522    0.6593   -1.1362 C.ar    1  LIG1       -0.0392
     43 C          12.0167    0.8560    0.0169 C.ar    1  LIG1        0.0053
     44 C          14.8275    0.8289    0.0600 C.ar    1  LIG1       -0.0426
     45 H          14.7124    0.5146   -2.0559 H       1  LIG1        0.0636
     46 C          12.7101    1.0119    1.2159 C.ar    1  LIG1       -0.0348
     47 C          14.1126    1.0075    1.2572 C.ar    1  LIG1        0.0525
     48 H          12.1522    1.1465    2.1363 H       1  LIG1        0.0637
     49 H          15.9121    0.8197    0.0786 H       1  LIG1        0.0631
     50 N          12.0958    0.5328   -2.4026 N.pl3   1  LIG1       -0.3575
     51 H          12.6288    0.0914   -3.1383 H       1  LIG1        0.1423
     52 H          11.1343    0.2242   -2.3662 H       1  LIG1        0.1423
     53 N          15.3720    1.3561    3.4987 N.1     1  LIG1       -0.1909
     54 C          14.8036    1.1940    2.4956 C.1     1  LIG1        0.0992
@<TRIPOS>BOND
     1    12    10    1
     2    51    50    1
     3    11    10    1
     4    10     1    1
     5    50    52    1
     6    50    41    1
     7     5     2    1
     8    45    42    1
     9    26    27    3
    10    37    36    1
    11    38    36    1
    12    27    21    1
    13    36    28    1
    14     1     2   ar
    15     1     3   ar
    16    41    42   ar
    17    41    43   ar
    18     2     4   ar
    19    42    44   ar
    20    32    29    1
    21    22    20    1
    22    21    20   ar
    23    21    18   ar
    24    28    29   ar
    25    28    30   ar
    26    29    31   ar
    27    20    17   ar
    28    18    30    1
    29    18    16   ar
    30    30    33   ar
    31     9     3    1
    32    31    43    1
    33    31    34   ar
    34     3     6   ar
    35    43    46   ar
    36    17     4    1
    37    17    15   ar
    38    44    49    1
    39    44    47   ar
    40     4     7   ar
    41    33    34   ar
    42    33    35    1
    43    16    15   ar
    44    16    19    1
    45    34    40    1
    46    15    23    1
    47    46    47   ar
    48    46    48    1
    49     6     7   ar
    50     6     8    1
    51    23    25    1
    52    23    24    1
    53    47    54    1
    54     7    14    1
    55    40    39    3
    56    54    53    3
    57    14    13    3
