@<TRIPOS>MOLECULE
mol_data/opt/b3lyp/geoms/mol2/4hd4hd-4hd4hd-.out
 54 57 0 0 0
SMALL
GASTEIGER

@<TRIPOS>ATOM
      1 C          -0.2843    0.2095    0.4028 C.ar    1  LIG1        0.0252
      2 C           1.1234    0.2372    0.4474 C.ar    1  LIG1       -0.0320
      3 C          -0.9586    1.2623   -0.2476 C.ar    1  LIG1       -0.0398
      4 C           1.8602    1.2662   -0.1357 C.ar    1  LIG1        0.0030
      5 H           1.6543   -0.5584    0.9623 H       1  LIG1        0.0642
      6 C          -0.2423    2.2906   -0.8334 C.ar    1  LIG1       -0.0420
      7 C           1.1649    2.3138   -0.7942 C.ar    1  LIG1        0.0596
      8 H          -0.7666    3.0904   -1.3457 H       1  LIG1        0.0631
      9 H          -2.0440    1.2647   -0.2884 H       1  LIG1        0.0636
     10 N          -0.9855   -0.7975    1.0283 N.pl3   1  LIG1       -0.3579
     11 H          -1.9484   -0.9344    0.7610 H       1  LIG1        0.1423
     12 H          -0.4904   -1.6484    1.2483 H       1  LIG1        0.1423
     13 N           2.4093    4.2635   -1.9707 N.1     1  LIG1       -0.1909
     14 C           1.8603    3.3775   -1.4508 C.1     1  LIG1        0.0998
     15 C           4.1291    2.1985    0.5740 C.ar    1  LIG1        0.0330
     16 C           5.5328    2.0719    0.5678 C.ar    1  LIG1       -0.0314
     17 C           3.3509    1.2111   -0.0891 C.ar    1  LIG1        0.0053
     18 C           6.1901    1.0119   -0.0477 C.ar    1  LIG1        0.0030
     19 H           6.1249    2.8215    1.0845 H       1  LIG1        0.0643
     20 C           4.0071    0.1419   -0.6924 C.ar    1  LIG1       -0.0342
     21 C           5.4062    0.0189   -0.6901 C.ar    1  LIG1        0.0602
     22 H           3.4185   -0.6075   -1.2112 H       1  LIG1        0.0637
     23 N           3.5469    3.2228    1.2830 N.pl3   1  LIG1       -0.3575
     24 H           4.1205    4.0324    1.4677 H       1  LIG1        0.1423
     25 H           2.5837    3.4445    1.0824 H       1  LIG1        0.1423
     26 N           6.4658   -2.0154   -1.9031 N.1     1  LIG1       -0.1908
     27 C           6.0020   -1.0897   -1.3697 C.1     1  LIG1        0.0998
     28 C           8.4181   -0.0576    0.5926 C.ar    1  LIG1        0.0330
     29 C           9.8254   -0.0118    0.5519 C.ar    1  LIG1       -0.0314
     30 C           7.6817    0.9749   -0.0476 C.ar    1  LIG1        0.0053
     31 C          10.5283    1.0068   -0.0833 C.ar    1  LIG1        0.0030
     32 H          10.3865   -0.7937    1.0555 H       1  LIG1        0.0643
     33 C           8.3825    2.0029   -0.6730 C.ar    1  LIG1       -0.0342
     34 C           9.7860    2.0409   -0.7107 C.ar    1  LIG1        0.0602
     35 H           7.8246    2.7855   -1.1765 H       1  LIG1        0.0637
     36 N           7.7958   -1.0507    1.3157 N.pl3   1  LIG1       -0.3575
     37 H           6.8214   -1.2255    1.1228 H       1  LIG1        0.1423
     38 H           8.3309   -1.8912    1.4779 H       1  LIG1        0.1423
     39 N          10.9327    4.0005   -1.9675 N.1     1  LIG1       -0.1908
     40 C          10.4278    3.1082   -1.4148 C.1     1  LIG1        0.0998
     41 C          12.8291    1.9504    0.4884 C.ar    1  LIG1        0.0325
     42 C          14.2312    1.8204    0.4159 C.ar    1  LIG1       -0.0392
     43 C          12.0192    0.9524   -0.1177 C.ar    1  LIG1        0.0053
     44 C          14.8247    0.7409   -0.2125 C.ar    1  LIG1       -0.0426
     45 H          14.8523    2.5828    0.8778 H       1  LIG1        0.0636
     46 C          12.6339   -0.1373   -0.7356 C.ar    1  LIG1       -0.0348
     47 C          14.0298   -0.2620   -0.7954 C.ar    1  LIG1        0.0525
     48 H          12.0123   -0.8963   -1.1989 H       1  LIG1        0.0637
     49 H          15.9058    0.6633   -0.2559 H       1  LIG1        0.0631
     50 N          12.2821    2.9937    1.2089 N.pl3   1  LIG1       -0.3575
     51 H          12.8673    3.8095    1.3171 H       1  LIG1        0.1423
     52 H          11.3177    3.2244    1.0234 H       1  LIG1        0.1423
     53 N          15.1231   -2.3092   -1.9547 N.1     1  LIG1       -0.1909
     54 C          14.6307   -1.3890   -1.4382 C.1     1  LIG1        0.0992
@<TRIPOS>BOND
     1    13    14    3
     2    39    40    3
     3    53    54    3
     4    26    27    3
     5    14     7    1
     6    54    47    1
     7    40    34    1
     8    27    21    1
     9     8     6    1
    10    22    20    1
    11    48    46    1
    12    35    33    1
    13     6     7   ar
    14     6     3   ar
    15    47    46   ar
    16    47    44   ar
    17     7     4   ar
    18    46    43   ar
    19    34    33   ar
    20    34    31   ar
    21    20    21   ar
    22    20    17   ar
    23    21    18   ar
    24    33    30   ar
    25     9     3    1
    26    49    44    1
    27     3     1   ar
    28    44    42   ar
    29     4    17    1
    30     4     2   ar
    31    43    31    1
    32    43    41   ar
    33    17    15   ar
    34    31    29   ar
    35    18    30    1
    36    18    16   ar
    37    30    28   ar
    38     1     2   ar
    39     1    10    1
    40    42    41   ar
    41    42    45    1
    42     2     5    1
    43    41    50    1
    44    29    28   ar
    45    29    32    1
    46    16    15   ar
    47    16    19    1
    48    15    23    1
    49    28    36    1
    50    11    10    1
    51    52    50    1
    52    10    12    1
    53    25    23    1
    54    37    36    1
    55    50    51    1
    56    23    24    1
    57    36    38    1
