@<TRIPOS>MOLECULE
mol_data/opt/b3lyp/geoms/mol2/4hd4hd-4hd4hd.out
 54 57 0 0 0
SMALL
GASTEIGER

@<TRIPOS>ATOM
      1 C          -0.2888    0.1132   -0.0110 C.ar    1  LIG1        0.0252
      2 C           1.1188    0.1088   -0.0678 C.ar    1  LIG1       -0.0320
      3 C          -0.9557    1.3520    0.0726 C.ar    1  LIG1       -0.0398
      4 C           1.8628    1.2866   -0.0349 C.ar    1  LIG1        0.0030
      5 H           1.6445   -0.8386   -0.1457 H       1  LIG1        0.0642
      6 C          -0.2321    2.5305    0.1079 C.ar    1  LIG1       -0.0420
      7 C           1.1749    2.5245    0.0583 C.ar    1  LIG1        0.0596
      8 H          -0.7508    3.4803    0.1848 H       1  LIG1        0.0631
      9 H          -2.0405    1.3793    0.1175 H       1  LIG1        0.0636
     10 N          -0.9930   -1.0693    0.0028 N.pl3   1  LIG1       -0.3579
     11 H          -1.9772   -1.0369   -0.2139 H       1  LIG1        0.1423
     12 H          -0.5218   -1.9055   -0.3063 H       1  LIG1        0.1423
     13 N           2.4321    4.7917    0.1727 N.1     1  LIG1       -0.1909
     14 C           1.8775    3.7681    0.1344 C.1     1  LIG1        0.0998
     15 C           4.1320    1.7576   -1.1095 C.ar    1  LIG1        0.0330
     16 C           5.5341    1.6282   -1.0546 C.ar    1  LIG1       -0.0314
     17 C           3.3530    1.2050   -0.0572 C.ar    1  LIG1        0.0053
     18 C           6.1900    0.9722   -0.0181 C.ar    1  LIG1        0.0030
     19 H           6.1263    2.0397   -1.8668 H       1  LIG1        0.0643
     20 C           4.0072    0.5376    0.9748 C.ar    1  LIG1       -0.0342
     21 C           5.4051    0.4110    1.0222 C.ar    1  LIG1        0.0602
     22 H           3.4178    0.1267    1.7878 H       1  LIG1        0.0637
     23 N           3.5508    2.3400   -2.2128 N.pl3   1  LIG1       -0.3575
     24 H           4.1320    2.9654   -2.7515 H       1  LIG1        0.1423
     25 H           2.5963    2.6543   -2.1252 H       1  LIG1        0.1423
     26 N           6.4627   -0.8253    3.0437 N.1     1  LIG1       -0.1908
     27 C           5.9996   -0.2538    2.1405 C.1     1  LIG1        0.0998
     28 C           8.3983   -0.3070   -0.0919 C.ar    1  LIG1        0.0330
     29 C           9.8057   -0.2683   -0.0870 C.ar    1  LIG1       -0.0314
     30 C           7.6809    0.9162   -0.0161 C.ar    1  LIG1        0.0053
     31 C          10.5268    0.9227   -0.0256 C.ar    1  LIG1        0.0030
     32 H          10.3508   -1.2069   -0.1287 H       1  LIG1        0.0643
     33 C           8.4005    2.1086    0.0233 C.ar    1  LIG1       -0.0342
     34 C           9.8038    2.1407    0.0163 C.ar    1  LIG1        0.0602
     35 H           7.8569    3.0462    0.0740 H       1  LIG1        0.0637
     36 N           7.7570   -1.5202   -0.2418 N.pl3   1  LIG1       -0.3575
     37 H           6.7887   -1.5646    0.0379 H       1  LIG1        0.1423
     38 H           8.2842   -2.3356    0.0364 H       1  LIG1        0.1423
     39 N          10.9615    4.4630    0.0073 N.1     1  LIG1       -0.1908
     40 C          10.4619    3.4114    0.0205 C.1     1  LIG1        0.0998
     41 C          12.7682    0.2923   -1.0324 C.ar    1  LIG1        0.0325
     42 C          14.1735    0.2735   -0.9384 C.ar    1  LIG1       -0.0392
     43 C          12.0177    0.8915    0.0139 C.ar    1  LIG1        0.0053
     44 C          14.8278    0.8223    0.1503 C.ar    1  LIG1       -0.0426
     45 H          14.7487   -0.1829   -1.7393 H       1  LIG1        0.0636
     46 C          12.6934    1.4493    1.1001 C.ar    1  LIG1       -0.0348
     47 C          14.0927    1.4199    1.1889 C.ar    1  LIG1        0.0525
     48 H          12.1221    1.9083    1.8993 H       1  LIG1        0.0637
     49 H          15.9109    0.7960    0.2048 H       1  LIG1        0.0631
     50 N          12.1479   -0.3007   -2.1191 N.pl3   1  LIG1       -0.3575
     51 H          11.1990   -0.0127   -2.3105 H       1  LIG1        0.1423
     52 H          12.7149   -0.4058   -2.9480 H       1  LIG1        0.1423
     53 N          15.3176    2.4237    3.2441 N.1     1  LIG1       -0.1909
     54 C          14.7627    1.9791    2.3223 C.1     1  LIG1        0.0992
@<TRIPOS>BOND
     1    52    50    1
     2    24    23    1
     3    51    50    1
     4    23    25    1
     5    23    15    1
     6    50    41    1
     7    19    16    1
     8    45    42    1
     9    15    16   ar
    10    15    17   ar
    11    16    18   ar
    12    41    42   ar
    13    41    43   ar
    14    42    44   ar
    15    12    10    1
    16    36    28    1
    17    36    38    1
    18    36    37    1
    19    11    10    1
    20     5     2    1
    21    32    29    1
    22    28    29   ar
    23    28    30   ar
    24    29    31   ar
    25     2     4   ar
    26     2     1   ar
    27    17     4    1
    28    17    20   ar
    29     4     7   ar
    30    31    43    1
    31    31    34   ar
    32    18    30    1
    33    18    21   ar
    34    30    33   ar
    35     1    10    1
    36     1     3   ar
    37    39    40    3
    38    43    46   ar
    39    34    40    1
    40    34    33   ar
    41    33    35    1
    42     7     6   ar
    43     7    14    1
    44     3     6   ar
    45     3     9    1
    46     6     8    1
    47    14    13    3
    48    44    49    1
    49    44    47   ar
    50    20    21   ar
    51    20    22    1
    52    21    27    1
    53    46    47   ar
    54    46    48    1
    55    47    54    1
    56    27    26    3
    57    54    53    3
