@<TRIPOS>MOLECULE
mol_data/opt/b3lyp/geoms/mol2/4hd4hd-4hd-4hd.out
 54 57 0 0 0
SMALL
GASTEIGER

@<TRIPOS>ATOM
      1 C          -0.2530    0.6020   -0.9976 C.ar    1  LIG1        0.0252
      2 C           1.1548    0.6509   -0.9848 C.ar    1  LIG1       -0.0320
      3 C          -0.9572    1.1888    0.0732 C.ar    1  LIG1       -0.0398
      4 C           1.8631    1.2515    0.0542 C.ar    1  LIG1        0.0030
      5 H           1.7093    0.2127   -1.8097 H       1  LIG1        0.0642
      6 C          -0.2692    1.7876    1.1132 C.ar    1  LIG1       -0.0420
      7 C           1.1380    1.8296    1.1286 C.ar    1  LIG1        0.0596
      8 H          -0.8168    2.2268    1.9405 H       1  LIG1        0.0631
      9 H          -2.0429    1.1625    0.0844 H       1  LIG1        0.0636
     10 N          -0.9225   -0.0405   -2.0138 N.pl3   1  LIG1       -0.3579
     11 H          -1.9040    0.1566   -2.1344 H       1  LIG1        0.1423
     12 H          -0.4221   -0.2272   -2.8690 H       1  LIG1        0.1423
     13 N           2.3265    2.9422    3.1492 N.1     1  LIG1       -0.1909
     14 C           1.8029    2.4287    2.2443 C.1     1  LIG1        0.0998
     15 C           4.1337    2.4165   -0.0479 C.ar    1  LIG1        0.0330
     16 C           5.5381    2.3055   -0.0716 C.ar    1  LIG1       -0.0314
     17 C           3.3552    1.2303    0.0234 C.ar    1  LIG1        0.0053
     18 C           6.1955    1.0774   -0.0418 C.ar    1  LIG1        0.0030
     19 H           6.1301    3.2156   -0.1052 H       1  LIG1        0.0643
     20 C           4.0120    0.0020    0.0302 C.ar    1  LIG1       -0.0342
     21 C           5.4112   -0.1025   -0.0048 C.ar    1  LIG1        0.0602
     22 H           3.4211   -0.9067    0.0767 H       1  LIG1        0.0637
     23 N           3.5530    3.6612   -0.1641 N.pl3   1  LIG1       -0.3575
     24 H           4.1246    4.4480    0.1078 H       1  LIG1        0.1423
     25 H           2.5905    3.7514    0.1247 H       1  LIG1        0.1423
     26 N           6.4641   -2.4734   -0.0702 N.1     1  LIG1       -0.1908
     27 C           6.0070   -1.4030   -0.0328 C.1     1  LIG1        0.0998
     28 C           8.4569    1.5808   -1.0845 C.ar    1  LIG1        0.0330
     29 C           9.8593    1.4694   -1.0342 C.ar    1  LIG1       -0.0314
     30 C           7.6849    1.0188   -0.0336 C.ar    1  LIG1        0.0053
     31 C          10.5240    0.8405    0.0141 C.ar    1  LIG1        0.0030
     32 H          10.4469    1.8748   -1.8530 H       1  LIG1        0.0643
     33 C           8.3486    0.3936    1.0196 C.ar    1  LIG1       -0.0342
     34 C           9.7479    0.3013    1.0722 C.ar    1  LIG1        0.0602
     35 H           7.7684   -0.0239    1.8352 H       1  LIG1        0.0637
     36 N           7.8647    2.2460   -2.1384 N.pl3   1  LIG1       -0.3575
     37 H           8.4196    2.3557   -2.9742 H       1  LIG1        0.1423
     38 H           6.8861    2.0643   -2.3075 H       1  LIG1        0.1423
     39 N          10.8418   -0.8190    3.1422 N.1     1  LIG1       -0.1908
     40 C          10.3597   -0.3086    2.2133 C.1     1  LIG1        0.0998
     41 C          12.7101   -0.4624   -0.0566 C.ar    1  LIG1        0.0325
     42 C          14.1207   -0.4445   -0.0605 C.ar    1  LIG1       -0.0392
     43 C          12.0139    0.7758    0.0049 C.ar    1  LIG1        0.0053
     44 C          14.8275    0.7435   -0.0274 C.ar    1  LIG1       -0.0426
     45 H          14.6562   -1.3887   -0.1042 H       1  LIG1        0.0636
     46 C          12.7419    1.9651    0.0217 C.ar    1  LIG1       -0.0348
     47 C          14.1448    1.9728    0.0070 C.ar    1  LIG1        0.0525
     48 H          12.2061    2.9074    0.0681 H       1  LIG1        0.0637
     49 H          15.9122    0.7312   -0.0312 H       1  LIG1        0.0631
     50 N          12.0464   -1.6621   -0.1900 N.pl3   1  LIG1       -0.3575
     51 H          11.0672   -1.6904    0.0510 H       1  LIG1        0.1423
     52 H          12.5522   -2.4915    0.0834 H       1  LIG1        0.1423
     53 N          15.4447    4.2175    0.0373 N.1     1  LIG1       -0.1909
     54 C          14.8618    3.2094    0.0277 C.1     1  LIG1        0.0992
@<TRIPOS>BOND
     1    37    36    1
     2    12    10    1
     3    38    36    1
     4    36    28    1
     5    11    10    1
     6    10     1    1
     7    32    29    1
     8     5     2    1
     9    28    29   ar
    10    28    30   ar
    11    29    31   ar
    12     1     2   ar
    13     1     3   ar
    14     2     4   ar
    15    50    41    1
    16    50    51    1
    17    50    52    1
    18    23    15    1
    19    23    24    1
    20    23    25    1
    21    19    16    1
    22    45    42    1
    23    16    15   ar
    24    16    18   ar
    25    26    27    3
    26    42    41   ar
    27    42    44   ar
    28    41    43   ar
    29    15    17   ar
    30    18    30    1
    31    18    21   ar
    32    30    33   ar
    33    27    21    1
    34    49    44    1
    35    44    47   ar
    36    21    20   ar
    37    43    31    1
    38    43    46   ar
    39    47    46   ar
    40    47    54    1
    41    31    34   ar
    42    46    48    1
    43    17    20   ar
    44    17     4    1
    45    54    53    3
    46    20    22    1
    47     4     7   ar
    48     3     9    1
    49     3     6   ar
    50    33    34   ar
    51    33    35    1
    52    34    40    1
    53     6     7   ar
    54     6     8    1
    55     7    14    1
    56    40    39    3
    57    14    13    3
