@<TRIPOS>MOLECULE
mol_data/opt/b3lyp/geoms/mol2/4hd4hd.out
 28 29 0 0 0
SMALL
GASTEIGER

@<TRIPOS>ATOM
      1 C          -0.0328    0.1672    0.4988 C.ar    1  LIG1        0.0252
      2 C           1.3748    0.1679    0.4849 C.ar    1  LIG1       -0.0320
      3 C          -0.7130    1.2437   -0.1043 C.ar    1  LIG1       -0.0398
      4 C           2.1071    1.2034   -0.0987 C.ar    1  LIG1        0.0030
      5 H           1.9108   -0.6479    0.9613 H       1  LIG1        0.0642
      6 C          -0.0013    2.2728   -0.6956 C.ar    1  LIG1       -0.0420
      7 C           1.4061    2.2730   -0.7092 C.ar    1  LIG1        0.0596
      8 H          -0.5307    3.0946   -1.1661 H       1  LIG1        0.0631
      9 H          -1.7990    1.2667   -0.1002 H       1  LIG1        0.0636
     10 N          -0.7278   -0.8377    1.1389 N.pl3   1  LIG1       -0.3579
     11 H          -1.7029   -0.9534    0.9091 H       1  LIG1        0.1423
     12 H          -0.2390   -1.6994    1.3282 H       1  LIG1        0.1423
     13 N           2.6089    4.2209   -1.9308 N.1     1  LIG1       -0.1909
     14 C           2.0900    3.3411   -1.3717 C.1     1  LIG1        0.0998
     15 C           4.3340    0.1197   -0.6488 C.ar    1  LIG1        0.0325
     16 C           5.7390    0.1263   -0.5518 C.ar    1  LIG1       -0.0392
     17 C           3.5986    1.1742   -0.0466 C.ar    1  LIG1        0.0053
     18 C           6.4077    1.1361    0.1180 C.ar    1  LIG1       -0.0426
     19 H           6.3029   -0.6795   -1.0137 H       1  LIG1        0.0636
     20 C           4.2881    2.1905    0.6151 C.ar    1  LIG1       -0.0348
     21 C           5.6873    2.1865    0.7126 C.ar    1  LIG1        0.0525
     22 H           3.7276    2.9986    1.0721 H       1  LIG1        0.0637
     23 H           7.4904    1.1225    0.1830 H       1  LIG1        0.0631
     24 N           3.6956   -0.9272   -1.2946 N.pl3   1  LIG1       -0.3575
     25 H           2.7552   -0.7462   -1.6161 H       1  LIG1        0.1423
     26 H           4.2566   -1.4375   -1.9617 H       1  LIG1        0.1423
     27 N           6.9323    4.0675    1.9949 N.1     1  LIG1       -0.1909
     28 C           6.3699    3.2285    1.4159 C.1     1  LIG1        0.0992
@<TRIPOS>BOND
     1    26    24    1
     2    13    14    3
     3    25    24    1
     4    14     7    1
     5    24    15    1
     6     8     6    1
     7    19    16    1
     8     7     6   ar
     9     7     4   ar
    10     6     3   ar
    11    15    16   ar
    12    15    17   ar
    13    16    18   ar
    14     3     9    1
    15     3     1   ar
    16     4    17    1
    17     4     2   ar
    18    17    20   ar
    19    18    23    1
    20    18    21   ar
    21     2     1   ar
    22     2     5    1
    23     1    10    1
    24    20    21   ar
    25    20    22    1
    26    21    28    1
    27    11    10    1
    28    10    12    1
    29    28    27    3
