@<TRIPOS>MOLECULE
mol_data/opt/b3lyp/geoms/mol2/4hd4hd-.out
 28 29 0 0 0
SMALL
GASTEIGER

@<TRIPOS>ATOM
      1 C          -0.0235    0.1738   -0.5140 C.ar    1  LIG1        0.0252
      2 C           1.3837    0.2158   -0.5535 C.ar    1  LIG1       -0.0320
      3 C          -0.7116    1.2234    0.1271 C.ar    1  LIG1       -0.0398
      4 C           2.1088    1.2551    0.0263 C.ar    1  LIG1        0.0030
      5 H           1.9256   -0.5805   -1.0557 H       1  LIG1        0.0642
      6 C          -0.0074    2.2621    0.7097 C.ar    1  LIG1       -0.0420
      7 C           1.3996    2.2993    0.6754 C.ar    1  LIG1        0.0596
      8 H          -0.5418    3.0614    1.2123 H       1  LIG1        0.0631
      9 H          -1.7968    1.2114    0.1698 H       1  LIG1        0.0636
     10 N          -0.7078   -0.8919   -1.0557 N.pl3   1  LIG1       -0.3579
     11 H          -1.6898   -0.7709   -1.2509 H       1  LIG1        0.1423
     12 H          -0.2197   -1.4776   -1.7161 H       1  LIG1        0.1423
     13 N           2.6102    4.2788    1.8374 N.1     1  LIG1       -0.1909
     14 C           2.0794    3.3784    1.3233 C.1     1  LIG1        0.0998
     15 C           4.3636    2.1959   -0.7079 C.ar    1  LIG1        0.0325
     16 C           5.7689    2.0800   -0.7133 C.ar    1  LIG1       -0.0392
     17 C           3.6004    1.2133   -0.0217 C.ar    1  LIG1        0.0053
     18 C           6.4091    1.0288   -0.0827 C.ar    1  LIG1       -0.0426
     19 H           6.3541    2.8309   -1.2368 H       1  LIG1        0.0636
     20 C           4.2611    0.1520    0.5973 C.ar    1  LIG1       -0.0348
     21 C           5.6595    0.0411    0.5809 C.ar    1  LIG1        0.0525
     22 H           3.6753   -0.5962    1.1209 H       1  LIG1        0.0637
     23 H           7.4916    0.9618   -0.0995 H       1  LIG1        0.0631
     24 N           3.7640    3.2092   -1.4287 N.pl3   1  LIG1       -0.3575
     25 H           4.3327    4.0252   -1.6026 H       1  LIG1        0.1423
     26 H           2.8088    3.4366   -1.1969 H       1  LIG1        0.1423
     27 N           6.8327   -1.9554    1.7502 N.1     1  LIG1       -0.1909
     28 C           6.3062   -1.0574    1.2283 C.1     1  LIG1        0.0992
@<TRIPOS>BOND
     1    12    10    1
     2    25    24    1
     3    24    26    1
     4    24    15    1
     5    11    10    1
     6    19    16    1
     7    10     1    1
     8     5     2    1
     9    16    15   ar
    10    16    18   ar
    11    15    17   ar
    12     2     1   ar
    13     2     4   ar
    14     1     3   ar
    15    23    18    1
    16    18    21   ar
    17    17     4    1
    18    17    20   ar
    19     4     7   ar
    20     3     9    1
    21     3     6   ar
    22    21    20   ar
    23    21    28    1
    24    20    22    1
    25     7     6   ar
    26     7    14    1
    27     6     8    1
    28    28    27    3
    29    14    13    3
