@<TRIPOS>MOLECULE
mol_data/opt/b3lyp/geoms/mol2/4he12ff6he4fi-.out
 52 55 0 0 0
SMALL
GASTEIGER

@<TRIPOS>ATOM
      1 C          -0.0597   -0.4093   -0.0647 C.ar    1  LIG1        0.0253
      2 C           1.2937   -0.1393   -0.2932 C.ar    1  LIG1       -0.0291
      3 C          -0.8263    0.5277    0.6531 C.ar    1  LIG1       -0.0399
      4 C           1.9146    1.0301    0.1802 C.ar    1  LIG1        0.0381
      5 H           1.8841   -0.8559   -0.8526 H       1  LIG1        0.0643
      6 C          -0.2298    1.6830    1.1248 C.ar    1  LIG1       -0.0439
      7 C           1.1349    1.9701    0.9164 C.ar    1  LIG1        0.0356
      8 H          -0.8204    2.4018    1.6834 H       1  LIG1        0.0630
      9 H          -1.8793    0.3390    0.8429 H       1  LIG1        0.0636
     10 N          -0.6256   -1.6033   -0.4983 N.pl3   1  LIG1       -0.3579
     11 H          -1.6264   -1.5909   -0.6343 H       1  LIG1        0.1423
     12 H          -0.1379   -2.0730   -1.2480 H       1  LIG1        0.1423
     13 C           1.6350    3.1746    1.4967 C.1     1  LIG1       -0.0689
     14 C           1.9531    4.2130    2.0366 C.1     1  LIG1       -0.1139
     15 H           2.2667    5.0938    2.5466 H       1  LIG1        0.1232
     16 C           3.3224    1.2121   -0.1237 C.ar    1  LIG1        0.1819
     17 C           4.2765    0.3863   -0.6845 C.ar    1  LIG1        0.2059
     18 C           5.4862    1.1243   -0.7614 C.ar    1  LIG1        0.2059
     19 C           5.2437    2.3748   -0.2423 C.ar    1  LIG1        0.1840
     20 O           3.9258    2.4247    0.1352 O.2     1  LIG1       -0.4471
     21 O           4.1266   -0.8949   -1.1134 O.3     1  LIG1       -0.5008
     22 H           4.9824   -1.1765   -1.4709 H       1  LIG1        0.2924
     23 O           6.6189    0.5633   -1.2880 O.3     1  LIG1       -0.5008
     24 H           7.1621    1.2557   -1.6905 H       1  LIG1        0.2924
     25 C           5.5983    4.8879   -0.0896 C.ar    1  LIG1        0.1278
     26 C           6.0892    3.5437   -0.0847 C.ar    1  LIG1        0.0617
     27 C           7.4728    3.3916    0.0172 C.ar    1  LIG1       -0.0302
     28 C           8.3401    4.4932    0.0879 C.ar    1  LIG1        0.0515
     29 C           7.7458    5.7798    0.0890 C.ar    1  LIG1        0.0919
     30 N           6.4217    5.9437   -0.0040 N.ar    1  LIG1       -0.2304
     31 H           7.9009    2.3949    0.0571 H       1  LIG1        0.0639
     32 N           4.2715    5.1817   -0.2252 N.pl3   1  LIG1       -0.3426
     33 H           4.0473    6.1553   -0.0822 H       1  LIG1        0.1437
     34 H           3.5741    4.5035    0.0498 H       1  LIG1        0.1437
     35 C           9.7489    4.2731    0.0939 C.1     1  LIG1       -0.0675
     36 C          10.9340    4.0272    0.0593 C.1     1  LIG1       -0.1138
     37 H          11.9809    3.8332    0.0414 H       1  LIG1        0.1232
     38 C           9.4691    7.3080    1.1587 C.ar    1  LIG1        0.1261
     39 C          10.1888    8.5060    1.1452 C.ar    1  LIG1       -0.0193
     40 C           8.5453    7.0357    0.1334 C.ar    1  LIG1        0.0433
     41 C           9.9875    9.4392    0.1314 C.ar    1  LIG1       -0.0554
     42 H          10.8953    8.7147    1.9463 H       1  LIG1        0.0654
     43 C           8.3400    8.0096   -0.8517 C.ar    1  LIG1       -0.0461
     44 C           9.0534    9.2110   -0.8857 C.ar    1  LIG1       -0.0496
     45 H           7.5957    7.8037   -1.6156 H       1  LIG1        0.0628
     46 H          10.5583   10.3645    0.1419 H       1  LIG1        0.0621
     47 O           9.5927    6.4009    2.1723 O.3     1  LIG1       -0.5061
     48 H          10.3162    6.6719    2.7517 H       1  LIG1        0.2922
     49 C           8.8423   10.2134   -1.9965 C.3     1  LIG1       -0.0397
     50 H           7.8195   10.1706   -2.3830 H       1  LIG1        0.0278
     51 H           9.5166   10.0268   -2.8421 H       1  LIG1        0.0278
     52 H           9.0290   11.2358   -1.6533 H       1  LIG1        0.0278
@<TRIPOS>BOND
     1    51    49    1
     2    50    49    1
     3    49    52    1
     4    49    44    1
     5    24    23    1
     6    45    43    1
     7    22    21    1
     8    23    18    1
     9    12    10    1
    10    21    17    1
    11    44    43   ar
    12    44    41   ar
    13     5     2    1
    14    43    40   ar
    15    18    17   ar
    16    18    19   ar
    17    17    16   ar
    18    11    10    1
    19    10     1    1
    20     2     1   ar
    21     2     4   ar
    22    19    26    1
    23    19    20   ar
    24    32    25    1
    25    32    33    1
    26    32    34    1
    27    16    20   ar
    28    16     4    1
    29    25    26   ar
    30    25    30   ar
    31    26    27   ar
    32     1     3   ar
    33    30    29   ar
    34    27    31    1
    35    27    28   ar
    36    37    36    1
    37    36    35    3
    38    28    29   ar
    39    28    35    1
    40    29    40    1
    41    41    46    1
    42    41    39   ar
    43    40    38   ar
    44     4     7   ar
    45     3     9    1
    46     3     6   ar
    47     7     6   ar
    48     7    13    1
    49     6     8    1
    50    39    38   ar
    51    39    42    1
    52    38    47    1
    53    13    14    3
    54    14    15    1
    55    47    48    1
