@<TRIPOS>MOLECULE
mol_data/opt/b3lyp/geoms/mol2/4he12al12de-4ah-.out
 49 52 0 0 0
SMALL
GASTEIGER

@<TRIPOS>ATOM
      1 C          -0.0238   -0.1367   -0.5546 C.ar    1  LIG1        0.0253
      2 C           1.3653    0.0091   -0.4528 C.ar    1  LIG1       -0.0292
      3 C          -0.8361    0.9601   -0.2121 C.ar    1  LIG1       -0.0399
      4 C           1.9605    1.1987   -0.0092 C.ar    1  LIG1        0.0345
      5 H           2.0047   -0.8169   -0.7503 H       1  LIG1        0.0643
      6 C          -0.2604    2.1431    0.2198 C.ar    1  LIG1       -0.0439
      7 C           1.1347    2.3031    0.3400 C.ar    1  LIG1        0.0354
      8 H          -0.8954    2.9811    0.4873 H       1  LIG1        0.0630
      9 H          -1.9169    0.8767   -0.2853 H       1  LIG1        0.0636
     10 N          -0.5871   -1.3452   -0.9455 N.pl3   1  LIG1       -0.3579
     11 H          -1.5205   -1.2927   -1.3280 H       1  LIG1        0.1423
     12 H           0.0129   -1.9632   -1.4732 H       1  LIG1        0.1423
     13 C           1.6211    3.5449    0.8494 C.1     1  LIG1       -0.0690
     14 C           1.9363    4.6214    1.3073 C.1     1  LIG1       -0.1139
     15 H           2.2473    5.5550    1.7172 H       1  LIG1        0.1232
     16 C           3.4167    1.2257    0.0835 C.ar    1  LIG1        0.1407
     17 C           4.3346    0.2159    0.2839 C.ar    1  LIG1        0.0268
     18 C           5.6162    0.8305    0.2622 C.ar    1  LIG1        0.1693
     19 C           5.4105    2.1840    0.0411 C.ar    1  LIG1        0.2132
     20 O           4.0601    2.4112   -0.0630 O.2     1  LIG1       -0.4478
     21 H           4.1100   -0.8230    0.4675 H       1  LIG1        0.0692
     22 O           6.8365    0.2965    0.4422 O.3     1  LIG1       -0.4912
     23 C           6.9142   -1.1141    0.6176 C.3     1  LIG1        0.0790
     24 H           7.9757   -1.3429    0.7084 H       1  LIG1        0.0660
     25 H           6.3895   -1.4299    1.5275 H       1  LIG1        0.0660
     26 H           6.4979   -1.6437   -0.2478 H       1  LIG1        0.0660
     27 C           6.2690    3.3194   -0.0692 C.ar    1  LIG1        0.1928
     28 C           7.6357    3.5213   -0.1857 C.ar    1  LIG1        0.1166
     29 C           7.8320    4.9593   -0.2374 C.ar    1  LIG1        0.0885
     30 C           6.5752    5.5287   -0.1587 C.ar    1  LIG1        0.1525
     31 O           5.6456    4.5269   -0.0570 O.2     1  LIG1       -0.4490
     32 N           9.5684    1.8242   -0.3866 N.1     1  LIG1       -0.1907
     33 C           8.6763    2.5659   -0.2861 C.1     1  LIG1        0.1043
     34 C           9.0901    5.5947   -0.3613 C.1     1  LIG1       -0.0645
     35 C          10.1870    6.0949   -0.4677 C.1     1  LIG1       -0.1138
     36 H          11.1552    6.5291   -0.5634 H       1  LIG1        0.1232
     37 C           6.8917    8.0074   -0.1546 C.ar    1  LIG1       -0.0509
     38 C           6.3280    9.2803   -0.1389 C.ar    1  LIG1       -0.0594
     39 C           6.0444    6.8843   -0.1558 C.ar    1  LIG1        0.0203
     40 C           4.9467    9.4625   -0.1236 C.ar    1  LIG1       -0.0410
     41 H           6.9776   10.1509   -0.1380 H       1  LIG1        0.0618
     42 C           4.6514    7.0652   -0.1463 C.ar    1  LIG1       -0.0303
     43 C           4.0908    8.3478   -0.1267 C.ar    1  LIG1        0.0252
     44 H           4.0005    6.1973   -0.1493 H       1  LIG1        0.0643
     45 H           4.5264   10.4648   -0.1048 H       1  LIG1        0.0636
     46 H           7.9667    7.8820   -0.1622 H       1  LIG1        0.0625
     47 N           2.7035    8.5045   -0.0493 N.pl3   1  LIG1       -0.3579
     48 H           2.3557    9.3918   -0.3870 H       1  LIG1        0.1423
     49 H           2.1699    7.7298   -0.4210 H       1  LIG1        0.1423
@<TRIPOS>BOND
     1    12    10    1
     2    11    10    1
     3    10     1    1
     4     5     2    1
     5    36    35    1
     6     1     2   ar
     7     1     3   ar
     8    35    34    3
     9     2     4   ar
    10    49    47    1
    11    48    47    1
    12    32    33    3
    13    34    29    1
    14    33    28    1
    15     9     3    1
    16    26    23    1
    17    29    28   ar
    18    29    30   ar
    19     3     6   ar
    20    28    27   ar
    21    46    37    1
    22    30    39    1
    23    30    31   ar
    24    39    37   ar
    25    39    42   ar
    26    37    38   ar
    27    44    42    1
    28    42    43   ar
    29    38    41    1
    30    38    40   ar
    31    43    40   ar
    32    43    47    1
    33    40    45    1
    34    27    31   ar
    35    27    19    1
    36    20    19   ar
    37    20    16   ar
    38     4    16    1
    39     4     7   ar
    40    19    18   ar
    41    16    17   ar
    42     6     7   ar
    43     6     8    1
    44    18    17   ar
    45    18    22    1
    46    17    21    1
    47     7    13    1
    48    22    23    1
    49    23    24    1
    50    23    25    1
    51    13    14    3
    52    14    15    1
