@<TRIPOS>MOLECULE
mol_data/opt/b3lyp/geoms/mol2/4he13li-13ii-12li-.out
 59 62 0 0 0
SMALL
GASTEIGER

@<TRIPOS>ATOM
      1 C          -0.4405    0.5235    0.2455 C.ar    1  LIG1        0.0252
      2 C           0.9276    0.4619   -0.0424 C.ar    1  LIG1       -0.0306
      3 C          -0.9272    1.5921    1.0216 C.ar    1  LIG1       -0.0399
      4 C           1.8422    1.4215    0.4238 C.ar    1  LIG1        0.0190
      5 H           1.3044   -0.3481   -0.6560 H       1  LIG1        0.0643
      6 C          -0.0466    2.5536    1.4825 C.ar    1  LIG1       -0.0440
      7 C           1.3355    2.5025    1.2087 C.ar    1  LIG1        0.0340
      8 H          -0.4188    3.3805    2.0788 H       1  LIG1        0.0630
      9 H          -1.9856    1.6591    1.2577 H       1  LIG1        0.0636
     10 N          -1.2982   -0.4797   -0.1939 N.pl3   1  LIG1       -0.3579
     11 H          -2.2693   -0.2168   -0.2856 H       1  LIG1        0.1423
     12 H          -0.9682   -1.0205   -0.9810 H       1  LIG1        0.1423
     13 C           2.1395    3.5450    1.7619 C.1     1  LIG1       -0.0690
     14 C           2.7687    4.4614    2.2503 C.1     1  LIG1       -0.1139
     15 H           3.3211    5.2507    2.7049 H       1  LIG1        0.1232
     16 C           3.2513    1.2644    0.0664 C.ar    1  LIG1        0.0907
     17 C           3.9518    0.1663   -0.4500 C.ar    1  LIG1        0.1488
     18 C           5.3102    0.5176   -0.6556 C.ar    1  LIG1        0.0185
     19 C           5.4315    1.8466   -0.2483 C.ar    1  LIG1        0.0701
     20 N           4.1883    2.2751    0.1614 N.ar    1  LIG1       -0.3498
     21 H           4.0105    3.1489    0.6374 H       1  LIG1        0.1661
     22 O           3.4171   -1.0594   -0.7808 O.3     1  LIG1       -0.4927
     23 C           3.5790   -2.0532    0.2346 C.3     1  LIG1        0.0789
     24 H           3.1605   -2.9802   -0.1642 H       1  LIG1        0.0660
     25 H           4.6378   -2.2083    0.4744 H       1  LIG1        0.0660
     26 H           3.0434   -1.7741    1.1502 H       1  LIG1        0.0660
     27 C           6.3471   -0.3526   -1.2993 C.3     1  LIG1       -0.0342
     28 H           6.8918   -0.9734   -0.5768 H       1  LIG1        0.0279
     29 H           7.0894    0.2510   -1.8296 H       1  LIG1        0.0279
     30 H           5.8746   -1.0305   -2.0168 H       1  LIG1        0.0279
     31 C           6.5605    2.7601   -0.2714 C.ar    1  LIG1        0.0670
     32 C           7.8890    2.6102    0.1186 C.ar    1  LIG1       -0.0202
     33 C           8.5559    3.8504   -0.1207 C.ar    1  LIG1       -0.0185
     34 C           7.6081    4.7386   -0.6284 C.ar    1  LIG1        0.0895
     35 N           6.4045    4.0639   -0.6982 N.ar    1  LIG1       -0.3501
     36 H           5.5910    4.4240   -1.1727 H       1  LIG1        0.1661
     37 C           8.5085    1.3944    0.7414 C.3     1  LIG1       -0.0374
     38 H           9.1368    1.6666    1.5973 H       1  LIG1        0.0278
     39 H           9.1493    0.8442    0.0403 H       1  LIG1        0.0278
     40 H           7.7408    0.7032    1.0981 H       1  LIG1        0.0278
     41 C          10.0192    4.0971    0.1048 C.3     1  LIG1       -0.0373
     42 H          10.3018    5.1206   -0.1453 H       1  LIG1        0.0278
     43 H          10.6292    3.4181   -0.5038 H       1  LIG1        0.0278
     44 H          10.3028    3.9181    1.1503 H       1  LIG1        0.0278
     45 C           7.6755    6.1094   -1.0827 C.ar    1  LIG1        0.1927
     46 C           8.4451    7.2159   -0.8024 C.ar    1  LIG1        0.1699
     47 C           7.9744    8.3039   -1.6167 C.ar    1  LIG1        0.0297
     48 C           6.9323    7.7909   -2.3252 C.ar    1  LIG1        0.0992
     49 O           6.7300    6.4732   -2.0190 O.2     1  LIG1       -0.4574
     50 H           6.2610    8.2111   -3.0582 H       1  LIG1        0.1033
     51 O           9.4907    7.3273    0.0781 O.3     1  LIG1       -0.4910
     52 C           9.1107    7.2736    1.4578 C.3     1  LIG1        0.0790
     53 H          10.0269    7.4116    2.0353 H       1  LIG1        0.0660
     54 H           8.4012    8.0742    1.7005 H       1  LIG1        0.0660
     55 H           8.6618    6.3067    1.7106 H       1  LIG1        0.0660
     56 C           8.5356    9.6913   -1.6486 C.3     1  LIG1       -0.0332
     57 H           7.9802   10.3257   -2.3446 H       1  LIG1        0.0280
     58 H           9.5862    9.6856   -1.9579 H       1  LIG1        0.0280
     59 H           8.4975   10.1611   -0.6597 H       1  LIG1        0.0280
@<TRIPOS>BOND
     1    50    48    1
     2    57    56    1
     3    48    49   ar
     4    48    47   ar
     5    49    45   ar
     6    30    27    1
     7    58    56    1
     8    29    27    1
     9    56    47    1
    10    56    59    1
    11    47    46   ar
    12    27    18    1
    13    27    28    1
    14    36    35    1
    15    45    46   ar
    16    45    34    1
    17    12    10    1
    18    46    51    1
    19    22    17    1
    20    22    23    1
    21    35    34   ar
    22    35    31   ar
    23     5     2    1
    24    18    17   ar
    25    18    19   ar
    26    34    33   ar
    27    43    41    1
    28    17    16   ar
    29    11    10    1
    30    31    19    1
    31    31    32   ar
    32    19    20   ar
    33    10     1    1
    34    24    23    1
    35    42    41    1
    36    33    41    1
    37    33    32   ar
    38     2     1   ar
    39     2     4   ar
    40    39    37    1
    41    16    20   ar
    42    16     4    1
    43    51    52    1
    44    41    44    1
    45    32    37    1
    46    20    21    1
    47    23    25    1
    48    23    26    1
    49     1     3   ar
    50     4     7   ar
    51    37    40    1
    52    37    38    1
    53     3     9    1
    54     3     6   ar
    55     7     6   ar
    56     7    13    1
    57    52    54    1
    58    52    55    1
    59    52    53    1
    60     6     8    1
    61    13    14    3
    62    14    15    1
