@<TRIPOS>MOLECULE
mol_data/opt/b3lyp/geoms/mol2/4he4da13li12el-.out
 55 58 0 0 0
SMALL
GASTEIGER

@<TRIPOS>ATOM
      1 C          -0.3588    0.3785    0.4602 C.ar    1  LIG1        0.0252
      2 C           1.0436    0.3418    0.4053 C.ar    1  LIG1       -0.0321
      3 C          -1.0131    1.5495    0.0403 C.ar    1  LIG1       -0.0399
      4 C           1.7956    1.4168   -0.0724 C.ar    1  LIG1        0.0005
      5 H           1.5564   -0.5495    0.7527 H       1  LIG1        0.0642
      6 C          -0.2794    2.6271   -0.4290 C.ar    1  LIG1       -0.0440
      7 C           1.1264    2.5940   -0.5032 C.ar    1  LIG1        0.0325
      8 H          -0.7935    3.5215   -0.7652 H       1  LIG1        0.0630
      9 H          -2.0975    1.6072    0.0810 H       1  LIG1        0.0636
     10 N          -1.0712   -0.6967    0.9762 N.pl3   1  LIG1       -0.3579
     11 H          -2.0424   -0.7475    0.7024 H       1  LIG1        0.1423
     12 H          -0.6091   -1.5936    0.9147 H       1  LIG1        0.1423
     13 C           1.8113    3.7238   -1.0462 C.1     1  LIG1       -0.0691
     14 C           2.3421    4.7058   -1.5165 C.1     1  LIG1       -0.1139
     15 H           2.8196    5.5580   -1.9409 H       1  LIG1        0.1232
     16 C           3.9501    0.2088   -0.6920 C.ar    1  LIG1        0.0601
     17 C           5.3486    0.1187   -0.6822 C.ar    1  LIG1       -0.0345
     18 C           3.2784    1.3084   -0.1017 C.ar    1  LIG1        0.0007
     19 C           6.1336    1.1115   -0.0746 C.ar    1  LIG1        0.0031
     20 H           5.8316   -0.7223   -1.1649 H       1  LIG1        0.0637
     21 C           4.0780    2.2934    0.4951 C.ar    1  LIG1       -0.0521
     22 C           5.4631    2.1985    0.5198 C.ar    1  LIG1       -0.0519
     23 H           3.5951    3.1410    0.9673 H       1  LIG1        0.0624
     24 N           2.6936   -1.7262   -1.8913 N.1     1  LIG1       -0.1908
     25 C           3.2321   -0.8456   -1.3542 C.1     1  LIG1        0.0998
     26 H           6.0278    2.9690    1.0370 H       1  LIG1        0.0624
     27 C           7.5869    1.0151   -0.0769 C.ar    1  LIG1        0.0895
     28 C           8.4458   -0.0730   -0.2655 C.ar    1  LIG1        0.1488
     29 C           9.7923    0.3606   -0.1850 C.ar    1  LIG1        0.0202
     30 C           9.7362    1.7406    0.0415 C.ar    1  LIG1        0.0904
     31 N           8.4060    2.1006    0.1279 N.ar    1  LIG1       -0.3486
     32 H           8.1010    3.0590    0.1862 H       1  LIG1        0.1661
     33 O           8.0606   -1.3723   -0.4869 O.3     1  LIG1       -0.4927
     34 C           7.7690   -2.1132    0.7040 C.3     1  LIG1        0.0789
     35 H           7.5185   -3.1268    0.3848 H       1  LIG1        0.0660
     36 H           8.6377   -2.1438    1.3723 H       1  LIG1        0.0660
     37 H           6.9181   -1.6803    1.2432 H       1  LIG1        0.0660
     38 C          10.9874   -0.5378   -0.2739 C.3     1  LIG1       -0.0341
     39 H          11.6907   -0.3583    0.5456 H       1  LIG1        0.0279
     40 H          11.5419   -0.3915   -1.2050 H       1  LIG1        0.0279
     41 H          10.6657   -1.5814   -0.2358 H       1  LIG1        0.0279
     42 C          10.7417    2.7535    0.2311 C.ar    1  LIG1        0.1702
     43 C          12.0597    2.9317   -0.1618 C.ar    1  LIG1        0.1134
     44 C          12.4557    4.2183    0.3851 C.ar    1  LIG1        0.1736
     45 C          11.3761    4.7241    1.0367 C.ar    1  LIG1        0.1354
     46 O          10.3259    3.8481    0.9454 O.2     1  LIG1       -0.4564
     47 H          11.1996    5.6461    1.5652 H       1  LIG1        0.1068
     48 C          12.8390    2.1406   -1.0381 C.1     1  LIG1       -0.0621
     49 C          13.5393    1.5069   -1.7971 C.1     1  LIG1       -0.1137
     50 H          14.1354    0.9572   -2.4879 H       1  LIG1        0.1232
     51 O          13.6401    4.8607    0.2163 O.3     1  LIG1       -0.4907
     52 C          14.7864    4.1809    0.7437 C.3     1  LIG1        0.0790
     53 H          15.6425    4.8220    0.5277 H       1  LIG1        0.0660
     54 H          14.6936    4.0470    1.8284 H       1  LIG1        0.0660
     55 H          14.9294    3.2074    0.2655 H       1  LIG1        0.0660
@<TRIPOS>BOND
     1    50    49    1
     2    15    14    1
     3    24    25    3
     4    49    48    3
     5    14    13    3
     6    25    16    1
     7    40    38    1
     8    20    17    1
     9    13     7    1
    10    48    43    1
    11     8     6    1
    12    16    17   ar
    13    16    18   ar
    14    17    19   ar
    15     7     6   ar
    16     7     4   ar
    17    33    28    1
    18    33    34    1
    19     6     3   ar
    20    38    41    1
    21    38    29    1
    22    38    39    1
    23    28    29   ar
    24    28    27   ar
    25    29    30   ar
    26    43    42   ar
    27    43    44   ar
    28    18     4    1
    29    18    21   ar
    30    27    19    1
    31    27    31   ar
    32    19    22   ar
    33     4     2   ar
    34     3     9    1
    35     3     1   ar
    36    30    31   ar
    37    30    42    1
    38    31    32    1
    39    51    44    1
    40    51    52    1
    41    42    46   ar
    42    55    52    1
    43    35    34    1
    44    44    45   ar
    45     2     1   ar
    46     2     5    1
    47     1    10    1
    48    21    22   ar
    49    21    23    1
    50    22    26    1
    51    53    52    1
    52    11    10    1
    53    34    37    1
    54    34    36    1
    55    52    54    1
    56    12    10    1
    57    46    45   ar
    58    45    47    1
