@<TRIPOS>MOLECULE
mol_data/opt/b3lyp/geoms/mol2/4he4hf6ih12fe-13hl6fl-4di12lf.out
 107 114 0 0 0
SMALL
GASTEIGER

@<TRIPOS>ATOM
      1 C          -0.1644    2.2668    0.6855 C.ar    1  LIG1        0.0252
      2 C           1.2297    2.1140    0.6110 C.ar    1  LIG1       -0.0321
      3 C          -0.9718    1.4572   -0.1332 C.ar    1  LIG1       -0.0399
      4 C           1.8334    1.1905   -0.2487 C.ar    1  LIG1        0.0011
      5 H           1.8649    2.7406    1.2304 H       1  LIG1        0.0642
      6 C          -0.3895    0.5330   -0.9855 C.ar    1  LIG1       -0.0440
      7 C           1.0080    0.3718   -1.0658 C.ar    1  LIG1        0.0325
      8 H          -1.0191   -0.0955   -1.6070 H       1  LIG1        0.0630
      9 H          -2.0531    1.5598   -0.0983 H       1  LIG1        0.0636
     10 N          -0.7265    3.2395    1.5032 N.pl3   1  LIG1       -0.3579
     11 H          -1.6895    3.0929    1.7697 H       1  LIG1        0.1423
     12 H          -0.1517    3.5597    2.2695 H       1  LIG1        0.1423
     13 C           1.5337   -0.6292   -1.9395 C.1     1  LIG1       -0.0691
     14 C           1.9247   -1.4952   -2.6908 C.1     1  LIG1       -0.1139
     15 H           2.2871   -2.2569   -3.3410 H       1  LIG1        0.1232
     16 C           4.0939    0.8768    0.8611 C.ar    1  LIG1        0.0332
     17 C           5.4902    0.8422    0.7408 C.ar    1  LIG1       -0.0292
     18 C           3.3218    1.1109   -0.2985 C.ar    1  LIG1        0.0075
     19 C           6.1562    1.0372   -0.4736 C.ar    1  LIG1        0.0271
     20 H           6.0891    0.6733    1.6324 H       1  LIG1        0.0643
     21 C           3.9857    1.2917   -1.5192 C.ar    1  LIG1       -0.0101
     22 C           5.3732    1.2544   -1.6219 C.ar    1  LIG1        0.1253
     23 H           3.3907    1.4553   -2.4140 H       1  LIG1        0.0661
     24 N           3.5027    0.7257    2.1288 N.pl3   1  LIG1       -0.3575
     25 H           2.5568    0.3664    2.0970 H       1  LIG1        0.1423
     26 H           4.0714    0.1887    2.7713 H       1  LIG1        0.1423
     27 O           6.0162    1.4042   -2.8272 O.3     1  LIG1       -0.5061
     28 H           5.3515    1.5179   -3.5187 H       1  LIG1        0.2922
     29 C           8.4625    2.0582   -0.8858 C.ar    1  LIG1        0.0469
     30 C           7.6429    0.9618   -0.5218 C.ar    1  LIG1        0.0085
     31 C           8.2768   -0.2185   -0.1416 C.ar    1  LIG1       -0.0293
     32 C           9.6740   -0.3391   -0.1306 C.ar    1  LIG1        0.0547
     33 C          10.4025    0.8013   -0.5544 C.ar    1  LIG1        0.1305
     34 N           9.7903    1.9503   -0.8985 N.ar    1  LIG1       -0.2462
     35 H           7.6726   -1.0715    0.1591 H       1  LIG1        0.0643
     36 C           7.8949    3.4053   -1.2583 C.3     1  LIG1       -0.0217
     37 H           7.1466    3.7411   -0.5324 H       1  LIG1        0.0293
     38 H           7.4029    3.3644   -2.2354 H       1  LIG1        0.0293
     39 H           8.7049    4.1352   -1.3015 H       1  LIG1        0.0293
     40 N          10.2734   -1.4932    0.3615 N.pl3   1  LIG1       -0.3562
     41 H           9.6452   -2.2829    0.4247 H       1  LIG1        0.1424
     42 H          11.1663   -1.7485   -0.0445 H       1  LIG1        0.1424
     43 C          11.8622    0.8447   -0.6064 C.ar    1  LIG1        0.1981
     44 C          12.8854   -0.0427   -0.8163 C.ar    1  LIG1        0.1807
     45 C          14.1333    0.6737   -0.7860 C.ar    1  LIG1        0.1140
     46 C          13.7884    2.0034   -0.5618 C.ar    1  LIG1        0.1728
     47 O          12.4383    2.0985   -0.4581 O.2     1  LIG1       -0.4466
     48 O          12.7685   -1.3775   -1.0745 O.3     1  LIG1       -0.5023
     49 H          13.6622   -1.7503   -1.1243 H       1  LIG1        0.2923
     50 C          15.3737    0.0556   -1.0523 C.1     1  LIG1       -0.0621
     51 C          16.3789   -0.5821   -1.2979 C.1     1  LIG1       -0.1137
     52 H          17.2721   -1.1153   -1.5290 H       1  LIG1        0.1232
     53 C          14.4904    3.2363   -0.4144 C.ar    1  LIG1        0.1085
     54 C          15.8339    3.5604   -0.1976 C.ar    1  LIG1        0.0962
     55 C          15.8906    4.9765   -0.0538 C.ar    1  LIG1        0.1667
     56 C          14.6087    5.5030   -0.1666 C.ar    1  LIG1        0.0964
     57 N          13.7672    4.4368   -0.4440 N.ar    1  LIG1       -0.3472
     58 H          12.7821    4.4349   -0.2095 H       1  LIG1        0.1662
     59 N          16.9283    2.7364   -0.0531 N.pl3   1  LIG1       -0.3534
     60 H          16.9103    1.8411   -0.5207 H       1  LIG1        0.1425
     61 H          17.8145    3.2196   -0.0898 H       1  LIG1        0.1425
     62 O          17.0700    5.6511    0.1517 O.3     1  LIG1       -0.4911
     63 C          17.5546    6.3675   -0.9944 C.3     1  LIG1        0.0790
     64 H          18.5295    6.7726   -0.7157 H       1  LIG1        0.0660
     65 H          17.6669    5.6998   -1.8570 H       1  LIG1        0.0660
     66 H          16.8834    7.1904   -1.2615 H       1  LIG1        0.0660
     67 C          13.0288    7.3750   -0.7906 C.ar    1  LIG1        0.2225
     68 C          14.1437    6.8807   -0.0670 C.ar    1  LIG1        0.0668
     69 C          14.8046    7.7933    0.7702 C.ar    1  LIG1       -0.0035
     70 C          14.3597    9.1097    0.8674 C.ar    1  LIG1        0.1468
     71 C          13.2660    9.5084    0.0673 C.ar    1  LIG1        0.1175
     72 N          12.6192    8.6295   -0.7131 N.ar    1  LIG1       -0.2087
     73 H          15.6462    7.4426    1.3541 H       1  LIG1        0.0663
     74 O          12.2959    6.5910   -1.6298 O.3     1  LIG1       -0.4919
     75 H          12.7902    5.7783   -1.8209 H       1  LIG1        0.2937
     76 O          14.8727   10.0313    1.7289 O.3     1  LIG1       -0.4929
     77 C          16.1494    9.7806    2.3022 C.3     1  LIG1        0.0789
     78 H          16.4163   10.6885    2.8435 H       1  LIG1        0.0660
     79 H          16.1181    8.9378    3.0042 H       1  LIG1        0.0660
     80 H          16.9005    9.5891    1.5276 H       1  LIG1        0.0660
     81 C          13.5336   12.0529   -0.0628 C.ar    1  LIG1        0.0617
     82 C          12.9379   13.3185   -0.0884 C.ar    1  LIG1       -0.0327
     83 C          12.7322   10.8949    0.0620 C.ar    1  LIG1        0.0217
     84 C          11.5475   13.4875    0.0144 C.ar    1  LIG1        0.0252
     85 H          13.5695   14.1903   -0.2004 H       1  LIG1        0.0638
     86 C          11.3476   11.0795    0.1266 C.ar    1  LIG1       -0.0476
     87 C          10.7285   12.3310    0.1170 C.ar    1  LIG1       -0.0390
     88 H          10.7292   10.1906    0.1920 H       1  LIG1        0.0627
     89 N          16.1009   11.9745   -0.4554 N.1     1  LIG1       -0.1908
     90 C          14.9532   11.9870   -0.2618 C.1     1  LIG1        0.0998
     91 C           9.2232   12.3845    0.2329 C.3     1  LIG1       -0.0390
     92 H           8.8272   11.3893    0.4485 H       1  LIG1        0.0278
     93 H           8.7607   12.7442   -0.6909 H       1  LIG1        0.0278
     94 H           8.9028   13.0649    1.0272 H       1  LIG1        0.0278
     95 C          11.0306   14.8531    0.0106 C.ar    1  LIG1        0.1803
     96 C          11.6249   16.0703    0.2782 C.ar    1  LIG1        0.2076
     97 C          10.6227   17.0778    0.0753 C.ar    1  LIG1        0.1978
     98 C           9.4875   16.4213   -0.2985 C.ar    1  LIG1        0.1377
     99 O           9.7250   15.0762   -0.3492 O.2     1  LIG1       -0.4554
    100 H           8.4929   16.7460   -0.5602 H       1  LIG1        0.1069
    101 O          12.9318   16.2677    0.6035 O.3     1  LIG1       -0.4884
    102 C          13.1637   16.9939    1.8192 C.3     1  LIG1        0.0791
    103 H          14.2473   17.0491    1.9335 H       1  LIG1        0.0660
    104 H          12.7456   18.0027    1.7632 H       1  LIG1        0.0660
    105 H          12.7317   16.4632    2.6760 H       1  LIG1        0.0660
    106 O          10.8612   18.4093    0.2473 O.3     1  LIG1       -0.5012
    107 H          10.0551   18.9047    0.0526 H       1  LIG1        0.2924
@<TRIPOS>BOND
     1    28    27    1
     2    15    14    1
     3    27    22    1
     4    14    13    3
     5    23    21    1
     6    38    36    1
     7    13     7    1
     8    65    63    1
     9    75    74    1
    10    74    67    1
    11    22    21   ar
    12    22    19   ar
    13     8     6    1
    14    52    51    1
    15    21    18   ar
    16    39    36    1
    17    51    50    3
    18    66    63    1
    19    36    29    1
    20    36    37    1
    21    49    48    1
    22    48    44    1
    23     7     6   ar
    24     7     4   ar
    25    50    45    1
    26    63    64    1
    27    63    62    1
    28     6     3   ar
    29    34    29   ar
    30    34    33   ar
    31    29    30   ar
    32    44    45   ar
    33    44    43   ar
    34    67    72   ar
    35    67    68   ar
    36    45    46   ar
    37    72    71   ar
    38    93    91    1
    39    43    33    1
    40    43    47   ar
    41    46    47   ar
    42    46    53    1
    43   100    98    1
    44    33    32   ar
    45    30    19    1
    46    30    31   ar
    47    60    59    1
    48    19    17   ar
    49    89    90    3
    50    57    53   ar
    51    57    58    1
    52    57    56   ar
    53    53    54   ar
    54    99    98   ar
    55    99    95   ar
    56    98    97   ar
    57    18     4    1
    58    18    16   ar
    59    90    81    1
    60     4     2   ar
    61    85    82    1
    62    54    55   ar
    63    54    59    1
    64    56    68    1
    65    56    55   ar
    66    31    32   ar
    67    31    35    1
    68     3     9    1
    69     3     1   ar
    70    32    40    1
    71    61    59    1
    72    82    81   ar
    73    82    84   ar
    74    68    69   ar
    75    81    83   ar
    76    55    62    1
    77    42    40    1
    78    95    84    1
    79    95    96   ar
    80    84    87   ar
    81   107   106    1
    82    83    71    1
    83    83    86   ar
    84    71    70   ar
    85    97   106    1
    86    97    96   ar
    87    87    86   ar
    88    87    91    1
    89    86    88    1
    90    91    92    1
    91    91    94    1
    92    96   101    1
    93    40    41    1
    94   101   102    1
    95     2     1   ar
    96     2     5    1
    97     1    10    1
    98    17    16   ar
    99    17    20    1
   100    69    70   ar
   101    69    73    1
   102    16    24    1
   103    70    76    1
   104    10    11    1
   105    10    12    1
   106    80    77    1
   107    76    77    1
   108   104   102    1
   109   102   103    1
   110   102   105    1
   111    25    24    1
   112    24    26    1
   113    77    78    1
   114    77    79    1
