@<TRIPOS>MOLECULE
mol_data/opt/b3lyp/geoms/mol2/4he4ih-4ad-6hl-.out
 57 60 0 0 0
SMALL
GASTEIGER

@<TRIPOS>ATOM
      1 C          -0.2698    1.5944   -1.2450 C.ar    1  LIG1        0.0252
      2 C           1.1319    1.4930   -1.2254 C.ar    1  LIG1       -0.0322
      3 C          -0.9643    1.4905   -0.0272 C.ar    1  LIG1       -0.0399
      4 C           1.8411    1.2876   -0.0412 C.ar    1  LIG1       -0.0005
      5 H           1.6835    1.5624   -2.1594 H       1  LIG1        0.0642
      6 C          -0.2705    1.2955    1.1569 C.ar    1  LIG1       -0.0440
      7 C           1.1336    1.1905    1.1831 C.ar    1  LIG1        0.0325
      8 H          -0.8142    1.2280    2.0936 H       1  LIG1        0.0630
      9 H          -2.0487    1.5620   -0.0162 H       1  LIG1        0.0636
     10 N          -0.9539    1.7355   -2.4470 N.pl3   1  LIG1       -0.3579
     11 H          -1.8823    2.1284   -2.3823 H       1  LIG1        0.1423
     12 H          -0.4222    2.1215   -3.2143 H       1  LIG1        0.1423
     13 C           1.8030    1.0203    2.4331 C.1     1  LIG1       -0.0691
     14 C           2.3399    0.8757    3.5091 C.1     1  LIG1       -0.1139
     15 H           2.8250    0.7603    4.4502 H       1  LIG1        0.1232
     16 C           4.0233   -0.0117    0.0809 C.ar    1  LIG1       -0.0420
     17 C           5.4132    0.0152   -0.0288 C.ar    1  LIG1       -0.0488
     18 C           3.3334    1.2064   -0.1003 C.ar    1  LIG1       -0.0120
     19 C           6.1536    1.1777   -0.2951 C.ar    1  LIG1        0.0031
     20 H           5.9604   -0.9119    0.1221 H       1  LIG1        0.0627
     21 C           4.0493    2.3691   -0.3899 C.ar    1  LIG1       -0.0324
     22 C           5.4487    2.3890   -0.4871 C.ar    1  LIG1        0.0329
     23 H           3.5023    3.2974   -0.5359 H       1  LIG1        0.0642
     24 C           3.3053   -1.3068    0.3778 C.3     1  LIG1       -0.0391
     25 H           3.9828   -2.1586    0.2706 H       1  LIG1        0.0278
     26 H           2.4574   -1.4622   -0.2971 H       1  LIG1        0.0278
     27 H           2.9102   -1.3186    1.3994 H       1  LIG1        0.0278
     28 N           6.1035    3.5997   -0.7359 N.pl3   1  LIG1       -0.3575
     29 H           6.9883    3.5227   -1.2198 H       1  LIG1        0.1423
     30 H           5.5146    4.3127   -1.1447 H       1  LIG1        0.1423
     31 C           8.2539    0.0415   -1.0862 C.ar    1  LIG1       -0.0533
     32 C           9.6385   -0.0792   -1.1399 C.ar    1  LIG1       -0.0521
     33 C           7.6349    1.0910   -0.3822 C.ar    1  LIG1       -0.0149
     34 C          10.4903    0.8420   -0.5097 C.ar    1  LIG1        0.0029
     35 H          10.0793   -0.9197   -1.6687 H       1  LIG1        0.0624
     36 C           8.4719    2.0113    0.2634 C.ar    1  LIG1       -0.0360
     37 C           9.8708    1.8982    0.2012 C.ar    1  LIG1        0.0601
     38 H           8.0389    2.8275    0.8309 H       1  LIG1        0.0637
     39 H           7.6348   -0.6894   -1.5974 H       1  LIG1        0.0624
     40 N          11.2460    3.7108    1.4585 N.1     1  LIG1       -0.1908
     41 C          10.6503    2.8921    0.8851 C.1     1  LIG1        0.0998
     42 C          12.6597    0.5968   -1.8093 C.ar    1  LIG1        0.1242
     43 C          11.9661    0.6817   -0.5760 C.ar    1  LIG1        0.0263
     44 C          12.7214    0.6001    0.6015 C.ar    1  LIG1       -0.0074
     45 C          14.1027    0.4243    0.5357 C.ar    1  LIG1        0.1388
     46 C          14.6788    0.3074   -0.7346 C.ar    1  LIG1        0.0713
     47 N          13.9858    0.3909   -1.8664 N.ar    1  LIG1       -0.2365
     48 H          12.2121    0.6644    1.5552 H       1  LIG1        0.0662
     49 H          15.7505    0.1378   -0.8160 H       1  LIG1        0.0868
     50 N          12.0423    0.7961   -3.0329 N.pl3   1  LIG1       -0.3427
     51 H          12.5877    0.4799   -3.8211 H       1  LIG1        0.1437
     52 H          11.0480    0.6525   -3.0993 H       1  LIG1        0.1437
     53 O          14.9477    0.3331    1.6059 O.3     1  LIG1       -0.4936
     54 C          14.4022    0.5729    2.8947 C.3     1  LIG1        0.0789
     55 H          15.2415    0.5322    3.5903 H       1  LIG1        0.0660
     56 H          13.9270    1.5603    2.9541 H       1  LIG1        0.0660
     57 H          13.6692   -0.1957    3.1749 H       1  LIG1        0.0660
@<TRIPOS>BOND
     1    51    50    1
     2    12    10    1
     3    52    50    1
     4    50    42    1
     5    10    11    1
     6    10     1    1
     7     5     2    1
     8    47    42   ar
     9    47    46   ar
    10    42    43   ar
    11    35    32    1
    12    39    31    1
    13     1     2   ar
    14     1     3   ar
    15     2     4   ar
    16    29    28    1
    17    30    28    1
    18    32    31   ar
    19    32    34   ar
    20    31    33   ar
    21    49    46    1
    22    28    22    1
    23    46    45   ar
    24    43    34    1
    25    43    44   ar
    26    23    21    1
    27    34    37   ar
    28    22    21   ar
    29    22    19   ar
    30    21    18   ar
    31    33    19    1
    32    33    36   ar
    33    26    24    1
    34    19    17   ar
    35    18     4    1
    36    18    16   ar
    37     4     7   ar
    38    17    16   ar
    39    17    20    1
    40     3     9    1
    41     3     6   ar
    42    16    24    1
    43    37    36   ar
    44    37    41    1
    45    36    38    1
    46    25    24    1
    47    24    27    1
    48    45    44   ar
    49    45    53    1
    50    44    48    1
    51    41    40    3
    52     6     7   ar
    53     6     8    1
    54     7    13    1
    55    53    54    1
    56    13    14    3
    57    54    56    1
    58    54    57    1
    59    54    55    1
    60    14    15    1
