@<TRIPOS>MOLECULE
mol_data/opt/b3lyp/geoms/mol2/4hf4ei4ha-6ie.out
 56 59 0 0 0
SMALL
GASTEIGER

@<TRIPOS>ATOM
      1 C          -0.2740    0.0091   -0.1044 C.ar    1  LIG1        0.0253
      2 C           1.1244    0.0419   -0.0248 C.ar    1  LIG1       -0.0298
      3 C          -0.9570    1.2257   -0.2321 C.ar    1  LIG1       -0.0376
      4 C           1.8523    1.2377   -0.0668 C.ar    1  LIG1        0.0265
      5 H           1.6692   -0.8917    0.0760 H       1  LIG1        0.0643
      6 C          -0.2522    2.4256   -0.2799 C.ar    1  LIG1       -0.0178
      7 C           1.1410    2.4470   -0.2003 C.ar    1  LIG1        0.1247
      8 H          -0.7967    3.3629   -0.3788 H       1  LIG1        0.0655
      9 H          -2.0422    1.2361   -0.2897 H       1  LIG1        0.0637
     10 N          -0.9732   -1.2049    0.0026 N.pl3   1  LIG1       -0.3579
     11 H          -1.8670   -1.2094   -0.4716 H       1  LIG1        0.1423
     12 H          -0.4283   -2.0167   -0.2575 H       1  LIG1        0.1423
     13 O           1.8495    3.6249   -0.2394 O.3     1  LIG1       -0.5062
     14 H           1.2219    4.3583   -0.2666 H       1  LIG1        0.2922
     15 C           4.0454    0.5191    1.0096 C.ar    1  LIG1        0.0331
     16 C           5.4517    0.5120    0.9808 C.ar    1  LIG1       -0.0377
     17 C           3.3397    1.2155   -0.0027 C.ar    1  LIG1        0.0013
     18 C           6.1859    1.1751   -0.0070 C.ar    1  LIG1       -0.0120
     19 H           5.9806   -0.0179    1.7661 H       1  LIG1        0.0636
     20 C           4.0891    1.8699   -0.9881 C.ar    1  LIG1       -0.0492
     21 C           5.4859    1.8689   -1.0215 C.ar    1  LIG1       -0.0420
     22 H           3.5525    2.4009   -1.7673 H       1  LIG1        0.0627
     23 C           3.3919   -0.1545    2.0899 C.1     1  LIG1       -0.0690
     24 C           2.8953   -0.7347    3.0290 C.1     1  LIG1       -0.1139
     25 H           2.4355   -1.2325    3.8508 H       1  LIG1        0.1232
     26 C           6.2017    2.5900   -2.1405 C.3     1  LIG1       -0.0391
     27 H           5.5192    2.7860   -2.9718 H       1  LIG1        0.0278
     28 H           7.0505    2.0116   -2.5164 H       1  LIG1        0.0278
     29 H           6.6020    3.5556   -1.8107 H       1  LIG1        0.0278
     30 C           8.3965   -0.0645   -0.1138 C.ar    1  LIG1        0.0329
     31 C           9.8002   -0.0416   -0.0549 C.ar    1  LIG1       -0.0327
     32 C           7.6796    1.1468    0.0478 C.ar    1  LIG1        0.0031
     33 C          10.5107    1.1409    0.1740 C.ar    1  LIG1       -0.0144
     34 H          10.3449   -0.9758   -0.1680 H       1  LIG1        0.0642
     35 C           8.4053    2.3224    0.2740 C.ar    1  LIG1       -0.0517
     36 C           9.7952    2.3363    0.3418 C.ar    1  LIG1       -0.0533
     37 H           7.8557    3.2503    0.4046 H       1  LIG1        0.0624
     38 N           7.7331   -1.2765   -0.2813 N.pl3   1  LIG1       -0.3575
     39 H           6.7797   -1.2129   -0.6093 H       1  LIG1        0.1423
     40 H           8.2640   -2.0064   -0.7344 H       1  LIG1        0.1423
     41 H          10.3221    3.2707    0.5013 H       1  LIG1        0.0624
     42 C          12.7750    1.6217    1.2615 C.ar    1  LIG1        0.0460
     43 C          12.0004    1.1144    0.1897 C.ar    1  LIG1        0.0044
     44 C          12.6817    0.5499   -0.8920 C.ar    1  LIG1       -0.0354
     45 C          14.0830    0.5131   -0.9131 C.ar    1  LIG1        0.0433
     46 C          14.7488    1.0647    0.1950 C.ar    1  LIG1        0.0433
     47 N          14.1192    1.5899    1.2428 N.ar    1  LIG1       -0.2583
     48 H          12.1215    0.1507   -1.7313 H       1  LIG1        0.0637
     49 H          15.8363    1.0681    0.2248 H       1  LIG1        0.0842
     50 C          12.1649    2.2080    2.5111 C.3     1  LIG1       -0.0218
     51 H          11.2106    1.7397    2.7613 H       1  LIG1        0.0293
     52 H          11.9809    3.2829    2.3956 H       1  LIG1        0.0293
     53 H          12.8675    2.0854    3.3376 H       1  LIG1        0.0293
     54 C          14.8071   -0.0505   -2.0059 C.1     1  LIG1       -0.0681
     55 C          15.4264   -0.5277   -2.9296 C.1     1  LIG1       -0.1139
     56 H          15.9736   -0.9458   -3.7425 H       1  LIG1        0.1232
@<TRIPOS>BOND
     1    56    55    1
     2    27    26    1
     3    55    54    3
     4    28    26    1
     5    26    29    1
     6    26    21    1
     7    54    45    1
     8    22    20    1
     9    48    44    1
    10    21    20   ar
    11    21    18   ar
    12    20    17   ar
    13    45    44   ar
    14    45    46   ar
    15    44    43   ar
    16    40    38    1
    17    39    38    1
    18    11    10    1
    19     8     6    1
    20     9     3    1
    21    38    30    1
    22     6     3   ar
    23     6     7   ar
    24    14    13    1
    25    12    10    1
    26    13     7    1
    27     3     1   ar
    28     7     4   ar
    29    34    31    1
    30    30    31   ar
    31    30    32   ar
    32     1     2   ar
    33     1    10    1
    34     4     2   ar
    35     4    17    1
    36    31    33   ar
    37     2     5    1
    38    18    32    1
    39    18    16   ar
    40    17    15   ar
    41    32    35   ar
    42    33    43    1
    43    33    36   ar
    44    43    42   ar
    45    46    49    1
    46    46    47   ar
    47    35    36   ar
    48    35    37    1
    49    36    41    1
    50    16    15   ar
    51    16    19    1
    52    15    23    1
    53    47    42   ar
    54    42    50    1
    55    23    24    3
    56    52    50    1
    57    50    51    1
    58    50    53    1
    59    24    25    1
