@<TRIPOS>MOLECULE
mol_data/opt/b3lyp/geoms/mol2/4hg.out
 15 15 0 0 0
SMALL
GASTEIGER

@<TRIPOS>ATOM
      1 C           0.0656    0.0067   -0.0545 C.ar    1  LIG1        0.0246
      2 C           1.4699    0.0185   -0.0342 C.ar    1  LIG1       -0.0400
      3 C          -0.6042    1.2399   -0.0412 C.ar    1  LIG1       -0.0400
      4 C           2.1748    1.2171   -0.0026 C.ar    1  LIG1       -0.0468
      5 H           2.0146   -0.9224   -0.0389 H       1  LIG1        0.0636
      6 C           0.1026    2.4393   -0.0095 C.ar    1  LIG1       -0.0468
      7 C           1.5011    2.4444    0.0098 C.ar    1  LIG1        0.0049
      8 H          -0.4492    3.3751   -0.0023 H       1  LIG1        0.0629
      9 H           3.2605    1.1929    0.0104 H       1  LIG1        0.0629
     10 H          -1.6913    1.2611   -0.0515 H       1  LIG1        0.0636
     11 N          -0.6440   -1.1985   -0.0259 N.pl3   1  LIG1       -0.3580
     12 H          -1.5809   -1.1466   -0.4027 H       1  LIG1        0.1423
     13 H          -0.1420   -1.9933   -0.3986 H       1  LIG1        0.1423
     14 S           2.4784    3.9474    0.0464 S.3     1  LIG1       -0.1426
     15 H           1.4451    4.8111    0.0517 H       1  LIG1        0.1071
@<TRIPOS>BOND
     1    12    11    1
     2    13    11    1
     3     1     3   ar
     4     1     2   ar
     5     1    11    1
     6    10     3    1
     7     3     6   ar
     8     5     2    1
     9     2     4   ar
    10     6     8    1
    11     6     7   ar
    12     4     7   ar
    13     4     9    1
    14     7    14    1
    15    14    15    1
