@<TRIPOS>MOLECULE
mol_data/opt/b3lyp/geoms/mol2/4hg4hg-4hg-4hg.out
 54 57 0 0 0
SMALL
GASTEIGER

@<TRIPOS>ATOM
      1 C          -0.2457    1.5528    1.0450 C.ar    1  LIG1        0.0252
      2 C           1.1532    1.4801    0.9869 C.ar    1  LIG1       -0.0322
      3 C          -0.9718    1.2011   -0.1040 C.ar    1  LIG1       -0.0400
      4 C           1.8301    1.0737   -0.1708 C.ar    1  LIG1       -0.0012
      5 H           1.7405    1.7544    1.8590 H       1  LIG1        0.0642
      6 C          -0.3143    0.7919   -1.2583 C.ar    1  LIG1       -0.0462
      7 C           1.0829    0.7144   -1.3110 C.ar    1  LIG1        0.0126
      8 H          -0.9050    0.5244   -2.1297 H       1  LIG1        0.0629
      9 H          -2.0574    1.2536   -0.0950 H       1  LIG1        0.0636
     10 N          -0.8922    2.0241    2.1891 N.pl3   1  LIG1       -0.3579
     11 H          -1.8484    1.7163    2.3005 H       1  LIG1        0.1423
     12 H          -0.3659    1.9334    3.0473 H       1  LIG1        0.1423
     13 S           1.9436    0.1539   -2.7861 S.3     1  LIG1       -0.1420
     14 H           0.8346   -0.2296   -3.4490 H       1  LIG1        0.1071
     15 C           4.0315    0.1140    0.6364 C.ar    1  LIG1        0.0330
     16 C           5.4324    0.1422    0.6109 C.ar    1  LIG1       -0.0316
     17 C           3.3246    1.0406   -0.1647 C.ar    1  LIG1        0.0049
     18 C           6.1538    1.0482   -0.1752 C.ar    1  LIG1       -0.0012
     19 H           5.9866   -0.5620    1.2257 H       1  LIG1        0.0642
     20 C           4.0452    1.9474   -0.9479 C.ar    1  LIG1       -0.0385
     21 C           5.4428    1.9633   -0.9771 C.ar    1  LIG1        0.0132
     22 H           3.4847    2.6552   -1.5510 H       1  LIG1        0.0635
     23 N           3.3621   -0.7754    1.4784 N.pl3   1  LIG1       -0.3575
     24 H           2.4108   -0.9824    1.2052 H       1  LIG1        0.1423
     25 H           3.8848   -1.6087    1.7117 H       1  LIG1        0.1423
     26 S           6.3456    3.1135   -2.0222 S.3     1  LIG1       -0.1420
     27 H           5.2721    3.5210   -2.7275 H       1  LIG1        0.1071
     28 C           8.3729   -0.0921   -0.6129 C.ar    1  LIG1        0.0330
     29 C           9.7726   -0.0615   -0.5365 C.ar    1  LIG1       -0.0316
     30 C           7.6469    1.0229   -0.1327 C.ar    1  LIG1        0.0049
     31 C          10.4736    1.0257   -0.0074 C.ar    1  LIG1       -0.0012
     32 H          10.3420   -0.9075   -0.9124 H       1  LIG1        0.0642
     33 C           8.3473    2.1053    0.4092 C.ar    1  LIG1       -0.0385
     34 C           9.7431    2.1294    0.4767 C.ar    1  LIG1        0.0132
     35 H           7.7730    2.9411    0.7974 H       1  LIG1        0.0635
     36 N           7.7224   -1.2201   -1.1138 N.pl3   1  LIG1       -0.3575
     37 H           6.7866   -1.0525   -1.4590 H       1  LIG1        0.1423
     38 H           8.2740   -1.7733   -1.7555 H       1  LIG1        0.1423
     39 S          10.6328    3.5044    1.2174 S.3     1  LIG1       -0.1420
     40 H           9.5773    4.3408    1.2639 H       1  LIG1        0.1071
     41 C          12.7502    1.7024   -0.8947 C.ar    1  LIG1        0.0325
     42 C          14.1511    1.5999   -0.8251 C.ar    1  LIG1       -0.0394
     43 C          11.9680    0.9786    0.0402 C.ar    1  LIG1        0.0049
     44 C          14.7673    0.8064    0.1342 C.ar    1  LIG1       -0.0468
     45 H          14.7569    2.1449   -1.5448 H       1  LIG1        0.0636
     46 C          12.6082    0.1768    0.9903 C.ar    1  LIG1       -0.0390
     47 C          14.0017    0.0886    1.0602 C.ar    1  LIG1        0.0054
     48 H          12.0010   -0.3818    1.6954 H       1  LIG1        0.0635
     49 H          15.8501    0.7412    0.1672 H       1  LIG1        0.0629
     50 N          12.1524    2.4412   -1.9061 N.pl3   1  LIG1       -0.3575
     51 H          11.2020    2.7348   -1.7255 H       1  LIG1        0.1423
     52 H          12.7198    3.1840   -2.2892 H       1  LIG1        0.1423
     53 S          14.7941   -0.9855    2.2686 S.3     1  LIG1       -0.1426
     54 H          14.8632   -0.1088    3.2956 H       1  LIG1        0.1071
@<TRIPOS>BOND
     1    14    13    1
     2    13     7    1
     3    27    26    1
     4    52    50    1
     5     8     6    1
     6    26    21    1
     7    50    51    1
     8    50    41    1
     9    38    36    1
    10    22    20    1
    11    45    42    1
    12    37    36    1
    13     7     6   ar
    14     7     4   ar
    15     6     3   ar
    16    36    28    1
    17    21    20   ar
    18    21    18   ar
    19    20    17   ar
    20    32    29    1
    21    41    42   ar
    22    41    43   ar
    23    42    44   ar
    24    28    29   ar
    25    28    30   ar
    26    29    31   ar
    27    18    30    1
    28    18    16   ar
    29     4    17    1
    30     4     2   ar
    31    17    15   ar
    32    30    33   ar
    33     3     9    1
    34     3     1   ar
    35    31    43    1
    36    31    34   ar
    37    43    46   ar
    38    44    49    1
    39    44    47   ar
    40    33    34   ar
    41    33    35    1
    42    34    39    1
    43    16    15   ar
    44    16    19    1
    45    15    23    1
    46     2     1   ar
    47     2     5    1
    48    46    47   ar
    49    46    48    1
    50     1    10    1
    51    47    53    1
    52    24    23    1
    53    39    40    1
    54    23    25    1
    55    10    11    1
    56    10    12    1
    57    53    54    1
