@<TRIPOS>MOLECULE
mol_data/opt/b3lyp/geoms/mol2/4hg4hg-4hg-.out
 41 43 0 0 0
SMALL
GASTEIGER

@<TRIPOS>ATOM
      1 C          -0.1803    0.8455    1.0460 C.ar    1  LIG1        0.0252
      2 C           1.2212    0.8301    1.0125 C.ar    1  LIG1       -0.0322
      3 C          -0.8650    1.1130   -0.1502 C.ar    1  LIG1       -0.0400
      4 C           1.9402    1.0726   -0.1655 C.ar    1  LIG1       -0.0012
      5 H           1.7768    0.6335    1.9254 H       1  LIG1        0.0642
      6 C          -0.1654    1.3515   -1.3275 C.ar    1  LIG1       -0.0462
      7 C           1.2345    1.3288   -1.3586 C.ar    1  LIG1        0.0126
      8 H          -0.7245    1.5526   -2.2367 H       1  LIG1        0.0629
      9 H          -1.9516    1.1395   -0.1570 H       1  LIG1        0.0636
     10 N          -0.8707    0.6657    2.2462 N.pl3   1  LIG1       -0.3579
     11 H          -1.8187    0.3282    2.1507 H       1  LIG1        0.1423
     12 H          -0.3635    0.1624    2.9611 H       1  LIG1        0.1423
     13 S           2.1507    1.5980   -2.8813 S.3     1  LIG1       -0.1420
     14 H           1.0721    1.5841   -3.6892 H       1  LIG1        0.1071
     15 C           4.1474   -0.1359    0.1290 C.ar    1  LIG1        0.0330
     16 C           5.5480   -0.0834    0.1663 C.ar    1  LIG1       -0.0316
     17 C           3.4343    1.0593   -0.1213 C.ar    1  LIG1        0.0049
     18 C           6.2614    1.1015   -0.0340 C.ar    1  LIG1       -0.0012
     19 H           6.1080   -0.9973    0.3463 H       1  LIG1        0.0642
     20 C           4.1470    2.2480   -0.3083 C.ar    1  LIG1       -0.0385
     21 C           5.5435    2.2908   -0.2726 C.ar    1  LIG1        0.0132
     22 H           3.5816    3.1600   -0.4742 H       1  LIG1        0.0635
     23 N           3.4830   -1.3376    0.3778 N.pl3   1  LIG1       -0.3575
     24 H           2.5452   -1.3876    0.0026 H       1  LIG1        0.1423
     25 H           4.0229   -2.1669    0.1709 H       1  LIG1        0.1423
     26 S           6.4505    3.8302   -0.4671 S.3     1  LIG1       -0.1420
     27 H           5.3950    4.5583   -0.8806 H       1  LIG1        0.1071
     28 C           8.5320    1.1161   -1.1622 C.ar    1  LIG1        0.0325
     29 C           9.9330    1.0551   -1.0539 C.ar    1  LIG1       -0.0394
     30 C           7.7559    1.0722    0.0234 C.ar    1  LIG1        0.0049
     31 C          10.5548    0.9497    0.1837 C.ar    1  LIG1       -0.0468
     32 H          10.5340    1.0790   -1.9596 H       1  LIG1        0.0636
     33 C           8.4017    0.9546    1.2582 C.ar    1  LIG1       -0.0390
     34 C           9.7952    0.9045    1.3584 C.ar    1  LIG1        0.0054
     35 H           7.7988    0.9111    2.1596 H       1  LIG1        0.0635
     36 H          11.6375    0.9013    0.2420 H       1  LIG1        0.0629
     37 N           7.9284    1.1445   -2.4118 N.pl3   1  LIG1       -0.3575
     38 H           6.9815    1.4983   -2.4288 H       1  LIG1        0.1423
     39 H           8.4963    1.5266   -3.1548 H       1  LIG1        0.1423
     40 S          10.5938    0.7090    2.9599 S.3     1  LIG1       -0.1426
     41 H          10.6825    2.0157    3.2958 H       1  LIG1        0.1071
@<TRIPOS>BOND
     1    14    13    1
     2    39    37    1
     3    13     7    1
     4    38    37    1
     5    37    28    1
     6     8     6    1
     7    32    29    1
     8     7     6   ar
     9     7     4   ar
    10     6     3   ar
    11    28    29   ar
    12    28    30   ar
    13    29    31   ar
    14    27    26    1
    15    22    20    1
    16    26    21    1
    17    20    21   ar
    18    20    17   ar
    19    21    18   ar
    20     4    17    1
    21     4     2   ar
    22     9     3    1
    23     3     1   ar
    24    17    15   ar
    25    18    30    1
    26    18    16   ar
    27    24    23    1
    28    30    33   ar
    29    15    16   ar
    30    15    23    1
    31    16    19    1
    32    25    23    1
    33    31    36    1
    34    31    34   ar
    35     2     1   ar
    36     2     5    1
    37     1    10    1
    38    33    34   ar
    39    33    35    1
    40    34    40    1
    41    11    10    1
    42    10    12    1
    43    40    41    1
