@<TRIPOS>MOLECULE
mol_data/opt/b3lyp/geoms/mol2/4hg4hg-4hg.out
 41 43 0 0 0
SMALL
GASTEIGER

@<TRIPOS>ATOM
      1 C          -0.1626    1.1268    1.0919 C.ar    1  LIG1        0.0252
      2 C           1.2391    1.1062    1.0471 C.ar    1  LIG1       -0.0322
      3 C          -0.8621    1.0817   -0.1245 C.ar    1  LIG1       -0.0400
      4 C           1.9426    1.0437   -0.1607 C.ar    1  LIG1       -0.0012
      5 H           1.8062    1.1311    1.9738 H       1  LIG1        0.0642
      6 C          -0.1773    1.0281   -1.3330 C.ar    1  LIG1       -0.0462
      7 C           1.2222    1.0079   -1.3720 C.ar    1  LIG1        0.0126
      8 H          -0.7465    1.0095   -2.2580 H       1  LIG1        0.0629
      9 H          -1.9489    1.0989   -0.1243 H       1  LIG1        0.0636
     10 N          -0.8390    1.2458    2.3069 N.pl3   1  LIG1       -0.3579
     11 H          -1.7865    0.8940    2.3074 H       1  LIG1        0.1423
     12 H          -0.3227    0.9315    3.1171 H       1  LIG1        0.1423
     13 S           2.1328    0.9839   -2.9218 S.3     1  LIG1       -0.1420
     14 H           1.0574    0.7932   -3.7107 H       1  LIG1        0.1071
     15 C           4.1652   -0.1646   -0.3451 C.ar    1  LIG1        0.0330
     16 C           5.5651   -0.1113   -0.2800 C.ar    1  LIG1       -0.0316
     17 C           3.4381    1.0296   -0.1305 C.ar    1  LIG1        0.0049
     18 C           6.2609    1.0701   -0.0042 C.ar    1  LIG1       -0.0012
     19 H           6.1366   -1.0225   -0.4353 H       1  LIG1        0.0642
     20 C           4.1331    2.2096    0.1515 C.ar    1  LIG1       -0.0385
     21 C           5.5291    2.2549    0.2096 C.ar    1  LIG1        0.0132
     22 H           3.5531    3.1133    0.3139 H       1  LIG1        0.0635
     23 N           3.5157   -1.3824   -0.5418 N.pl3   1  LIG1       -0.3575
     24 H           2.5826   -1.3062   -0.9244 H       1  LIG1        0.1423
     25 H           4.0656   -2.0744   -1.0324 H       1  LIG1        0.1423
     26 S           6.4178    3.7812    0.5361 S.3     1  LIG1       -0.1420
     27 H           5.3367    4.5828    0.4624 H       1  LIG1        0.1071
     28 C           8.5206    0.9438   -1.1334 C.ar    1  LIG1        0.0325
     29 C           9.9225    0.9098   -1.0344 C.ar    1  LIG1       -0.0394
     30 C           7.7553    1.0472    0.0545 C.ar    1  LIG1        0.0049
     31 C          10.5562    0.9822    0.2001 C.ar    1  LIG1       -0.0468
     32 H          10.5155    0.8244   -1.9416 H       1  LIG1        0.0636
     33 C           8.4126    1.1110    1.2871 C.ar    1  LIG1       -0.0390
     34 C           9.8077    1.0912    1.3774 C.ar    1  LIG1        0.0054
     35 H           7.8191    1.1776    2.1932 H       1  LIG1        0.0635
     36 H          11.6398    0.9568    0.2534 H       1  LIG1        0.0629
     37 N           7.9022    0.8249   -2.3723 N.pl3   1  LIG1       -0.3575
     38 H           6.9480    1.1558   -2.4151 H       1  LIG1        0.1423
     39 H           8.4574    1.1187   -3.1633 H       1  LIG1        0.1423
     40 S          10.6283    1.1258    2.9796 S.3     1  LIG1       -0.1426
     41 H          10.6158    2.4635    3.1748 H       1  LIG1        0.1071
@<TRIPOS>BOND
     1    14    13    1
     2    39    37    1
     3    13     7    1
     4    38    37    1
     5    37    28    1
     6     8     6    1
     7    32    29    1
     8     7     6   ar
     9     7     4   ar
    10     6     3   ar
    11    28    29   ar
    12    28    30   ar
    13    29    31   ar
    14    25    23    1
    15    24    23    1
    16    23    15    1
    17    19    16    1
    18    15    16   ar
    19    15    17   ar
    20    16    18   ar
    21     4    17    1
    22     4     2   ar
    23    17    20   ar
    24     3     9    1
    25     3     1   ar
    26    18    30    1
    27    18    21   ar
    28    30    33   ar
    29    20    21   ar
    30    20    22    1
    31    31    36    1
    32    31    34   ar
    33    21    26    1
    34    27    26    1
    35     2     1   ar
    36     2     5    1
    37     1    10    1
    38    33    34   ar
    39    33    35    1
    40    34    40    1
    41    10    11    1
    42    10    12    1
    43    40    41    1
