@<TRIPOS>MOLECULE
mol_data/opt/b3lyp/geoms/mol2/4hg4hg4hg-.out
 41 43 0 0 0
SMALL
GASTEIGER

@<TRIPOS>ATOM
      1 C          -0.1808    0.8237    1.0389 C.ar    1  LIG1        0.0252
      2 C           1.2208    0.8141    1.0072 C.ar    1  LIG1       -0.0322
      3 C          -0.8650    1.0903   -0.1577 C.ar    1  LIG1       -0.0400
      4 C           1.9403    1.0617   -0.1694 C.ar    1  LIG1       -0.0012
      5 H           1.7761    0.6183    1.9205 H       1  LIG1        0.0642
      6 C          -0.1649    1.3337   -1.3337 C.ar    1  LIG1       -0.0462
      7 C           1.2351    1.3170   -1.3630 C.ar    1  LIG1        0.0126
      8 H          -0.7236    1.5341   -2.2433 H       1  LIG1        0.0629
      9 H          -1.9517    1.1123   -0.1660 H       1  LIG1        0.0636
     10 N          -0.8720    0.6388    2.2378 N.pl3   1  LIG1       -0.3579
     11 H          -1.8183    0.2973    2.1406 H       1  LIG1        0.1423
     12 H          -0.3634    0.1372    2.9529 H       1  LIG1        0.1423
     13 S           2.1523    1.5930   -2.8839 S.3     1  LIG1       -0.1420
     14 H           1.0748    1.5766   -3.6933 H       1  LIG1        0.1071
     15 C           4.1521   -0.1387    0.1243 C.ar    1  LIG1        0.0330
     16 C           5.5524   -0.0806    0.1635 C.ar    1  LIG1       -0.0316
     17 C           3.4345    1.0544   -0.1233 C.ar    1  LIG1        0.0049
     18 C           6.2612    1.1078   -0.0324 C.ar    1  LIG1       -0.0012
     19 H           6.1158   -0.9927    0.3416 H       1  LIG1        0.0642
     20 C           4.1425    2.2466   -0.3058 C.ar    1  LIG1       -0.0385
     21 C           5.5388    2.2950   -0.2683 C.ar    1  LIG1        0.0132
     22 H           3.5736    3.1567   -0.4698 H       1  LIG1        0.0635
     23 N           3.4924   -1.3438    0.3685 N.pl3   1  LIG1       -0.3575
     24 H           2.5547   -1.3960   -0.0065 H       1  LIG1        0.1423
     25 H           4.0355   -2.1703    0.1589 H       1  LIG1        0.1423
     26 S           6.4399    3.8385   -0.4570 S.3     1  LIG1       -0.1420
     27 H           5.3818    4.5638   -0.8690 H       1  LIG1        0.1071
     28 C           8.5331    1.1348   -1.1578 C.ar    1  LIG1        0.0325
     29 C           9.9342    1.0796   -1.0481 C.ar    1  LIG1       -0.0394
     30 C           7.7558    1.0847    0.0268 C.ar    1  LIG1        0.0049
     31 C          10.5550    0.9738    0.1900 C.ar    1  LIG1       -0.0468
     32 H          10.5361    1.1083   -1.9530 H       1  LIG1        0.0636
     33 C           8.4006    0.9667    1.2621 C.ar    1  LIG1       -0.0390
     34 C           9.7942    0.9224    1.3637 C.ar    1  LIG1        0.0054
     35 H           7.7969    0.9182    2.1626 H       1  LIG1        0.0635
     36 H          11.6378    0.9301    0.2495 H       1  LIG1        0.0629
     37 N           7.9308    1.1638   -2.4080 N.pl3   1  LIG1       -0.3575
     38 H           6.9822    1.5129   -2.4251 H       1  LIG1        0.1423
     39 H           8.4976    1.5505   -3.1494 H       1  LIG1        0.1423
     40 S          10.5919    0.7266    2.9657 S.3     1  LIG1       -0.1426
     41 H          10.6747    2.0328    3.3048 H       1  LIG1        0.1071
@<TRIPOS>BOND
     1    14    13    1
     2    39    37    1
     3    13     7    1
     4    38    37    1
     5    37    28    1
     6     8     6    1
     7    32    29    1
     8     7     6   ar
     9     7     4   ar
    10     6     3   ar
    11    28    29   ar
    12    28    30   ar
    13    29    31   ar
    14    27    26    1
    15    22    20    1
    16    26    21    1
    17    20    21   ar
    18    20    17   ar
    19    21    18   ar
    20     4    17    1
    21     4     2   ar
    22     9     3    1
    23     3     1   ar
    24    17    15   ar
    25    18    30    1
    26    18    16   ar
    27    24    23    1
    28    30    33   ar
    29    15    16   ar
    30    15    23    1
    31    25    23    1
    32    16    19    1
    33    31    36    1
    34    31    34   ar
    35     2     1   ar
    36     2     5    1
    37     1    10    1
    38    33    34   ar
    39    33    35    1
    40    34    40    1
    41    11    10    1
    42    10    12    1
    43    40    41    1
