@<TRIPOS>MOLECULE
mol_data/opt/b3lyp/geoms/mol2/4hg4hg4hg.out
 41 43 0 0 0
SMALL
GASTEIGER

@<TRIPOS>ATOM
      1 C          -0.1827    0.8216    1.0282 C.ar    1  LIG1        0.0252
      2 C           1.2190    0.8105    0.9987 C.ar    1  LIG1       -0.0322
      3 C          -0.8646    1.0983   -0.1675 C.ar    1  LIG1       -0.0400
      4 C           1.9407    1.0663   -0.1747 C.ar    1  LIG1       -0.0012
      5 H           1.7724    0.6069    1.9114 H       1  LIG1        0.0642
      6 C          -0.1622    1.3501   -1.3403 C.ar    1  LIG1       -0.0462
      7 C           1.2378    1.3319   -1.3675 C.ar    1  LIG1        0.0126
      8 H          -0.7191    1.5582   -2.2493 H       1  LIG1        0.0629
      9 H          -1.9512    1.1217   -0.1774 H       1  LIG1        0.0636
     10 N          -0.8762    0.6282    2.2244 N.pl3   1  LIG1       -0.3579
     11 H          -1.8229    0.2892    2.1230 H       1  LIG1        0.1423
     12 H          -0.3696    0.1200    2.9363 H       1  LIG1        0.1423
     13 S           2.1580    1.6186   -2.8845 S.3     1  LIG1       -0.1420
     14 H           1.0818    1.6105   -3.6958 H       1  LIG1        0.1071
     15 C           4.1505   -0.1392    0.1128 C.ar    1  LIG1        0.0330
     16 C           5.5508   -0.0832    0.1548 C.ar    1  LIG1       -0.0316
     17 C           3.4348    1.0568   -0.1262 C.ar    1  LIG1        0.0049
     18 C           6.2614    1.1060   -0.0302 C.ar    1  LIG1       -0.0012
     19 H           6.1128   -0.9974    0.3263 H       1  LIG1        0.0642
     20 C           4.1446    2.2495   -0.2978 C.ar    1  LIG1       -0.0385
     21 C           5.5409    2.2959   -0.2575 C.ar    1  LIG1        0.0132
     22 H           3.5771    3.1617   -0.4553 H       1  LIG1        0.0635
     23 N           3.4888   -1.3454    0.3461 N.pl3   1  LIG1       -0.3575
     24 H           2.5518   -1.3934   -0.0312 H       1  LIG1        0.1423
     25 H           4.0313   -2.1708    0.1310 H       1  LIG1        0.1423
     26 S           6.4441    3.8398   -0.4322 S.3     1  LIG1       -0.1420
     27 H           5.3875    4.5696   -0.8401 H       1  LIG1        0.1071
     28 C           8.5352    1.1394   -1.1516 C.ar    1  LIG1        0.0325
     29 C           9.9360    1.0815   -1.0400 C.ar    1  LIG1       -0.0394
     30 C           7.7558    1.0803    0.0312 C.ar    1  LIG1        0.0049
     31 C          10.5547    0.9645    0.1982 C.ar    1  LIG1       -0.0468
     32 H          10.5395    1.1170   -1.9436 H       1  LIG1        0.0636
     33 C           8.3985    0.9511    1.2666 C.ar    1  LIG1       -0.0390
     34 C           9.7918    0.9041    1.3701 C.ar    1  LIG1        0.0054
     35 H           7.7932    0.8958    2.1657 H       1  LIG1        0.0635
     36 H          11.6372    0.9188    0.2591 H       1  LIG1        0.0629
     37 N           7.9351    1.1796   -2.4025 N.pl3   1  LIG1       -0.3575
     38 H           6.9870    1.5301   -2.4183 H       1  LIG1        0.1423
     39 H           8.5037    1.5718   -3.1396 H       1  LIG1        0.1423
     40 S          10.5866    0.6937    2.9718 S.3     1  LIG1       -0.1426
     41 H          10.6705    1.9969    3.3220 H       1  LIG1        0.1071
@<TRIPOS>BOND
     1    14    13    1
     2    39    37    1
     3    13     7    1
     4    38    37    1
     5    37    28    1
     6     8     6    1
     7    32    29    1
     8     7     6   ar
     9     7     4   ar
    10     6     3   ar
    11    28    29   ar
    12    28    30   ar
    13    29    31   ar
    14    27    26    1
    15    22    20    1
    16    26    21    1
    17    20    21   ar
    18    20    17   ar
    19    21    18   ar
    20     9     3    1
    21     4    17    1
    22     4     2   ar
    23     3     1   ar
    24    17    15   ar
    25    24    23    1
    26    18    30    1
    27    18    16   ar
    28    30    33   ar
    29    15    16   ar
    30    15    23    1
    31    25    23    1
    32    16    19    1
    33    31    36    1
    34    31    34   ar
    35     2     1   ar
    36     2     5    1
    37     1    10    1
    38    33    34   ar
    39    33    35    1
    40    34    40    1
    41    11    10    1
    42    10    12    1
    43    40    41    1
