@<TRIPOS>MOLECULE
mol_data/opt/b3lyp/geoms/mol2/4hg4hg-4hg4hg-.out
 54 57 0 0 0
SMALL
GASTEIGER

@<TRIPOS>ATOM
      1 C          -0.2385    1.9427    0.7658 C.ar    1  LIG1        0.0252
      2 C           1.1612    1.8668    0.7188 C.ar    1  LIG1       -0.0322
      3 C          -0.9737    1.0951   -0.0782 C.ar    1  LIG1       -0.0400
      4 C           1.8285    0.9817   -0.1350 C.ar    1  LIG1       -0.0012
      5 H           1.7556    2.5050    1.3672 H       1  LIG1        0.0642
      6 C          -0.3251    0.2166   -0.9382 C.ar    1  LIG1       -0.0462
      7 C           1.0725    0.1448   -0.9812 C.ar    1  LIG1        0.0126
      8 H          -0.9216   -0.4153   -1.5900 H       1  LIG1        0.0629
      9 H          -2.0600    1.1315   -0.0679 H       1  LIG1        0.0636
     10 N          -0.8787    2.8732    1.5857 N.pl3   1  LIG1       -0.3579
     11 H          -1.8273    2.6377    1.8433 H       1  LIG1        0.1423
     12 H          -0.3406    3.1834    2.3833 H       1  LIG1        0.1423
     13 S           1.9363   -0.9486   -2.1168 S.3     1  LIG1       -0.1420
     14 H           0.8385   -1.6097   -2.5330 H       1  LIG1        0.1071
     15 C           4.0462   -0.0757    0.5005 C.ar    1  LIG1        0.0330
     16 C           5.4471   -0.0201    0.4787 C.ar    1  LIG1       -0.0316
     17 C           3.3242    0.9612   -0.1358 C.ar    1  LIG1        0.0049
     18 C           6.1517    1.0189   -0.1402 C.ar    1  LIG1       -0.0012
     19 H           6.0140   -0.8057    0.9709 H       1  LIG1        0.0642
     20 C           4.0273    2.0039   -0.7462 C.ar    1  LIG1       -0.0385
     21 C           5.4243    2.0485   -0.7706 C.ar    1  LIG1        0.0132
     22 H           3.4517    2.7889   -1.2278 H       1  LIG1        0.0635
     23 N           3.3930   -1.0886    1.1995 N.pl3   1  LIG1       -0.3575
     24 H           2.4496   -1.2769    0.8874 H       1  LIG1        0.1423
     25 H           3.9300   -1.9389    1.3037 H       1  LIG1        0.1423
     26 S           6.3068    3.3734   -1.6061 S.3     1  LIG1       -0.1420
     27 H           5.2206    3.8970   -2.2080 H       1  LIG1        0.1071
     28 C           8.3835   -0.0010   -0.7693 C.ar    1  LIG1        0.0330
     29 C           9.7835    0.0414   -0.7003 C.ar    1  LIG1       -0.0316
     30 C           7.6453    1.0088   -0.1082 C.ar    1  LIG1        0.0049
     31 C          10.4727    1.0394   -0.0063 C.ar    1  LIG1       -0.0012
     32 H          10.3622   -0.7218   -1.2138 H       1  LIG1        0.0642
     33 C           8.3344    1.9988    0.5996 C.ar    1  LIG1       -0.0385
     34 C           9.7303    2.0352    0.6598 C.ar    1  LIG1        0.0132
     35 H           7.7512    2.7499    1.1235 H       1  LIG1        0.0635
     36 N           7.7469   -1.0436   -1.4418 N.pl3   1  LIG1       -0.3575
     37 H           6.8017   -0.8447   -1.7413 H       1  LIG1        0.1423
     38 H           8.2989   -1.4764   -2.1695 H       1  LIG1        0.1423
     39 S          10.6064    3.2840    1.6100 S.3     1  LIG1       -0.1420
     40 H           9.5354    4.0754    1.8155 H       1  LIG1        0.1071
     41 C          12.7250    1.8930   -0.7970 C.ar    1  LIG1        0.0325
     42 C          14.1283    1.8084   -0.7595 C.ar    1  LIG1       -0.0394
     43 C          11.9682    1.0136    0.0178 C.ar    1  LIG1        0.0049
     44 C          14.7715    0.8837    0.0534 C.ar    1  LIG1       -0.0468
     45 H          14.7142    2.4737   -1.3889 H       1  LIG1        0.0636
     46 C          12.6355    0.0822    0.8195 C.ar    1  LIG1       -0.0390
     47 C          14.0312    0.0114    0.8596 C.ar    1  LIG1        0.0054
     48 H          12.0482   -0.5945    1.4320 H       1  LIG1        0.0635
     49 H          15.8556    0.8355    0.0644 H       1  LIG1        0.0629
     50 N          12.1010    2.7724   -1.6707 N.pl3   1  LIG1       -0.3575
     51 H          11.1458    3.0096   -1.4398 H       1  LIG1        0.1423
     52 H          12.6478    3.5805   -1.9320 H       1  LIG1        0.1423
     53 S          14.8592   -1.2276    1.8700 S.3     1  LIG1       -0.1426
     54 H          14.9144   -0.5323    3.0282 H       1  LIG1        0.1071
@<TRIPOS>BOND
     1    14    13    1
     2    27    26    1
     3    38    36    1
     4    13     7    1
     5    52    50    1
     6    37    36    1
     7    50    51    1
     8    50    41    1
     9    26    21    1
    10     8     6    1
    11    36    28    1
    12    45    42    1
    13    22    20    1
    14    32    29    1
    15     7     6   ar
    16     7     4   ar
    17     6     3   ar
    18    41    42   ar
    19    41    43   ar
    20    21    20   ar
    21    21    18   ar
    22    28    29   ar
    23    28    30   ar
    24    42    44   ar
    25    20    17   ar
    26    29    31   ar
    27    18    30    1
    28    18    16   ar
    29    17     4    1
    30    17    15   ar
    31     4     2   ar
    32    30    33   ar
    33     3     9    1
    34     3     1   ar
    35    31    43    1
    36    31    34   ar
    37    43    46   ar
    38    44    49    1
    39    44    47   ar
    40    16    15   ar
    41    16    19    1
    42    15    23    1
    43    33    34   ar
    44    33    35    1
    45    34    39    1
    46     2     1   ar
    47     2     5    1
    48     1    10    1
    49    46    47   ar
    50    46    48    1
    51    47    53    1
    52    24    23    1
    53    23    25    1
    54    10    11    1
    55    10    12    1
    56    39    40    1
    57    53    54    1
