@<TRIPOS>MOLECULE
mol_data/opt/b3lyp/geoms/mol2/4hg4hg-4hg4hg.out
 54 57 0 0 0
SMALL
GASTEIGER

@<TRIPOS>ATOM
      1 C          -0.2397    1.9215    0.7777 C.ar    1  LIG1        0.0252
      2 C           1.1601    1.8481    0.7299 C.ar    1  LIG1       -0.0322
      3 C          -0.9737    1.0864   -0.0797 C.ar    1  LIG1       -0.0400
      4 C           1.8287    0.9773   -0.1375 C.ar    1  LIG1       -0.0012
      5 H           1.7535    2.4768    1.3883 H       1  LIG1        0.0642
      6 C          -0.3238    0.2222   -0.9532 C.ar    1  LIG1       -0.0462
      7 C           1.0740    0.1528   -0.9969 C.ar    1  LIG1        0.0126
      8 H          -0.9192   -0.4001   -1.6151 H       1  LIG1        0.0629
      9 H          -2.0600    1.1213   -0.0691 H       1  LIG1        0.0636
     10 N          -0.8813    2.8382    1.6120 N.pl3   1  LIG1       -0.3579
     11 H          -1.8296    2.5975    1.8657 H       1  LIG1        0.1423
     12 H          -0.3438    3.1366    2.4144 H       1  LIG1        0.1423
     13 S           1.9395   -0.9217   -2.1491 S.3     1  LIG1       -0.1420
     14 H           0.8431   -1.5798   -2.5736 H       1  LIG1        0.1071
     15 C           4.0475   -0.0865    0.4830 C.ar    1  LIG1        0.0330
     16 C           5.4483   -0.0289    0.4625 C.ar    1  LIG1       -0.0316
     17 C           3.3244    0.9588   -0.1382 C.ar    1  LIG1        0.0049
     18 C           6.1518    1.0200   -0.1407 C.ar    1  LIG1       -0.0012
     19 H           6.0160   -0.8210    0.9432 H       1  LIG1        0.0642
     20 C           4.0264    2.0112   -0.7330 C.ar    1  LIG1       -0.0385
     21 C           5.4234    2.0579   -0.7561 C.ar    1  LIG1        0.0132
     22 H           3.4499    2.8025   -1.2031 H       1  LIG1        0.0635
     23 N           3.3951   -1.1104    1.1666 N.pl3   1  LIG1       -0.3575
     24 H           2.4523   -1.2955    0.8508 H       1  LIG1        0.1423
     25 H           3.9332   -1.9613    1.2589 H       1  LIG1        0.1423
     26 S           6.3044    3.3962   -1.5715 S.3     1  LIG1       -0.1420
     27 H           5.2177    3.9278   -2.1652 H       1  LIG1        0.1071
     28 C           8.3847    0.0121   -0.7848 C.ar    1  LIG1        0.0330
     29 C           9.7847    0.0549   -0.7151 C.ar    1  LIG1       -0.0316
     30 C           7.6454    1.0111   -0.1086 C.ar    1  LIG1        0.0049
     31 C          10.4728    1.0430   -0.0059 C.ar    1  LIG1       -0.0012
     32 H          10.3643   -0.6997   -1.2401 H       1  LIG1        0.0642
     33 C           8.3335    1.9909    0.6141 C.ar    1  LIG1       -0.0385
     34 C           9.7293    2.0278    0.6752 C.ar    1  LIG1        0.0132
     35 H           7.7494    2.7335    1.1492 H       1  LIG1        0.0635
     36 N           7.7492   -1.0208   -1.4730 N.pl3   1  LIG1       -0.3575
     37 H           6.8039   -0.8184   -1.7695 H       1  LIG1        0.1423
     38 H           8.3017   -1.4419   -2.2073 H       1  LIG1        0.1423
     39 S          10.6041    3.2630    1.6443 S.3     1  LIG1       -0.1420
     40 H           9.5312    4.0474    1.8659 H       1  LIG1        0.1071
     41 C          12.7240    1.9116   -0.7830 C.ar    1  LIG1        0.0325
     42 C          14.1275    1.8284   -0.7465 C.ar    1  LIG1       -0.0394
     43 C          11.9684    1.0184    0.0177 C.ar    1  LIG1        0.0049
     44 C          14.7718    0.8917    0.0517 C.ar    1  LIG1       -0.0468
     45 H          14.7126    2.5043   -1.3652 H       1  LIG1        0.0636
     46 C          12.6367    0.0754    0.8047 C.ar    1  LIG1       -0.0390
     47 C          14.0325    0.0057    0.8438 C.ar    1  LIG1        0.0054
     48 H          12.0502   -0.6116    1.4064 H       1  LIG1        0.0635
     49 H          15.8559    0.8447    0.0621 H       1  LIG1        0.0629
     50 N          12.0990    2.8037   -1.6431 N.pl3   1  LIG1       -0.3575
     51 H          11.1435    3.0361   -1.4085 H       1  LIG1        0.1423
     52 H          12.6448    3.6167   -1.8913 H       1  LIG1        0.1423
     53 S          14.8619   -1.2479    1.8349 S.3     1  LIG1       -0.1426
     54 H          14.9174   -0.5700    3.0034 H       1  LIG1        0.1071
@<TRIPOS>BOND
     1    14    13    1
     2    38    36    1
     3    27    26    1
     4    13     7    1
     5    52    50    1
     6    37    36    1
     7    50    51    1
     8    50    41    1
     9     8     6    1
    10    26    21    1
    11    36    28    1
    12    45    42    1
    13    32    29    1
    14    22    20    1
    15     7     6   ar
    16     7     4   ar
    17     6     3   ar
    18    28    29   ar
    19    28    30   ar
    20    41    42   ar
    21    41    43   ar
    22    21    20   ar
    23    21    18   ar
    24    42    44   ar
    25    20    17   ar
    26    29    31   ar
    27    18    30    1
    28    18    16   ar
    29    17     4    1
    30    17    15   ar
    31     4     2   ar
    32    30    33   ar
    33     3     9    1
    34     3     1   ar
    35    31    43    1
    36    31    34   ar
    37    43    46   ar
    38    44    49    1
    39    44    47   ar
    40    16    15   ar
    41    16    19    1
    42    15    23    1
    43    33    34   ar
    44    33    35    1
    45    34    39    1
    46     2     1   ar
    47     2     5    1
    48     1    10    1
    49    46    47   ar
    50    46    48    1
    51    47    53    1
    52    24    23    1
    53    23    25    1
    54    10    11    1
    55    10    12    1
    56    39    40    1
    57    53    54    1
