@<TRIPOS>MOLECULE
mol_data/opt/b3lyp/geoms/mol2/4hg4hg4hg4hg.out
 54 57 0 0 0
SMALL
GASTEIGER

@<TRIPOS>ATOM
      1 C          -0.2499    1.5028    1.0382 C.ar    1  LIG1        0.0252
      2 C           1.1494    1.4369    0.9817 C.ar    1  LIG1       -0.0322
      3 C          -0.9721    1.1713   -0.1193 C.ar    1  LIG1       -0.0400
      4 C           1.8304    1.0566   -0.1825 C.ar    1  LIG1       -0.0012
      5 H           1.7337    1.6959    1.8605 H       1  LIG1        0.0642
      6 C          -0.3106    0.7882   -1.2802 C.ar    1  LIG1       -0.0462
      7 C           1.0871    0.7175   -1.3313 C.ar    1  LIG1        0.0126
      8 H          -0.8983    0.5359   -2.1581 H       1  LIG1        0.0629
      9 H          -2.0580    1.2192   -0.1116 H       1  LIG1        0.0636
     10 N          -0.9007    1.9482    2.1901 N.pl3   1  LIG1       -0.3579
     11 H          -1.8561    1.6350    2.2930 H       1  LIG1        0.1423
     12 H          -0.3761    1.8420    3.0475 H       1  LIG1        0.1423
     13 S           1.9534    0.1906   -2.8155 S.3     1  LIG1       -0.1420
     14 H           0.8473   -0.1819   -3.4895 H       1  LIG1        0.1071
     15 C           4.0337    0.0886    0.6091 C.ar    1  LIG1        0.0330
     16 C           5.4346    0.1229    0.5876 C.ar    1  LIG1       -0.0316
     17 C           3.3250    1.0294   -0.1736 C.ar    1  LIG1        0.0049
     18 C           6.1542    1.0484   -0.1772 C.ar    1  LIG1       -0.0012
     19 H           5.9902   -0.5920    1.1886 H       1  LIG1        0.0642
     20 C           4.0437    1.9556   -0.9356 C.ar    1  LIG1       -0.0385
     21 C           5.4413    1.9776   -0.9611 C.ar    1  LIG1        0.0132
     22 H           3.4818    2.6738   -1.5247 H       1  LIG1        0.0635
     23 N           3.3660   -0.8212    1.4302 N.pl3   1  LIG1       -0.3575
     24 H           2.4161   -1.0261    1.1504 H       1  LIG1        0.1423
     25 H           3.8914   -1.6572    1.6472 H       1  LIG1        0.1423
     26 S           6.3418    3.1534   -1.9793 S.3     1  LIG1       -0.1420
     27 H           5.2686    3.5702   -2.6796 H       1  LIG1        0.1071
     28 C           8.3790   -0.0737   -0.6323 C.ar    1  LIG1        0.0330
     29 C           9.7785   -0.0390   -0.5515 C.ar    1  LIG1       -0.0316
     30 C           7.6473    1.0283   -0.1313 C.ar    1  LIG1        0.0049
     31 C          10.4736    1.0399    0.0017 C.ar    1  LIG1       -0.0012
     32 H          10.3523   -0.8748   -0.9431 H       1  LIG1        0.0642
     33 C           8.3418    2.1022    0.4345 C.ar    1  LIG1       -0.0385
     34 C           9.7373    2.1305    0.5063 C.ar    1  LIG1        0.0132
     35 H           7.7631    2.9275    0.8381 H       1  LIG1        0.0635
     36 N           7.7346   -1.1939   -1.1581 N.pl3   1  LIG1       -0.3575
     37 H           6.7992   -1.0229   -1.5026 H       1  LIG1        0.1423
     38 H           8.2903   -1.7315   -1.8093 H       1  LIG1        0.1423
     39 S          10.6194    3.4938    1.2774 S.3     1  LIG1       -0.1420
     40 H           9.5597    4.3236    1.3409 H       1  LIG1        0.1071
     41 C          12.7499    1.7440   -0.8649 C.ar    1  LIG1        0.0325
     42 C          14.1511    1.6455   -0.7934 C.ar    1  LIG1       -0.0394
     43 C          11.9680    0.9978    0.0526 C.ar    1  LIG1        0.0049
     44 C          14.7678    0.8347    0.1510 C.ar    1  LIG1       -0.0468
     45 H          14.7567    2.2077   -1.4999 H       1  LIG1        0.0636
     46 C          12.6088    0.1789    0.9876 C.ar    1  LIG1       -0.0390
     47 C          14.0025    0.0947    1.0597 C.ar    1  LIG1        0.0054
     48 H          12.0018   -0.3966    1.6791 H       1  LIG1        0.0635
     49 H          15.8508    0.7730    0.1857 H       1  LIG1        0.0629
     50 N          12.1521    2.5015   -1.8623 N.pl3   1  LIG1       -0.3575
     51 H          11.2000    2.7874   -1.6785 H       1  LIG1        0.1423
     52 H          12.7176    3.2543   -2.2282 H       1  LIG1        0.1423
     53 S          14.7956   -1.0011    2.2476 S.3     1  LIG1       -0.1426
     54 H          14.8585   -0.1457    3.2927 H       1  LIG1        0.1071
@<TRIPOS>BOND
     1    14    13    1
     2    13     7    1
     3    27    26    1
     4    52    50    1
     5     8     6    1
     6    26    21    1
     7    50    51    1
     8    50    41    1
     9    38    36    1
    10    22    20    1
    11    37    36    1
    12    45    42    1
    13     7     6   ar
    14     7     4   ar
    15     6     3   ar
    16    36    28    1
    17    21    20   ar
    18    21    18   ar
    19    32    29    1
    20    20    17   ar
    21    41    42   ar
    22    41    43   ar
    23    42    44   ar
    24    28    29   ar
    25    28    30   ar
    26    29    31   ar
    27     4    17    1
    28     4     2   ar
    29    18    30    1
    30    18    16   ar
    31    17    15   ar
    32    30    33   ar
    33     3     9    1
    34     3     1   ar
    35    31    43    1
    36    31    34   ar
    37    43    46   ar
    38    44    49    1
    39    44    47   ar
    40    33    34   ar
    41    33    35    1
    42    34    39    1
    43    16    15   ar
    44    16    19    1
    45    15    23    1
    46     2     1   ar
    47     2     5    1
    48    46    47   ar
    49    46    48    1
    50     1    10    1
    51    47    53    1
    52    24    23    1
    53    39    40    1
    54    23    25    1
    55    10    11    1
    56    10    12    1
    57    53    54    1
