@<TRIPOS>MOLECULE
mol_data/opt/b3lyp/geoms/mol2/4hg4hg-4hg-4hg-.out
 54 57 0 0 0
SMALL
GASTEIGER

@<TRIPOS>ATOM
      1 C          -0.2494    1.5398    1.0288 C.ar    1  LIG1        0.0252
      2 C           1.1498    1.4707    0.9737 C.ar    1  LIG1       -0.0322
      3 C          -0.9723    1.1783   -0.1191 C.ar    1  LIG1       -0.0400
      4 C           1.8300    1.0587   -0.1799 C.ar    1  LIG1       -0.0012
      5 H           1.7346    1.7526    1.8452 H       1  LIG1        0.0642
      6 C          -0.3115    0.7635   -1.2696 C.ar    1  LIG1       -0.0462
      7 C           1.0860    0.6898   -1.3191 C.ar    1  LIG1        0.0126
      8 H          -0.8998    0.4885   -2.1402 H       1  LIG1        0.0629
      9 H          -2.0581    1.2277   -0.1125 H       1  LIG1        0.0636
     10 N          -0.8994    2.0167    2.1686 N.pl3   1  LIG1       -0.3579
     11 H          -1.8551    1.7074    2.2800 H       1  LIG1        0.1423
     12 H          -0.3747    1.9326    3.0284 H       1  LIG1        0.1423
     13 S           1.9511    0.1221   -2.7888 S.3     1  LIG1       -0.1420
     14 H           0.8443   -0.2673   -3.4520 H       1  LIG1        0.1071
     15 C           4.0326    0.1103    0.6374 C.ar    1  LIG1        0.0330
     16 C           5.4335    0.1423    0.6144 C.ar    1  LIG1       -0.0316
     17 C           3.3246    1.0300   -0.1707 C.ar    1  LIG1        0.0049
     18 C           6.1538    1.0455   -0.1758 C.ar    1  LIG1       -0.0012
     19 H           5.9884   -0.5565    1.2346 H       1  LIG1        0.0642
     20 C           4.0442    1.9340   -0.9581 C.ar    1  LIG1       -0.0385
     21 C           5.4418    1.9537   -0.9847 C.ar    1  LIG1        0.0132
     22 H           3.4828    2.6364   -1.5666 H       1  LIG1        0.0635
     23 N           3.3641   -0.7758    1.4835 N.pl3   1  LIG1       -0.3575
     24 H           2.4138   -0.9870    1.2100 H       1  LIG1        0.1423
     25 H           3.8885   -1.6062    1.7230 H       1  LIG1        0.1423
     26 S           6.3434    3.1000   -2.0350 S.3     1  LIG1       -0.1420
     27 H           5.2703    3.4994   -2.7456 H       1  LIG1        0.1071
     28 C           8.3770   -0.0912   -0.6021 C.ar    1  LIG1        0.0330
     29 C           9.7765   -0.0561   -0.5233 C.ar    1  LIG1       -0.0316
     30 C           7.6469    1.0247   -0.1302 C.ar    1  LIG1        0.0049
     31 C          10.4733    1.0364    0.0005 C.ar    1  LIG1       -0.0012
     32 H          10.3490   -0.9027   -0.8928 H       1  LIG1        0.0642
     33 C           8.3431    2.1125    0.4062 C.ar    1  LIG1       -0.0385
     34 C           9.7388    2.1411    0.4762 C.ar    1  LIG1        0.0132
     35 H           7.7657    2.9490    0.7880 H       1  LIG1        0.0635
     36 N           7.7308   -1.2241   -1.0972 N.pl3   1  LIG1       -0.3575
     37 H           6.7953   -1.0613   -1.4455 H       1  LIG1        0.1423
     38 H           8.2852   -1.7800   -1.7340 H       1  LIG1        0.1423
     39 S          10.6230    3.5232    1.2101 S.3     1  LIG1       -0.1420
     40 H           9.5647    4.3563    1.2505 H       1  LIG1        0.1071
     41 C          12.7496    1.7142   -0.8867 C.ar    1  LIG1        0.0325
     42 C          14.1508    1.6162   -0.8137 C.ar    1  LIG1       -0.0394
     43 C          11.9677    0.9940    0.0513 C.ar    1  LIG1        0.0049
     44 C          14.7674    0.8305    0.1517 C.ar    1  LIG1       -0.0468
     45 H          14.7563    2.1584   -1.5357 H       1  LIG1        0.0636
     46 C          12.6084    0.2000    1.0076 C.ar    1  LIG1       -0.0390
     47 C          14.0021    0.1163    1.0807 C.ar    1  LIG1        0.0054
     48 H          12.0015   -0.3560    1.7150 H       1  LIG1        0.0635
     49 H          15.8503    0.7687    0.1873 H       1  LIG1        0.0629
     50 N          12.1518    2.4449   -1.9038 N.pl3   1  LIG1       -0.3575
     51 H          11.2000    2.7367   -1.7270 H       1  LIG1        0.1423
     52 H          12.7177    3.1873   -2.2901 H       1  LIG1        0.1423
     53 S          14.7951   -0.9478    2.2975 S.3     1  LIG1       -0.1426
     54 H          14.8599   -0.0642    3.3189 H       1  LIG1        0.1071
@<TRIPOS>BOND
     1    14    13    1
     2    13     7    1
     3    27    26    1
     4    52    50    1
     5     8     6    1
     6    26    21    1
     7    50    51    1
     8    50    41    1
     9    38    36    1
    10    22    20    1
    11    45    42    1
    12    37    36    1
    13     7     6   ar
    14     7     4   ar
    15     6     3   ar
    16    36    28    1
    17    21    20   ar
    18    21    18   ar
    19    20    17   ar
    20    32    29    1
    21    41    42   ar
    22    41    43   ar
    23    42    44   ar
    24    28    29   ar
    25    28    30   ar
    26    29    31   ar
    27     4    17    1
    28     4     2   ar
    29    18    30    1
    30    18    16   ar
    31    17    15   ar
    32    30    33   ar
    33     3     9    1
    34     3     1   ar
    35    31    43    1
    36    31    34   ar
    37    43    46   ar
    38    44    49    1
    39    44    47   ar
    40    33    34   ar
    41    33    35    1
    42    34    39    1
    43    16    15   ar
    44    16    19    1
    45    15    23    1
    46     2     1   ar
    47     2     5    1
    48    46    47   ar
    49    46    48    1
    50     1    10    1
    51    47    53    1
    52    24    23    1
    53    39    40    1
    54    23    25    1
    55    10    11    1
    56    10    12    1
    57    53    54    1
