@<TRIPOS>MOLECULE
mol_data/opt/b3lyp/geoms/mol2/4hg4hg4hg-4hg-.out
 54 57 0 0 0
SMALL
GASTEIGER

@<TRIPOS>ATOM
      1 C          -0.2455    1.5581    1.0441 C.ar    1  LIG1        0.0252
      2 C           1.1534    1.4858    0.9859 C.ar    1  LIG1       -0.0322
      3 C          -0.9719    1.1957   -0.1014 C.ar    1  LIG1       -0.0400
      4 C           1.8300    1.0695   -0.1684 C.ar    1  LIG1       -0.0012
      5 H           1.7409    1.7682    1.8553 H       1  LIG1        0.0642
      6 C          -0.3147    0.7768   -1.2524 C.ar    1  LIG1       -0.0462
      7 C           1.0825    0.6997   -1.3050 C.ar    1  LIG1        0.0126
      8 H          -0.9056    0.5012   -2.1210 H       1  LIG1        0.0629
      9 H          -2.0576    1.2476   -0.0923 H       1  LIG1        0.0636
     10 N          -0.8917    2.0391    2.1843 N.pl3   1  LIG1       -0.3579
     11 H          -1.8479    1.7322    2.2987 H       1  LIG1        0.1423
     12 H          -0.3652    1.9558    3.0431 H       1  LIG1        0.1423
     13 S           1.9429    0.1267   -2.7755 S.3     1  LIG1       -0.1420
     14 H           0.8339   -0.2637   -3.4343 H       1  LIG1        0.1071
     15 C           4.0324    0.1184    0.6462 C.ar    1  LIG1        0.0330
     16 C           5.4333    0.1472    0.6198 C.ar    1  LIG1       -0.0316
     17 C           3.3245    1.0375   -0.1626 C.ar    1  LIG1        0.0049
     18 C           6.1538    1.0468   -0.1746 C.ar    1  LIG1       -0.0012
     19 H           5.9882   -0.5510    1.2406 H       1  LIG1        0.0642
     20 C           4.0442    1.9378   -0.9542 C.ar    1  LIG1       -0.0385
     21 C           5.4417    1.9542   -0.9842 C.ar    1  LIG1        0.0132
     22 H           3.4830    2.6398   -1.5633 H       1  LIG1        0.0635
     23 N           3.3640   -0.7639    1.4964 N.pl3   1  LIG1       -0.3575
     24 H           2.4126   -0.9739    1.2255 H       1  LIG1        0.1423
     25 H           3.8872   -1.5948    1.7368 H       1  LIG1        0.1423
     26 S           6.3434    3.0959   -2.0399 S.3     1  LIG1       -0.1420
     27 H           5.2695    3.4957   -2.7489 H       1  LIG1        0.1071
     28 C           8.3734   -0.0960   -0.6030 C.ar    1  LIG1        0.0330
     29 C           9.7731   -0.0638   -0.5275 C.ar    1  LIG1       -0.0316
     30 C           7.6469    1.0228   -0.1324 C.ar    1  LIG1        0.0049
     31 C          10.4736    1.0286   -0.0084 C.ar    1  LIG1       -0.0012
     32 H          10.3429   -0.9126   -0.8962 H       1  LIG1        0.0642
     33 C           8.3468    2.1104    0.3995 C.ar    1  LIG1       -0.0385
     34 C           9.7426    2.1361    0.4661 C.ar    1  LIG1        0.0132
     35 H           7.7721    2.9493    0.7804 H       1  LIG1        0.0635
     36 N           7.7235   -1.2288   -1.0936 N.pl3   1  LIG1       -0.3575
     37 H           6.7873   -1.0649   -1.4396 H       1  LIG1        0.1423
     38 H           8.2750   -1.7873   -1.7306 H       1  LIG1        0.1423
     39 S          10.6316    3.5182    1.1943 S.3     1  LIG1       -0.1420
     40 H           9.5755    4.3541    1.2342 H       1  LIG1        0.1071
     41 C          12.7494    1.6989   -0.9026 C.ar    1  LIG1        0.0325
     42 C          14.1505    1.5979   -0.8326 C.ar    1  LIG1       -0.0394
     43 C          11.9680    0.9829    0.0390 C.ar    1  LIG1        0.0049
     44 C          14.7675    0.8133    0.1334 C.ar    1  LIG1       -0.0468
     45 H          14.7556    2.1369   -1.5573 H       1  LIG1        0.0636
     46 C          12.6092    0.1899    0.9959 C.ar    1  LIG1       -0.0390
     47 C          14.0028    0.1032    1.0661 C.ar    1  LIG1        0.0054
     48 H          12.0025   -0.3628    1.7061 H       1  LIG1        0.0635
     49 H          15.8504    0.7491    0.1666 H       1  LIG1        0.0629
     50 N          12.1508    2.4283   -1.9202 N.pl3   1  LIG1       -0.3575
     51 H          11.2003    2.7232   -1.7418 H       1  LIG1        0.1423
     52 H          12.7177    3.1680   -2.3102 H       1  LIG1        0.1423
     53 S          14.7962   -0.9596    2.2835 S.3     1  LIG1       -0.1426
     54 H          14.8652   -0.0738    3.3027 H       1  LIG1        0.1071
@<TRIPOS>BOND
     1    14    13    1
     2    13     7    1
     3    27    26    1
     4    52    50    1
     5     8     6    1
     6    26    21    1
     7    50    51    1
     8    50    41    1
     9    38    36    1
    10    22    20    1
    11    45    42    1
    12    37    36    1
    13     7     6   ar
    14     7     4   ar
    15     6     3   ar
    16    36    28    1
    17    21    20   ar
    18    21    18   ar
    19    20    17   ar
    20    41    42   ar
    21    41    43   ar
    22    32    29    1
    23    42    44   ar
    24    28    29   ar
    25    28    30   ar
    26    29    31   ar
    27    18    30    1
    28    18    16   ar
    29     4    17    1
    30     4     2   ar
    31    17    15   ar
    32    30    33   ar
    33     3     9    1
    34     3     1   ar
    35    31    43    1
    36    31    34   ar
    37    43    46   ar
    38    44    49    1
    39    44    47   ar
    40    33    34   ar
    41    33    35    1
    42    34    39    1
    43    16    15   ar
    44    16    19    1
    45    15    23    1
    46     2     1   ar
    47     2     5    1
    48    46    47   ar
    49    46    48    1
    50     1    10    1
    51    47    53    1
    52    39    40    1
    53    24    23    1
    54    23    25    1
    55    10    11    1
    56    10    12    1
    57    53    54    1
