@<TRIPOS>MOLECULE
mol_data/opt/b3lyp/geoms/mol2/4hg4hg-.out
 28 29 0 0 0
SMALL
GASTEIGER

@<TRIPOS>ATOM
      1 C          -0.0873    0.3114    0.8069 C.ar    1  LIG1        0.0252
      2 C           1.3142    0.3599    0.8227 C.ar    1  LIG1       -0.0322
      3 C          -0.7627    1.0728   -0.1600 C.ar    1  LIG1       -0.0400
      4 C           2.0414    1.1376   -0.0854 C.ar    1  LIG1       -0.0012
      5 H           1.8631   -0.2257    1.5552 H       1  LIG1        0.0642
      6 C          -0.0551    1.8566   -1.0641 C.ar    1  LIG1       -0.0462
      7 C           1.3443    1.9027   -1.0430 C.ar    1  LIG1        0.0126
      8 H          -0.6067    2.4471   -1.7900 H       1  LIG1        0.0629
      9 H          -1.8490    1.0594   -0.1970 H       1  LIG1        0.0636
     10 N          -0.7899   -0.4280    1.7599 N.pl3   1  LIG1       -0.3579
     11 H          -1.7175   -0.7170    1.4814 H       1  LIG1        0.1423
     12 H          -0.2716   -1.1870    2.1806 H       1  LIG1        0.1423
     13 S           2.2810    2.9438   -2.1694 S.3     1  LIG1       -0.1420
     14 H           1.2279    3.3076   -2.9272 H       1  LIG1        0.1071
     15 C           4.3221    0.4146   -0.9294 C.ar    1  LIG1        0.0325
     16 C           5.7209    0.4282   -0.7861 C.ar    1  LIG1       -0.0394
     17 C           3.5354    1.1430   -0.0021 C.ar    1  LIG1        0.0049
     18 C           6.3314    1.1344    0.2425 C.ar    1  LIG1       -0.0468
     19 H           6.3292   -0.1354   -1.4891 H       1  LIG1        0.0636
     20 C           4.1699    1.8369    1.0335 C.ar    1  LIG1       -0.0390
     21 C           5.5616    1.8541    1.1636 C.ar    1  LIG1        0.0054
     22 H           3.5593    2.3823    1.7459 H       1  LIG1        0.0635
     23 H           7.4127    1.1290    0.3344 H       1  LIG1        0.0629
     24 N           3.7291   -0.3598   -1.9189 N.pl3   1  LIG1       -0.3575
     25 H           2.7926   -0.0824   -2.1795 H       1  LIG1        0.1423
     26 H           4.3120   -0.5439   -2.7235 H       1  LIG1        0.1423
     27 S           6.3458    2.7200    2.5337 S.3     1  LIG1       -0.1426
     28 H           6.4276    3.9458    1.9693 H       1  LIG1        0.1071
@<TRIPOS>BOND
     1    14    13    1
     2    26    24    1
     3    25    24    1
     4    13     7    1
     5    24    15    1
     6     8     6    1
     7    19    16    1
     8     6     7   ar
     9     6     3   ar
    10     7     4   ar
    11    15    16   ar
    12    15    17   ar
    13    16    18   ar
    14     9     3    1
    15     3     1   ar
    16     4    17    1
    17     4     2   ar
    18    17    20   ar
    19    18    23    1
    20    18    21   ar
    21     1     2   ar
    22     1    10    1
    23     2     5    1
    24    20    21   ar
    25    20    22    1
    26    21    27    1
    27    11    10    1
    28    10    12    1
    29    28    27    1
