@<TRIPOS>MOLECULE
mol_data/opt/b3lyp/geoms/mol2/4hh.out
 16 16 0 0 0
SMALL
GASTEIGER

@<TRIPOS>ATOM
      1 C           0.0701    0.0176   -0.0426 C.ar    1  LIG1        0.0247
      2 C           1.4723    0.0254   -0.0410 C.ar    1  LIG1       -0.0393
      3 C          -0.5897    1.2550   -0.0441 C.ar    1  LIG1       -0.0393
      4 C           2.1855    1.2214   -0.0418 C.ar    1  LIG1       -0.0393
      5 H           2.0134   -0.9180   -0.0367 H       1  LIG1        0.0636
      6 C           0.1235    2.4510   -0.0447 C.ar    1  LIG1       -0.0393
      7 C           1.5257    2.4587   -0.0440 C.ar    1  LIG1        0.0247
      8 H          -0.4176    3.3944   -0.0433 H       1  LIG1        0.0636
      9 H           3.2727    1.1938   -0.0381 H       1  LIG1        0.0636
     10 H          -1.6769    1.2826   -0.0425 H       1  LIG1        0.0636
     11 N          -0.6506   -1.1911    0.0213 N.pl3   1  LIG1       -0.3580
     12 H          -1.5801   -1.1291   -0.3747 H       1  LIG1        0.1423
     13 H          -0.1549   -1.9790   -0.3765 H       1  LIG1        0.1423
     14 N           2.2464    3.6675    0.0185 N.pl3   1  LIG1       -0.3580
     15 H           3.1760    3.6051   -0.3773 H       1  LIG1        0.1423
     16 H           1.7508    4.4549   -0.3803 H       1  LIG1        0.1423
@<TRIPOS>BOND
     1    16    14    1
     2    15    14    1
     3    13    11    1
     4    12    11    1
     5     6     3   ar
     6     6     7   ar
     7     6     8    1
     8     3     1   ar
     9     3    10    1
    10     7     4   ar
    11     7    14    1
    12     1     2   ar
    13     1    11    1
    14     4     2   ar
    15     4     9    1
    16     2     5    1
