@<TRIPOS>MOLECULE
mol_data/opt/b3lyp/geoms/mol2/4hh12hl-6ld4fh4af6eh-12ih-12ha-.out
 101 108 0 0 0
SMALL
GASTEIGER

@<TRIPOS>ATOM
      1 C           0.4392   -1.3682    1.4088 C.ar    1  LIG1        0.0253
      2 C           1.6713   -0.9871    0.8769 C.ar    1  LIG1       -0.0285
      3 C          -0.5053   -0.3602    1.6613 C.ar    1  LIG1       -0.0393
      4 C           1.9881    0.3577    0.5808 C.ar    1  LIG1        0.0416
      5 H           2.4343   -1.7456    0.7268 H       1  LIG1        0.0644
      6 C          -0.1965    0.9703    1.4184 C.ar    1  LIG1       -0.0386
      7 C           1.0410    1.3743    0.8889 C.ar    1  LIG1        0.0355
      8 H          -0.9313    1.7371    1.6518 H       1  LIG1        0.0637
      9 H          -1.4757   -0.6197    2.0769 H       1  LIG1        0.0636
     10 N           0.1781   -2.7053    1.7603 N.pl3   1  LIG1       -0.3579
     11 H          -0.8047   -2.9461    1.7477 H       1  LIG1        0.1423
     12 H           0.7144   -3.3820    1.2327 H       1  LIG1        0.1423
     13 N           1.2888    2.7385    0.7295 N.pl3   1  LIG1       -0.3574
     14 H           2.1378    2.9996    0.2502 H       1  LIG1        0.1423
     15 H           0.4827    3.2912    0.4768 H       1  LIG1        0.1423
     16 C           3.2564    0.6263   -0.0788 C.ar    1  LIG1        0.1618
     17 C           4.0825   -0.1435   -0.8770 C.ar    1  LIG1        0.1140
     18 C           5.1886    0.6870   -1.2248 C.ar    1  LIG1        0.1872
     19 C           4.9859    1.9311   -0.6588 C.ar    1  LIG1        0.1841
     20 O           3.8121    1.8823    0.0400 O.2     1  LIG1       -0.4489
     21 N           3.9445   -1.4712   -1.3030 N.pl3   1  LIG1       -0.3522
     22 H           2.9742   -1.7624   -1.3506 H       1  LIG1        0.1425
     23 H           4.3891   -1.6062   -2.2059 H       1  LIG1        0.1425
     24 O           6.2223    0.3005   -2.0369 O.3     1  LIG1       -0.4896
     25 C           7.1628   -0.5833   -1.3975 C.3     1  LIG1        0.0791
     26 H           7.8976   -0.8498   -2.1589 H       1  LIG1        0.0660
     27 H           7.6622   -0.0796   -0.5624 H       1  LIG1        0.0660
     28 H           6.6647   -1.4861   -1.0286 H       1  LIG1        0.0660
     29 C           5.3741    4.3772   -0.0470 C.ar    1  LIG1        0.2262
     30 C           5.7401    3.1677   -0.7164 C.ar    1  LIG1        0.0837
     31 C           6.9083    3.2515   -1.4751 C.ar    1  LIG1       -0.0263
     32 C           7.6737    4.4283   -1.5069 C.ar    1  LIG1        0.0787
     33 C           7.2581    5.5445   -0.7468 C.ar    1  LIG1        0.0957
     34 N           6.1006    5.4816   -0.0641 N.ar    1  LIG1       -0.2109
     35 H           7.2208    2.3956   -2.0605 H       1  LIG1        0.0640
     36 O           4.2176    4.3830    0.6402 O.3     1  LIG1       -0.4792
     37 C           3.8801    5.5623    1.3826 C.3     1  LIG1        0.0804
     38 H           2.9552    5.3055    1.8995 H       1  LIG1        0.0660
     39 H           4.6681    5.8127    2.0965 H       1  LIG1        0.0660
     40 H           3.7271    6.4155    0.7163 H       1  LIG1        0.0660
     41 N           9.7630    4.5130   -3.0392 N.1     1  LIG1       -0.1908
     42 C           8.8205    4.4743   -2.3545 C.1     1  LIG1        0.1013
     43 C           9.3765    6.9494   -0.5028 C.ar    1  LIG1        0.1267
     44 C           9.9485    8.2161   -0.4008 C.ar    1  LIG1       -0.0101
     45 C           7.9822    6.8371   -0.6779 C.ar    1  LIG1        0.0449
     46 C           9.1998    9.3965   -0.4714 C.ar    1  LIG1        0.0064
     47 H          11.0173    8.2715   -0.2223 H       1  LIG1        0.0661
     48 C           7.2251    8.0165   -0.7377 C.ar    1  LIG1       -0.0277
     49 C           7.7967    9.2886   -0.6540 C.ar    1  LIG1        0.0332
     50 H           6.1503    7.9271   -0.8625 H       1  LIG1        0.0644
     51 O          10.1807    5.8440   -0.3017 O.3     1  LIG1       -0.5061
     52 H          10.4838    5.5050   -1.1592 H       1  LIG1        0.2922
     53 N           6.9729   10.4220   -0.7182 N.pl3   1  LIG1       -0.3575
     54 H           7.4357   11.2524   -1.0663 H       1  LIG1        0.1423
     55 H           6.0993   10.2585   -1.2016 H       1  LIG1        0.1423
     56 C          11.0726   10.9515   -1.0865 C.ar    1  LIG1       -0.0532
     57 C          11.7320   12.1721   -0.9641 C.ar    1  LIG1       -0.0499
     58 C           9.8937   10.7075   -0.3647 C.ar    1  LIG1       -0.0125
     59 C          11.2549   13.1942   -0.1344 C.ar    1  LIG1        0.0263
     60 H          12.6288   12.3578   -1.5481 H       1  LIG1        0.0625
     61 C           9.4156   11.7191    0.4847 C.ar    1  LIG1       -0.0118
     62 C          10.0854   12.9379    0.6080 C.ar    1  LIG1        0.1252
     63 H           8.5245   11.5406    1.0814 H       1  LIG1        0.0660
     64 H          11.4546   10.1937   -1.7624 H       1  LIG1        0.0624
     65 O           9.6615   13.9057    1.4696 O.3     1  LIG1       -0.5061
     66 H           8.8222   13.6346    1.8638 H       1  LIG1        0.2922
     67 C          11.4171   15.7252   -0.4158 C.ar    1  LIG1        0.1218
     68 C          11.9839   14.4849   -0.0251 C.ar    1  LIG1        0.0212
     69 C          13.3006   14.5032    0.4272 C.ar    1  LIG1       -0.0284
     70 C          14.0182   15.7017    0.5187 C.ar    1  LIG1        0.0546
     71 C          13.3385   16.8961    0.1629 C.ar    1  LIG1        0.1282
     72 N          12.0868   16.8819   -0.3091 N.ar    1  LIG1       -0.2328
     73 H          13.7774   13.5694    0.7144 H       1  LIG1        0.0644
     74 C          10.1011   15.8023   -0.9828 C.1     1  LIG1       -0.0492
     75 C           9.0023   15.8740   -1.4831 C.1     1  LIG1       -0.1124
     76 H           8.0362   15.9564   -1.9235 H       1  LIG1        0.1232
     77 N          15.3330   15.7126    0.9730 N.pl3   1  LIG1       -0.3562
     78 H          15.8356   14.8444    0.8439 H       1  LIG1        0.1424
     79 H          15.8658   16.5210    0.6749 H       1  LIG1        0.1424
     80 C          13.9941   18.2115    0.2393 C.ar    1  LIG1        0.1605
     81 C          14.6788   18.8919    1.2195 C.ar    1  LIG1        0.0183
     82 C          14.9896   20.1799    0.6625 C.ar    1  LIG1        0.0777
     83 C          14.4583   20.2082   -0.6119 C.ar    1  LIG1        0.1932
     84 O          13.8598   19.0122   -0.8713 O.2     1  LIG1       -0.4479
     85 C          14.9666   18.4769    2.6328 C.3     1  LIG1       -0.0343
     86 H          14.2393   18.9177    3.3264 H       1  LIG1        0.0279
     87 H          15.9592   18.8195    2.9488 H       1  LIG1        0.0279
     88 H          14.9312   17.3936    2.7575 H       1  LIG1        0.0279
     89 N          15.7243   21.2413    1.2802 N.pl3   1  LIG1       -0.3547
     90 H          15.4621   21.3394    2.2580 H       1  LIG1        0.1424
     91 H          16.7262   21.0577    1.2605 H       1  LIG1        0.1424
     92 C          14.4310   21.1953   -1.6543 C.ar    1  LIG1        0.1920
     93 C          14.6562   22.5629   -1.6777 C.ar    1  LIG1        0.0741
     94 C          14.4624   22.9676   -3.0415 C.ar    1  LIG1       -0.0024
     95 C          14.1270   21.8443   -3.7336 C.ar    1  LIG1        0.0946
     96 O          14.0979   20.7611   -2.9257 O.2     1  LIG1       -0.4579
     97 H          13.8850   21.6664   -4.7702 H       1  LIG1        0.1030
     98 N          14.9194   23.3985   -0.6052 N.pl3   1  LIG1       -0.3550
     99 H          15.2927   22.9031    0.2076 H       1  LIG1        0.1424
    100 H          15.4429   24.2286   -0.8480 H       1  LIG1        0.1424
    101 H          14.5446   23.9714   -3.4341 H       1  LIG1        0.0668
@<TRIPOS>BOND
     1    97    95    1
     2    95    94   ar
     3    95    96   ar
     4   101    94    1
     5    94    93   ar
     6    41    42    3
     7    96    92   ar
     8    42    32    1
     9    23    21    1
    10    26    25    1
    11    35    31    1
    12    24    25    1
    13    24    18    1
    14    76    75    1
    15    64    56    1
    16    93    92   ar
    17    93    98    1
    18    92    83    1
    19    60    57    1
    20    32    31   ar
    21    32    33   ar
    22    75    74    3
    23    31    30   ar
    24    25    28    1
    25    25    27    1
    26    22    21    1
    27    21    17    1
    28    18    17   ar
    29    18    19   ar
    30    55    53    1
    31    52    51    1
    32    56    57   ar
    33    56    58   ar
    34    54    53    1
    35    74    67    1
    36    57    59   ar
    37    17    16   ar
    38    84    83   ar
    39    84    80   ar
    40    50    48    1
    41   100    98    1
    42    33    45    1
    43    33    34   ar
    44    48    45   ar
    45    48    49   ar
    46    53    49    1
    47    30    19    1
    48    30    29   ar
    49    45    43   ar
    50    19    20   ar
    51    49    46   ar
    52    83    82   ar
    53    98    99    1
    54    43    44   ar
    55    43    51    1
    56    46    44   ar
    57    46    58    1
    58    67    72   ar
    59    67    68   ar
    60    44    47    1
    61    58    61   ar
    62    72    71   ar
    63    59    68    1
    64    59    62   ar
    65    16    20   ar
    66    16     4    1
    67    34    29   ar
    68    29    36    1
    69    68    69   ar
    70    71    80    1
    71    71    70   ar
    72    80    81   ar
    73    14    13    1
    74    69    70   ar
    75    69    73    1
    76    15    13    1
    77    61    62   ar
    78    61    63    1
    79    70    77    1
    80     4     2   ar
    81     4     7   ar
    82    62    65    1
    83    36    37    1
    84    82    81   ar
    85    82    89    1
    86    79    77    1
    87    40    37    1
    88     5     2    1
    89    13     7    1
    90    78    77    1
    91     2     1   ar
    92     7     6   ar
    93    81    85    1
    94    12    10    1
    95    91    89    1
    96    89    90    1
    97    37    38    1
    98    37    39    1
    99     1     3   ar
   100     1    10    1
   101     6     8    1
   102     6     3   ar
   103    65    66    1
   104     3     9    1
   105    11    10    1
   106    85    88    1
   107    85    87    1
   108    85    86    1
