@<TRIPOS>MOLECULE
mol_data/opt/b3lyp/geoms/mol2/4hh12fh13dd-6if.out
 49 52 0 0 0
SMALL
GASTEIGER

@<TRIPOS>ATOM
      1 C          -0.0538    0.0879   -0.0791 C.ar    1  LIG1        0.0253
      2 C           1.3408    0.0991   -0.0737 C.ar    1  LIG1       -0.0285
      3 C          -0.7223    1.2866   -0.3772 C.ar    1  LIG1       -0.0393
      4 C           2.0857    1.2631   -0.3546 C.ar    1  LIG1        0.0433
      5 H           1.8792   -0.8115    0.1654 H       1  LIG1        0.0644
      6 C          -0.0035    2.4354   -0.6757 C.ar    1  LIG1       -0.0386
      7 C           1.3984    2.4628   -0.6833 C.ar    1  LIG1        0.0356
      8 H          -0.5420    3.3484   -0.9190 H       1  LIG1        0.0637
      9 H          -1.8087    1.3154   -0.3811 H       1  LIG1        0.0636
     10 N          -0.7691   -1.0675    0.2723 N.pl3   1  LIG1       -0.3579
     11 H          -1.6936   -1.1212   -0.1350 H       1  LIG1        0.1423
     12 H          -0.2606   -1.9289    0.1203 H       1  LIG1        0.1423
     13 N           2.0556    3.6785   -0.9797 N.pl3   1  LIG1       -0.3574
     14 H           2.9288    3.5513   -1.4742 H       1  LIG1        0.1423
     15 H           1.4531    4.3135   -1.4898 H       1  LIG1        0.1423
     16 C           3.5351    1.1724   -0.2777 C.ar    1  LIG1        0.1807
     17 C           4.4305    0.1324   -0.1474 C.ar    1  LIG1        0.1846
     18 C           5.7532    0.6684   -0.0640 C.ar    1  LIG1        0.1153
     19 C           5.6079    2.0414   -0.1392 C.ar    1  LIG1        0.1773
     20 O           4.2657    2.3369   -0.2785 O.2     1  LIG1       -0.4476
     21 O           4.1561   -1.2018   -0.0850 O.3     1  LIG1       -0.5020
     22 H           4.8606   -1.6066    0.4472 H       1  LIG1        0.2924
     23 N           6.8486   -0.1708    0.1460 N.pl3   1  LIG1       -0.3521
     24 H           6.9492   -0.8660   -0.5876 H       1  LIG1        0.1425
     25 H           7.7362    0.2989    0.2893 H       1  LIG1        0.1425
     26 C           6.4230    3.2165   -0.0448 C.ar    1  LIG1        0.1034
     27 C           7.8005    3.4611    0.0158 C.ar    1  LIG1        0.0980
     28 C           7.9769    4.8892    0.0983 C.ar    1  LIG1        0.0951
     29 C           6.7115    5.4780    0.0841 C.ar    1  LIG1        0.0677
     30 N           5.8089    4.4444   -0.0011 N.ar    1  LIG1       -0.3496
     31 H           4.8037    4.5435   -0.0089 H       1  LIG1        0.1661
     32 N           9.6271    1.6421   -0.0127 N.1     1  LIG1       -0.1908
     33 C           8.8185    2.4830   -0.0004 C.1     1  LIG1        0.1027
     34 N          10.2568    6.0862    0.2867 N.1     1  LIG1       -0.1908
     35 C           9.2247    5.5530    0.2050 C.1     1  LIG1        0.1026
     36 C           5.1365    7.3559    0.7623 C.ar    1  LIG1        0.0476
     37 C           6.3118    6.8906    0.1113 C.ar    1  LIG1        0.0241
     38 C           7.1297    7.8275   -0.5350 C.ar    1  LIG1       -0.0078
     39 C           6.7750    9.1734   -0.5251 C.ar    1  LIG1        0.1355
     40 C           5.5930    9.5347    0.1272 C.ar    1  LIG1        0.0693
     41 N           4.8094    8.6545    0.7492 N.ar    1  LIG1       -0.2559
     42 H           8.0337    7.5261   -1.0508 H       1  LIG1        0.0662
     43 H           5.2729   10.5777    0.1512 H       1  LIG1        0.0867
     44 C           4.1859    6.4671    1.5333 C.3     1  LIG1       -0.0217
     45 H           4.7095    5.7107    2.1250 H       1  LIG1        0.0293
     46 H           3.4676    5.9484    0.8823 H       1  LIG1        0.0293
     47 H           3.6009    7.0965    2.2053 H       1  LIG1        0.0293
     48 O           7.5835   10.0622   -1.1635 O.3     1  LIG1       -0.5052
     49 H           7.2217   10.9535   -1.0659 H       1  LIG1        0.2922
@<TRIPOS>BOND
     1    15    13    1
     2    14    13    1
     3    48    49    1
     4    48    39    1
     5    42    38    1
     6    13     7    1
     7     8     6    1
     8     7     6   ar
     9     7     4   ar
    10     6     3   ar
    11    24    23    1
    12    38    39   ar
    13    38    37   ar
    14    39    40   ar
    15     9     3    1
    16     3     1   ar
    17     4    16    1
    18     4     2   ar
    19    20    16   ar
    20    20    19   ar
    21    16    17   ar
    22    17    21    1
    23    17    18   ar
    24    19    18   ar
    25    19    26    1
    26    11    10    1
    27    21    22    1
    28     1     2   ar
    29     1    10    1
    30     2     5    1
    31    18    23    1
    32    26    30   ar
    33    26    27   ar
    34    32    33    3
    35    31    30    1
    36    30    29   ar
    37    33    27    1
    38    27    28   ar
    39    29    28   ar
    40    29    37    1
    41    28    35    1
    42    37    36   ar
    43    12    10    1
    44    40    43    1
    45    40    41   ar
    46    23    25    1
    47    35    34    3
    48    41    36   ar
    49    36    44    1
    50    46    44    1
    51    44    45    1
    52    44    47    1
