@<TRIPOS>MOLECULE
mol_data/opt/b3lyp/geoms/mol2/4hh12il-13ai13hl.out
 55 58 0 0 0
SMALL
GASTEIGER

@<TRIPOS>ATOM
      1 C          -0.1863    0.1082   -0.8135 C.ar    1  LIG1        0.0253
      2 C           1.2041    0.1789   -0.6945 C.ar    1  LIG1       -0.0286
      3 C          -0.9501    1.0522   -0.1122 C.ar    1  LIG1       -0.0393
      4 C           1.8453    1.1397    0.1079 C.ar    1  LIG1        0.0400
      5 H           1.8201   -0.5161   -1.2578 H       1  LIG1        0.0644
      6 C          -0.3341    2.0183    0.6747 C.ar    1  LIG1       -0.0386
      7 C           1.0600    2.0881    0.8141 C.ar    1  LIG1        0.0354
      8 H          -0.9497    2.7350    1.2134 H       1  LIG1        0.0637
      9 H          -2.0347    1.0314   -0.1849 H       1  LIG1        0.0636
     10 N          -0.8022   -0.9063   -1.5722 N.pl3   1  LIG1       -0.3579
     11 H          -1.7052   -0.6398   -1.9442 H       1  LIG1        0.1423
     12 H          -0.2155   -1.2692   -2.3132 H       1  LIG1        0.1423
     13 N           1.6278    3.0145    1.6963 N.pl3   1  LIG1       -0.3574
     14 H           2.5778    3.2799    1.4811 H       1  LIG1        0.1423
     15 H           1.0389    3.8119    1.8927 H       1  LIG1        0.1423
     16 C           3.3039    1.1050    0.2061 C.ar    1  LIG1        0.1441
     17 C           4.2150    0.0806    0.2994 C.ar    1  LIG1        0.0377
     18 C           5.5043    0.7064    0.3656 C.ar    1  LIG1        0.1706
     19 C           5.3237    2.0667    0.3162 C.ar    1  LIG1        0.1934
     20 O           3.9760    2.3204    0.2177 O.2     1  LIG1       -0.4492
     21 C           3.9635   -1.3930    0.4033 C.3     1  LIG1       -0.0326
     22 H           4.7037   -1.8517    1.0661 H       1  LIG1        0.0280
     23 H           4.0410   -1.8990   -0.5675 H       1  LIG1        0.0280
     24 H           2.9660   -1.5965    0.8003 H       1  LIG1        0.0280
     25 O           6.7085    0.0723    0.5230 O.3     1  LIG1       -0.4910
     26 C           7.2409   -0.4856   -0.6821 C.3     1  LIG1        0.0790
     27 H           8.1921   -0.9502   -0.4146 H       1  LIG1        0.0660
     28 H           6.5736   -1.2481   -1.1021 H       1  LIG1        0.0660
     29 H           7.4126    0.2932   -1.4347 H       1  LIG1        0.0660
     30 C           6.2175    3.1894    0.3441 C.ar    1  LIG1        0.0865
     31 C           7.5871    3.2619    0.5622 C.ar    1  LIG1       -0.0297
     32 C           7.9857    4.6216    0.4565 C.ar    1  LIG1       -0.0230
     33 C           6.8403    5.3628    0.1588 C.ar    1  LIG1        0.0683
     34 N           5.7738    4.4765    0.1189 N.ar    1  LIG1       -0.3503
     35 H           4.8639    4.7022   -0.2519 H       1  LIG1        0.1660
     36 H           8.2177    2.4215    0.8145 H       1  LIG1        0.0643
     37 C           9.3617    5.1573    0.7387 C.3     1  LIG1       -0.0376
     38 H           9.5599    6.0932    0.2102 H       1  LIG1        0.0278
     39 H          10.1278    4.4328    0.4429 H       1  LIG1        0.0278
     40 H           9.5022    5.3516    1.8097 H       1  LIG1        0.0278
     41 C           6.6330    6.7805   -0.0620 C.ar    1  LIG1        0.0877
     42 C           7.3330    7.6951   -0.8367 C.ar    1  LIG1        0.0939
     43 C           6.6557    8.9481   -0.7260 C.ar    1  LIG1        0.1585
     44 C           5.5600    8.7786    0.0920 C.ar    1  LIG1        0.0463
     45 N           5.5243    7.4534    0.4600 N.ar    1  LIG1       -0.3550
     46 H           5.0099    7.1071    1.2545 H       1  LIG1        0.1655
     47 H           4.8062    9.4848    0.4035 H       1  LIG1        0.0845
     48 N           8.4870    7.4812   -1.6101 N.pl3   1  LIG1       -0.3535
     49 H           8.5694    6.5144   -1.9080 H       1  LIG1        0.1425
     50 H           8.4933    8.0899   -2.4229 H       1  LIG1        0.1425
     51 O           7.0048   10.0879   -1.4113 O.3     1  LIG1       -0.4918
     52 C           8.1083   10.7880   -0.8289 C.3     1  LIG1        0.0789
     53 H           8.3124   11.6439   -1.4765 H       1  LIG1        0.0660
     54 H           7.8609   11.1444    0.1790 H       1  LIG1        0.0660
     55 H           9.0002   10.1522   -0.7704 H       1  LIG1        0.0660
@<TRIPOS>BOND
     1    50    48    1
     2    12    10    1
     3    11    10    1
     4    49    48    1
     5    48    42    1
     6    10     1    1
     7    53    52    1
     8    29    26    1
     9    51    52    1
    10    51    43    1
    11     5     2    1
    12    28    26    1
    13    42    43   ar
    14    42    41   ar
    15    52    55    1
    16    52    54    1
    17     1     2   ar
    18     1     3   ar
    19    43    44   ar
    20     2     4   ar
    21    26    27    1
    22    26    25    1
    23    23    21    1
    24    35    34    1
    25     9     3    1
    26     3     6   ar
    27    41    33    1
    28    41    45   ar
    29    44    47    1
    30    44    45   ar
    31     4    16    1
    32     4     7   ar
    33    34    33   ar
    34    34    30   ar
    35    33    32   ar
    36    16    20   ar
    37    16    17   ar
    38    38    37    1
    39    20    19   ar
    40    17    18   ar
    41    17    21    1
    42    19    30    1
    43    19    18   ar
    44    30    31   ar
    45    18    25    1
    46    21    24    1
    47    21    22    1
    48    39    37    1
    49    32    31   ar
    50    32    37    1
    51    45    46    1
    52    31    36    1
    53     6     7   ar
    54     6     8    1
    55    37    40    1
    56     7    13    1
    57    14    13    1
    58    13    15    1
