@<TRIPOS>MOLECULE
mol_data/opt/b3lyp/geoms/mol2/4hh4hh4hh4hh.out
 58 61 0 0 0
SMALL
GASTEIGER

@<TRIPOS>ATOM
      1 C          -0.2292    1.1860    1.2096 C.ar    1  LIG1        0.0252
      2 C           1.1676    1.1449    1.1294 C.ar    1  LIG1       -0.0315
      3 C          -0.9509    1.2958    0.0124 C.ar    1  LIG1       -0.0393
      4 C           1.8538    1.2152   -0.0934 C.ar    1  LIG1        0.0063
      5 H           1.7515    1.0623    2.0423 H       1  LIG1        0.0643
      6 C          -0.2890    1.3645   -1.2083 C.ar    1  LIG1       -0.0387
      7 C           1.1105    1.3279   -1.2926 C.ar    1  LIG1        0.0325
      8 H          -0.8696    1.4513   -2.1239 H       1  LIG1        0.0637
      9 H          -2.0373    1.3334    0.0374 H       1  LIG1        0.0636
     10 N          -0.8841    1.1875    2.4553 N.pl3   1  LIG1       -0.3579
     11 H          -1.8189    0.8005    2.4259 H       1  LIG1        0.1423
     12 H          -0.3472    0.7569    3.1974 H       1  LIG1        0.1423
     13 N           1.7392    1.4468   -2.5467 N.pl3   1  LIG1       -0.3575
     14 H           2.6827    1.0798   -2.5595 H       1  LIG1        0.1423
     15 H           1.1897    1.0683   -3.3079 H       1  LIG1        0.1423
     16 C           4.0624    0.0877    0.4535 C.ar    1  LIG1        0.0331
     17 C           5.4614    0.1163    0.4064 C.ar    1  LIG1       -0.0309
     18 C           3.3472    1.1729   -0.1063 C.ar    1  LIG1        0.0063
     19 C           6.1865    1.1734   -0.1606 C.ar    1  LIG1        0.0063
     20 H           6.0167   -0.7143    0.8342 H       1  LIG1        0.0643
     21 C           4.0720    2.2286   -0.6758 C.ar    1  LIG1       -0.0309
     22 C           5.4710    2.2616   -0.7147 C.ar    1  LIG1        0.0331
     23 H           3.5165    3.0610   -1.1000 H       1  LIG1        0.0643
     24 N           3.4068   -0.9802    1.0913 N.pl3   1  LIG1       -0.3575
     25 H           2.4500   -1.1105    0.7880 H       1  LIG1        0.1423
     26 H           3.9269   -1.8479    1.0652 H       1  LIG1        0.1423
     27 N           6.1273    3.3834   -1.2532 N.pl3   1  LIG1       -0.3575
     28 H           7.0713    3.1910   -1.5638 H       1  LIG1        0.1423
     29 H           5.5916    3.8597   -1.9675 H       1  LIG1        0.1423
     30 C           8.3941    0.0648   -0.7491 C.ar    1  LIG1        0.0331
     31 C           9.7932    0.0966   -0.7112 C.ar    1  LIG1       -0.0309
     32 C           7.6794    1.1362   -0.1623 C.ar    1  LIG1        0.0063
     33 C          10.5189    1.1352   -0.1121 C.ar    1  LIG1        0.0063
     34 H          10.3481   -0.7230   -1.1604 H       1  LIG1        0.0643
     35 C           8.4054    2.1763    0.4344 C.ar    1  LIG1       -0.0309
     36 C           9.8045    2.2035    0.4804 C.ar    1  LIG1        0.0331
     37 H           7.8507    2.9940    0.8872 H       1  LIG1        0.0643
     38 N           7.7371   -1.0407   -1.3193 N.pl3   1  LIG1       -0.3575
     39 H           6.7925   -0.8395   -1.6225 H       1  LIG1        0.1423
     40 H           8.2717   -1.4957   -2.0482 H       1  LIG1        0.1423
     41 N          10.4610    3.2523    1.1483 N.pl3   1  LIG1       -0.3575
     42 H          11.4173    3.3916    0.8474 H       1  LIG1        0.1423
     43 H           9.9408    4.1202    1.1488 H       1  LIG1        0.1423
     44 C          12.7539    1.0151   -1.3056 C.ar    1  LIG1        0.0325
     45 C          14.1535    0.9761   -1.2243 C.ar    1  LIG1       -0.0387
     46 C          12.0123    1.0927   -0.1026 C.ar    1  LIG1        0.0063
     47 C          14.8171    1.0091   -0.0031 C.ar    1  LIG1       -0.0393
     48 H          14.7328    0.9161   -2.1429 H       1  LIG1        0.0637
     49 C          12.7002    1.1272    1.1207 C.ar    1  LIG1       -0.0315
     50 C          14.0971    1.0839    1.1978 C.ar    1  LIG1        0.0252
     51 H          12.1176    1.1831    2.0365 H       1  LIG1        0.0643
     52 H          15.9035    0.9708    0.0192 H       1  LIG1        0.0636
     53 N          12.1234    0.9330   -2.5618 N.pl3   1  LIG1       -0.3575
     54 H          11.1798    1.3001   -2.5624 H       1  LIG1        0.1423
     55 H          12.6718    1.3340   -3.3122 H       1  LIG1        0.1423
     56 N          14.7538    1.0459    2.4420 N.pl3   1  LIG1       -0.3579
     57 H          15.6884    1.4338    2.4226 H       1  LIG1        0.1423
     58 H          14.2178    1.4546    3.1971 H       1  LIG1        0.1423
@<TRIPOS>BOND
     1    55    53    1
     2    15    13    1
     3    54    53    1
     4    53    44    1
     5    14    13    1
     6    13     7    1
     7    48    45    1
     8     8     6    1
     9    40    38    1
    10    29    27    1
    11    39    38    1
    12    28    27    1
    13    38    30    1
    14    44    45   ar
    15    44    46   ar
    16     7     6   ar
    17     7     4   ar
    18    27    22    1
    19    45    47   ar
    20     6     3   ar
    21    34    31    1
    22    23    21    1
    23    30    31   ar
    24    30    32   ar
    25    22    21   ar
    26    22    19   ar
    27    31    33   ar
    28    21    18   ar
    29    32    19    1
    30    32    35   ar
    31    19    17   ar
    32    33    46    1
    33    33    36   ar
    34    18     4    1
    35    18    16   ar
    36    46    49   ar
    37     4     2   ar
    38    47    52    1
    39    47    50   ar
    40     3     9    1
    41     3     1   ar
    42    17    16   ar
    43    17    20    1
    44    35    36   ar
    45    35    37    1
    46    16    24    1
    47    36    41    1
    48    25    24    1
    49    42    41    1
    50    26    24    1
    51    49    50   ar
    52    49    51    1
    53     2     1   ar
    54     2     5    1
    55    41    43    1
    56    50    56    1
    57     1    10    1
    58    57    56    1
    59    11    10    1
    60    56    58    1
    61    10    12    1
