@<TRIPOS>MOLECULE
mol_data/opt/b3lyp/geoms/mol2/4hh4hh.out
 30 31 0 0 0
SMALL
GASTEIGER

@<TRIPOS>ATOM
      1 C          -0.0318    0.1747    0.5652 C.ar    1  LIG1        0.0252
      2 C           1.3674    0.1853    0.5284 C.ar    1  LIG1       -0.0315
      3 C          -0.7102    1.2449   -0.0352 C.ar    1  LIG1       -0.0393
      4 C           2.0960    1.2208   -0.0773 C.ar    1  LIG1        0.0063
      5 H           1.9192   -0.6307    0.9879 H       1  LIG1        0.0643
      6 C          -0.0057    2.2792   -0.6408 C.ar    1  LIG1       -0.0387
      7 C           1.3966    2.2953   -0.6763 C.ar    1  LIG1        0.0325
      8 H          -0.5536    3.1002   -1.0977 H       1  LIG1        0.0637
      9 H          -1.7973    1.2710   -0.0227 H       1  LIG1        0.0636
     10 N          -0.7322   -0.8406    1.2435 N.pl3   1  LIG1       -0.3579
     11 H          -1.6615   -1.0082    0.8790 H       1  LIG1        0.1423
     12 H          -0.2194   -1.7104    1.3140 H       1  LIG1        0.1423
     13 N           2.0707    3.3850   -1.2580 N.pl3   1  LIG1       -0.3575
     14 H           3.0216    3.1711   -1.5321 H       1  LIG1        0.1423
     15 H           1.5587    3.8165   -2.0169 H       1  LIG1        0.1423
     16 C           4.2880    0.0997   -0.6835 C.ar    1  LIG1        0.0325
     17 C           5.6904    0.1159   -0.6515 C.ar    1  LIG1       -0.0387
     18 C           3.5901    1.1721   -0.0791 C.ar    1  LIG1        0.0063
     19 C           6.3964    1.1481   -0.0441 C.ar    1  LIG1       -0.0393
     20 H           6.2373   -0.7034   -1.1127 H       1  LIG1        0.0637
     21 C           4.3201    2.2057    0.5281 C.ar    1  LIG1       -0.0315
     22 C           5.7194    2.2162    0.5617 C.ar    1  LIG1        0.0252
     23 H           3.7694    3.0201    0.9917 H       1  LIG1        0.0643
     24 H           7.4835    1.1220   -0.0343 H       1  LIG1        0.0636
     25 N           3.6123   -0.9880   -1.2670 N.pl3   1  LIG1       -0.3575
     26 H           2.6618   -0.7724   -1.5408 H       1  LIG1        0.1423
     27 H           4.1238   -1.4191   -2.0265 H       1  LIG1        0.1423
     28 N           6.4215    3.2292    1.2416 N.pl3   1  LIG1       -0.3579
     29 H           7.3495    3.3987    0.8750 H       1  LIG1        0.1423
     30 H           5.9084    4.0984    1.3173 H       1  LIG1        0.1423
@<TRIPOS>BOND
     1    27    25    1
     2    15    13    1
     3    26    25    1
     4    14    13    1
     5    25    16    1
     6    13     7    1
     7    20    17    1
     8     8     6    1
     9    16    17   ar
    10    16    18   ar
    11     7     6   ar
    12     7     4   ar
    13    17    19   ar
    14     6     3   ar
    15    18     4    1
    16    18    21   ar
    17     4     2   ar
    18    19    24    1
    19    19    22   ar
    20     3     9    1
    21     3     1   ar
    22    21    22   ar
    23    21    23    1
    24     2     1   ar
    25     2     5    1
    26    22    28    1
    27     1    10    1
    28    29    28    1
    29    11    10    1
    30    28    30    1
    31    10    12    1
