@<TRIPOS>MOLECULE
mol_data/opt/b3lyp/geoms/mol2/4hh4hh4hh.out
 44 46 0 0 0
SMALL
GASTEIGER

@<TRIPOS>ATOM
      1 C          -0.1277    0.5920    1.0130 C.ar    1  LIG1        0.0252
      2 C           1.2701    0.5820    0.9415 C.ar    1  LIG1       -0.0315
      3 C          -0.8304    1.2551   -0.0033 C.ar    1  LIG1       -0.0393
      4 C           1.9750    1.2110   -0.0969 C.ar    1  LIG1        0.0063
      5 H           1.8401    0.0774    1.7171 H       1  LIG1        0.0643
      6 C          -0.1497    1.8824   -1.0406 C.ar    1  LIG1       -0.0387
      7 C           1.2511    1.8786   -1.1132 C.ar    1  LIG1        0.0325
      8 H          -0.7159    2.3928   -1.8164 H       1  LIG1        0.0637
      9 H          -1.9171    1.2855    0.0218 H       1  LIG1        0.0636
     10 N          -0.8022    0.0170    2.1061 N.pl3   1  LIG1       -0.3579
     11 H          -1.7381   -0.3004    1.8879 H       1  LIG1        0.1423
     12 H          -0.2791   -0.7167    2.5672 H       1  LIG1        0.1423
     13 N           1.8996    2.5669   -2.1563 N.pl3   1  LIG1       -0.3575
     14 H           2.8450    2.2454   -2.3229 H       1  LIG1        0.1423
     15 H           1.3645    2.5898   -3.0152 H       1  LIG1        0.1423
     16 C           4.1733   -0.0593   -0.1179 C.ar    1  LIG1        0.0331
     17 C           5.5730   -0.0237   -0.1248 C.ar    1  LIG1       -0.0309
     18 C           3.4686    1.1677   -0.1080 C.ar    1  LIG1        0.0063
     19 C           6.3075    1.1698   -0.1130 C.ar    1  LIG1        0.0063
     20 H           6.1212   -0.9623   -0.1322 H       1  LIG1        0.0643
     21 C           4.2031    2.3612   -0.0998 C.ar    1  LIG1       -0.0309
     22 C           5.6028    2.3968   -0.0972 C.ar    1  LIG1        0.0331
     23 H           3.6549    3.2998   -0.0875 H       1  LIG1        0.0643
     24 N           3.5057   -1.2961   -0.0702 N.pl3   1  LIG1       -0.3575
     25 H           2.5542   -1.2586   -0.4136 H       1  LIG1        0.1423
     26 H           4.0250   -2.0527   -0.4968 H       1  LIG1        0.1423
     27 N           6.2706    3.6325   -0.0285 N.pl3   1  LIG1       -0.3575
     28 H           7.2206    3.6016   -0.3768 H       1  LIG1        0.1423
     29 H           5.7496    4.3970   -0.4386 H       1  LIG1        0.1423
     30 C           8.5213    0.4777   -1.1394 C.ar    1  LIG1        0.0325
     31 C           9.9223    0.4725   -1.0719 C.ar    1  LIG1       -0.0387
     32 C           7.8011    1.1262   -0.1081 C.ar    1  LIG1        0.0063
     33 C          10.6068    1.0801   -0.0255 C.ar    1  LIG1       -0.0393
     34 H          10.4856   -0.0234   -1.8591 H       1  LIG1        0.0637
     35 C           8.5099    1.7355    0.9394 C.ar    1  LIG1       -0.0315
     36 C           9.9079    1.7241    1.0056 C.ar    1  LIG1        0.0252
     37 H           7.9427    2.2256    1.7263 H       1  LIG1        0.0643
     38 H          11.6936    1.0491   -0.0049 H       1  LIG1        0.0636
     39 N           7.8690   -0.1909   -2.1928 N.pl3   1  LIG1       -0.3575
     40 H           6.9228    0.1333   -2.3497 H       1  LIG1        0.1423
     41 H           8.4009   -0.1977   -3.0540 H       1  LIG1        0.1423
     42 N          10.5865    2.2784    2.1069 N.pl3   1  LIG1       -0.3579
     43 H          11.5215    2.6002    1.8911 H       1  LIG1        0.1423
     44 H          10.0650    3.0030    2.5838 H       1  LIG1        0.1423
@<TRIPOS>BOND
     1    41    39    1
     2    15    13    1
     3    40    39    1
     4    14    13    1
     5    39    30    1
     6    13     7    1
     7    34    31    1
     8     8     6    1
     9    30    31   ar
    10    30    32   ar
    11     7     6   ar
    12     7     4   ar
    13    31    33   ar
    14     6     3   ar
    15    26    24    1
    16    29    27    1
    17    25    24    1
    18    28    27    1
    19    20    17    1
    20    17    16   ar
    21    17    19   ar
    22    16    18   ar
    23    16    24    1
    24    19    32    1
    25    19    22   ar
    26    32    35   ar
    27    18    21   ar
    28    18     4    1
    29    21    22   ar
    30    21    23    1
    31    22    27    1
    32     4     2   ar
    33    33    38    1
    34    33    36   ar
    35     3     9    1
    36     3     1   ar
    37    35    36   ar
    38    35    37    1
    39     2     1   ar
    40     2     5    1
    41    36    42    1
    42     1    10    1
    43    11    10    1
    44    43    42    1
    45    10    12    1
    46    42    44    1
