@<TRIPOS>MOLECULE
mol_data/opt/b3lyp/geoms/mol2/4hh6ee-4he6ld.out
 57 60 0 0 0
SMALL
GASTEIGER

@<TRIPOS>ATOM
      1 C          -0.2058    0.7521    0.9441 C.ar    1  LIG1        0.0252
      2 C           1.1919    0.7849    0.8919 C.ar    1  LIG1       -0.0315
      3 C          -0.9101    1.2234   -0.1738 C.ar    1  LIG1       -0.0393
      4 C           1.8852    1.2792   -0.2221 C.ar    1  LIG1        0.0072
      5 H           1.7664    0.4372    1.7470 H       1  LIG1        0.0643
      6 C          -0.2356    1.7022   -1.2900 C.ar    1  LIG1       -0.0387
      7 C           1.1660    1.7416   -1.3462 C.ar    1  LIG1        0.0326
      8 H          -0.8063    2.0545   -2.1459 H       1  LIG1        0.0637
      9 H          -1.9973    1.2160   -0.1680 H       1  LIG1        0.0636
     10 N          -0.8812    0.3272    2.1016 N.pl3   1  LIG1       -0.3579
     11 H          -1.8056   -0.0441    1.9236 H       1  LIG1        0.1423
     12 H          -0.3481   -0.3122    2.6770 H       1  LIG1        0.1423
     13 N           1.8091    2.2601   -2.4790 N.pl3   1  LIG1       -0.3575
     14 H           2.7578    1.9381   -2.6140 H       1  LIG1        0.1423
     15 H           1.2706    2.1795   -3.3310 H       1  LIG1        0.1423
     16 C           4.1815    2.4137   -0.1722 C.ar    1  LIG1        0.1216
     17 C           3.3755    1.2459   -0.2055 C.ar    1  LIG1        0.0190
     18 C           4.0513    0.0276   -0.1589 C.ar    1  LIG1       -0.0338
     19 C           5.4545   -0.0320   -0.1157 C.ar    1  LIG1        0.0513
     20 C           6.1663    1.1974   -0.1620 C.ar    1  LIG1        0.0895
     21 N           5.5272    2.3723   -0.1670 N.ar    1  LIG1       -0.2365
     22 H           3.4829   -0.8967   -0.1401 H       1  LIG1        0.0637
     23 C           3.5931    3.7185   -0.1117 C.1     1  LIG1       -0.0492
     24 C           3.1075    4.8232   -0.0432 C.1     1  LIG1       -0.1124
     25 H           2.6719    5.7941    0.0098 H       1  LIG1        0.1232
     26 C           6.1005   -1.2957    0.0224 C.1     1  LIG1       -0.0675
     27 C           6.6061   -2.3864    0.1594 C.1     1  LIG1       -0.1138
     28 H           7.0767   -3.3355    0.2738 H       1  LIG1        0.1232
     29 C           8.4768    0.6834   -1.1277 C.ar    1  LIG1        0.0345
     30 C           9.8717    0.8376   -1.0226 C.ar    1  LIG1       -0.0314
     31 C           7.6568    1.2724   -0.1351 C.ar    1  LIG1        0.0234
     32 C          10.4672    1.5624    0.0049 C.ar    1  LIG1        0.0044
     33 H          10.5038    0.3933   -1.7871 H       1  LIG1        0.0643
     34 C           8.2586    2.0173    0.8803 C.ar    1  LIG1       -0.0348
     35 C           9.6478    2.1713    0.9891 C.ar    1  LIG1        0.0333
     36 H           7.6213    2.4892    1.6196 H       1  LIG1        0.0637
     37 N           7.9565   -0.0420   -2.1852 N.pl3   1  LIG1       -0.3574
     38 H           6.9791    0.0899   -2.3968 H       1  LIG1        0.1423
     39 H           8.5411   -0.1161   -3.0043 H       1  LIG1        0.1423
     40 C          10.1956    2.8907    2.0937 C.1     1  LIG1       -0.0690
     41 C          10.6392    3.4891    3.0483 C.1     1  LIG1       -0.1139
     42 H          11.0294    4.0153    3.8881 H       1  LIG1        0.1232
     43 C          12.6517    2.8792   -0.0531 C.ar    1  LIG1        0.2225
     44 C          11.9515    1.6460    0.0611 C.ar    1  LIG1        0.0461
     45 C          12.7293    0.5075    0.1978 C.ar    1  LIG1       -0.0300
     46 C          14.1356    0.6068    0.2483 C.ar    1  LIG1        0.0706
     47 C          14.7026    1.8814    0.1597 C.ar    1  LIG1        0.0488
     48 N          13.9764    2.9910    0.0068 N.ar    1  LIG1       -0.2195
     49 H          12.2510   -0.4624    0.2847 H       1  LIG1        0.0639
     50 H          15.7813    2.0068    0.2098 H       1  LIG1        0.0844
     51 O          11.9130    3.9777   -0.2579 O.3     1  LIG1       -0.4792
     52 C          12.5928    5.2379   -0.3166 C.3     1  LIG1        0.0804
     53 H          11.8071    5.9766   -0.4739 H       1  LIG1        0.0660
     54 H          13.1230    5.4368    0.6181 H       1  LIG1        0.0660
     55 H          13.3106    5.2576   -1.1405 H       1  LIG1        0.0660
     56 N          15.6311   -1.4956    0.5092 N.1     1  LIG1       -0.1908
     57 C          14.9589   -0.5523    0.3943 C.1     1  LIG1        0.1007
@<TRIPOS>BOND
     1    15    13    1
     2    39    37    1
     3    14    13    1
     4    13     7    1
     5    38    37    1
     6    37    29    1
     7     8     6    1
     8    33    30    1
     9     7     6   ar
    10     7     4   ar
    11     6     3   ar
    12    55    52    1
    13    29    30   ar
    14    29    31   ar
    15    30    32   ar
    16    53    52    1
    17    52    51    1
    18    52    54    1
    19    51    43    1
    20     4    17    1
    21     4     2   ar
    22    17    16   ar
    23    17    18   ar
    24     3     9    1
    25     3     1   ar
    26    16    21   ar
    27    16    23    1
    28    21    20   ar
    29    20    31    1
    30    20    19   ar
    31    18    22    1
    32    18    19   ar
    33    31    34   ar
    34    19    26    1
    35    23    24    3
    36    43    48   ar
    37    43    44   ar
    38    24    25    1
    39    32    44    1
    40    32    35   ar
    41    48    47   ar
    42    26    27    3
    43    44    45   ar
    44    27    28    1
    45    47    50    1
    46    47    46   ar
    47    45    46   ar
    48    45    49    1
    49    46    57    1
    50    57    56    3
    51    34    35   ar
    52    34    36    1
    53     2     1   ar
    54     2     5    1
    55     1    10    1
    56    35    40    1
    57    11    10    1
    58    40    41    3
    59    10    12    1
    60    41    42    1
