@<TRIPOS>MOLECULE
mol_data/opt/b3lyp/geoms/mol2/4hh6hl12fa6ia.out
 51 54 0 0 0
SMALL
GASTEIGER

@<TRIPOS>ATOM
      1 C          -0.1286    0.0926    0.7212 C.ar    1  LIG1        0.0252
      2 C           1.2627    0.2173    0.6295 C.ar    1  LIG1       -0.0315
      3 C          -0.9189    1.0681    0.0966 C.ar    1  LIG1       -0.0393
      4 C           1.8824    1.2785   -0.0483 C.ar    1  LIG1        0.0079
      5 H           1.8949   -0.5108    1.1311 H       1  LIG1        0.0643
      6 C          -0.3239    2.1156   -0.5977 C.ar    1  LIG1       -0.0387
      7 C           1.0671    2.2388   -0.6885 C.ar    1  LIG1        0.0326
      8 H          -0.9541    2.8522   -1.0913 H       1  LIG1        0.0637
      9 H          -2.0026    1.0062    0.1538 H       1  LIG1        0.0636
     10 N          -0.7136   -0.9351    1.4790 N.pl3   1  LIG1       -0.3579
     11 H          -1.6474   -1.1871    1.1824 H       1  LIG1        0.1423
     12 H          -0.1340   -1.7585    1.5761 H       1  LIG1        0.1423
     13 N           1.6459    3.3391   -1.3694 N.pl3   1  LIG1       -0.3575
     14 H           2.4780    3.0818   -1.8915 H       1  LIG1        0.1423
     15 H           0.9893    3.8068   -1.9833 H       1  LIG1        0.1423
     16 C           4.1527    2.4224    0.3360 C.ar    1  LIG1        0.1250
     17 C           3.3698    1.3186   -0.1046 C.ar    1  LIG1        0.0270
     18 C           4.0722    0.1869   -0.5404 C.ar    1  LIG1       -0.0067
     19 C           5.4647    0.1469   -0.5241 C.ar    1  LIG1        0.1498
     20 C           6.1498    1.2711   -0.0137 C.ar    1  LIG1        0.1531
     21 N           5.4901    2.3740    0.3730 N.ar    1  LIG1       -0.2249
     22 H           3.5034   -0.6558   -0.9162 H       1  LIG1        0.0662
     23 N           3.5758    3.5804    0.8340 N.pl3   1  LIG1       -0.3426
     24 H           4.2703    4.3023    0.9774 H       1  LIG1        0.1437
     25 H           2.7521    3.8995    0.3304 H       1  LIG1        0.1437
     26 O           6.2213   -0.8785   -1.0156 O.3     1  LIG1       -0.4928
     27 C           5.5665   -2.0765   -1.3862 C.3     1  LIG1        0.0789
     28 H           6.3547   -2.7737   -1.6738 H       1  LIG1        0.0660
     29 H           4.9951   -2.5027   -0.5509 H       1  LIG1        0.0660
     30 H           4.8908   -1.9275   -2.2398 H       1  LIG1        0.0660
     31 C           7.6048    1.3214    0.0856 C.ar    1  LIG1        0.1986
     32 C           8.6155    0.4234    0.3747 C.ar    1  LIG1        0.1649
     33 C           9.8358    1.1550    0.4065 C.ar    1  LIG1        0.0265
     34 C           9.5129    2.4665    0.1443 C.ar    1  LIG1        0.1411
     35 O           8.1728    2.5689   -0.0439 O.2     1  LIG1       -0.4493
     36 O           8.4522   -0.8993    0.6450 O.3     1  LIG1       -0.5031
     37 H           9.3095   -1.2595    0.9042 H       1  LIG1        0.2923
     38 H          10.8176    0.7638    0.6358 H       1  LIG1        0.0692
     39 C           9.8544    4.9857    0.2278 C.ar    1  LIG1        0.0488
     40 C          10.3385    3.6635    0.0256 C.ar    1  LIG1        0.0384
     41 C          11.6994    3.5089   -0.2849 C.ar    1  LIG1       -0.0479
     42 C          12.5253    4.6206   -0.3801 C.ar    1  LIG1       -0.0429
     43 C          11.9543    5.8742   -0.1730 C.ar    1  LIG1        0.0279
     44 N          10.6625    6.0521    0.1214 N.ar    1  LIG1       -0.2595
     45 H          12.0955    2.5148   -0.4692 H       1  LIG1        0.0626
     46 H          12.5571    6.7778   -0.2456 H       1  LIG1        0.0829
     47 C           8.4230    5.2967    0.5886 C.3     1  LIG1       -0.0217
     48 H           8.0758    4.6939    1.4327 H       1  LIG1        0.0293
     49 H           7.7418    5.0747   -0.2382 H       1  LIG1        0.0293
     50 H           8.3547    6.3565    0.8377 H       1  LIG1        0.0293
     51 H          13.5785    4.5204   -0.6217 H       1  LIG1        0.0633
@<TRIPOS>BOND
     1    30    27    1
     2    15    13    1
     3    14    13    1
     4    28    27    1
     5    27    26    1
     6    27    29    1
     7    13     7    1
     8     8     6    1
     9    26    19    1
    10    22    18    1
    11     7     6   ar
    12     7     4   ar
    13    51    42    1
    14     6     3   ar
    15    18    19   ar
    16    18    17   ar
    17    19    20   ar
    18    45    41    1
    19    42    41   ar
    20    42    43   ar
    21    41    40   ar
    22    46    43    1
    23    49    47    1
    24    43    44   ar
    25    17     4    1
    26    17    16   ar
    27     4     2   ar
    28    35    31   ar
    29    35    34   ar
    30    20    31    1
    31    20    21   ar
    32    40    34    1
    33    40    39   ar
    34    31    32   ar
    35     3     9    1
    36     3     1   ar
    37    44    39   ar
    38    34    33   ar
    39    39    47    1
    40    25    23    1
    41    16    21   ar
    42    16    23    1
    43    32    33   ar
    44    32    36    1
    45    33    38    1
    46    47    50    1
    47    47    48    1
    48     2     1   ar
    49     2     5    1
    50    36    37    1
    51     1    10    1
    52    23    24    1
    53    11    10    1
    54    10    12    1
