@<TRIPOS>MOLECULE
mol_data/opt/b3lyp/geoms/mol2/4hi13hf-6da12li.out
 52 55 0 0 0
SMALL
GASTEIGER

@<TRIPOS>ATOM
      1 C          -0.0746   -0.2010    0.8577 C.ar    1  LIG1        0.0252
      2 C           1.2870   -0.0167    0.5901 C.ar    1  LIG1       -0.0316
      3 C          -0.9666    0.8042    0.4544 C.ar    1  LIG1       -0.0408
      4 C           1.7698    1.1319   -0.0597 C.ar    1  LIG1        0.0049
      5 H           1.9973   -0.7657    0.9290 H       1  LIG1        0.0643
      6 C          -0.4915    1.9388   -0.1935 C.ar    1  LIG1       -0.0565
      7 C           0.8657    2.1412   -0.4726 C.ar    1  LIG1       -0.0412
      8 H          -1.2047    2.6963   -0.5082 H       1  LIG1        0.0621
      9 H          -2.0301    0.6946    0.6509 H       1  LIG1        0.0636
     10 N          -0.5232   -1.3180    1.5686 N.pl3   1  LIG1       -0.3579
     11 H          -1.4948   -1.5544    1.4207 H       1  LIG1        0.1423
     12 H           0.0717   -2.1329    1.5087 H       1  LIG1        0.1423
     13 C           1.2916    3.3870   -1.2180 C.3     1  LIG1       -0.0391
     14 H           0.4377    3.8186   -1.7479 H       1  LIG1        0.0278
     15 H           2.0721    3.1750   -1.9545 H       1  LIG1        0.0278
     16 H           1.6798    4.1689   -0.5533 H       1  LIG1        0.0278
     17 C           3.2184    1.2141   -0.3049 C.ar    1  LIG1        0.0718
     18 C           4.1115    0.2407   -0.7649 C.ar    1  LIG1        0.0929
     19 C           5.3888    0.8347   -0.8267 C.ar    1  LIG1        0.1635
     20 C           5.3013    2.1642   -0.3936 C.ar    1  LIG1        0.0936
     21 N           3.9499    2.3521   -0.1003 N.ar    1  LIG1       -0.3497
     22 H           3.5735    3.1868    0.3234 H       1  LIG1        0.1661
     23 N           3.9389   -1.1010   -1.2213 N.pl3   1  LIG1       -0.3535
     24 H           3.7238   -1.7436   -0.4638 H       1  LIG1        0.1425
     25 H           3.1879   -1.1762   -1.9022 H       1  LIG1        0.1425
     26 O           6.4824    0.1725   -1.2792 O.3     1  LIG1       -0.5031
     27 H           6.1340   -0.6952   -1.5618 H       1  LIG1        0.2923
     28 C           6.1594    4.5176    0.1315 C.ar    1  LIG1        0.1500
     29 C           6.3379    3.1663   -0.2762 C.ar    1  LIG1        0.0378
     30 C           7.6802    2.8280   -0.5901 C.ar    1  LIG1       -0.0477
     31 C           8.6904    3.7593   -0.4929 C.ar    1  LIG1       -0.0318
     32 C           8.3888    5.0738   -0.0655 C.ar    1  LIG1        0.1111
     33 N           7.1373    5.4314    0.2355 N.ar    1  LIG1       -0.2325
     34 H           7.9025    1.8210   -0.9194 H       1  LIG1        0.0626
     35 N           3.7928    5.4059    0.7635 N.1     1  LIG1       -0.1893
     36 C           4.8594    5.0311    0.4822 C.1     1  LIG1        0.1198
     37 H           9.7105    3.5005   -0.7503 H       1  LIG1        0.0640
     38 C           9.4282    6.0858    0.0589 C.ar    1  LIG1        0.1945
     39 C          10.8035    6.0517   -0.0416 C.ar    1  LIG1        0.1700
     40 C          11.2946    7.3870    0.1572 C.ar    1  LIG1        0.0297
     41 C          10.1717    8.1336    0.3654 C.ar    1  LIG1        0.0992
     42 O           9.0465    7.3747    0.3111 O.2     1  LIG1       -0.4573
     43 H          10.0186    9.1865    0.5482 H       1  LIG1        0.1033
     44 O          11.5601    4.9489   -0.3412 O.3     1  LIG1       -0.4910
     45 C          12.2869    4.4063    0.7672 C.3     1  LIG1        0.0790
     46 H          12.8375    3.5458    0.3827 H       1  LIG1        0.0660
     47 H          12.9966    5.1332    1.1785 H       1  LIG1        0.0660
     48 H          11.6058    4.0821    1.5630 H       1  LIG1        0.0660
     49 C          12.7193    7.8478    0.1066 C.3     1  LIG1       -0.0332
     50 H          12.7768    8.9349    0.0052 H       1  LIG1        0.0280
     51 H          13.2423    7.4000   -0.7445 H       1  LIG1        0.0280
     52 H          13.2746    7.5729    1.0113 H       1  LIG1        0.0280
@<TRIPOS>BOND
     1    15    13    1
     2    25    23    1
     3    14    13    1
     4    27    26    1
     5    26    19    1
     6    23    18    1
     7    23    24    1
     8    13    16    1
     9    13     7    1
    10    34    30    1
    11    19    18   ar
    12    19    20   ar
    13    18    17   ar
    14    37    31    1
    15    51    49    1
    16    30    31   ar
    17    30    29   ar
    18     8     6    1
    19    31    32   ar
    20     7     6   ar
    21     7     4   ar
    22    20    29    1
    23    20    21   ar
    24    44    39    1
    25    44    45    1
    26    17    21   ar
    27    17     4    1
    28    29    28   ar
    29     6     3   ar
    30    21    22    1
    31    32    38    1
    32    32    33   ar
    33     4     2   ar
    34    39    38   ar
    35    39    40   ar
    36    50    49    1
    37    38    42   ar
    38    49    40    1
    39    49    52    1
    40    28    33   ar
    41    28    36    1
    42    40    41   ar
    43    42    41   ar
    44    41    43    1
    45    46    45    1
    46     3     9    1
    47     3     1   ar
    48    36    35    3
    49     2     1   ar
    50     2     5    1
    51    45    47    1
    52    45    48    1
    53     1    10    1
    54    11    10    1
    55    12    10    1
