@<TRIPOS>MOLECULE
mol_data/opt/b3lyp/geoms/mol2/4hi12ah-4hi-6di.out
 54 57 0 0 0
SMALL
GASTEIGER

@<TRIPOS>ATOM
      1 C          -0.0060   -0.3317   -0.3687 C.ar    1  LIG1        0.0252
      2 C           1.3760   -0.1202   -0.3306 C.ar    1  LIG1       -0.0301
      3 C          -0.8468    0.7436   -0.0466 C.ar    1  LIG1       -0.0408
      4 C           1.9315    1.1193    0.0308 C.ar    1  LIG1        0.0220
      5 H           2.0418   -0.9327   -0.6082 H       1  LIG1        0.0643
      6 C          -0.2987    1.9732    0.3029 C.ar    1  LIG1       -0.0564
      7 C           1.0805    2.2043    0.3567 C.ar    1  LIG1       -0.0397
      8 H          -0.9704    2.7908    0.5522 H       1  LIG1        0.0621
      9 H          -1.9258    0.6139   -0.0686 H       1  LIG1        0.0636
     10 N          -0.5321   -1.5925   -0.6736 N.pl3   1  LIG1       -0.3579
     11 H          -1.4692   -1.5746   -1.0536 H       1  LIG1        0.1423
     12 H           0.0762   -2.1790   -1.2292 H       1  LIG1        0.1423
     13 C           1.5852    3.5660    0.7756 C.3     1  LIG1       -0.0390
     14 H           0.7549    4.1815    1.1330 H       1  LIG1        0.0278
     15 H           2.0697    4.0967   -0.0498 H       1  LIG1        0.0278
     16 H           2.3236    3.4954    1.5810 H       1  LIG1        0.0278
     17 C           3.3928    1.2013    0.0705 C.ar    1  LIG1        0.1378
     18 C           4.3490    0.2394    0.2816 C.ar    1  LIG1        0.0055
     19 C           5.6252    0.8726    0.1678 C.ar    1  LIG1        0.0716
     20 C           5.3726    2.2049   -0.1328 C.ar    1  LIG1        0.1580
     21 O           3.9997    2.3963   -0.1700 O.2     1  LIG1       -0.4529
     22 H           4.1705   -0.7937    0.5438 H       1  LIG1        0.0674
     23 N           6.8469    0.2730    0.4497 N.pl3   1  LIG1       -0.3550
     24 H           6.8464   -0.7293    0.3140 H       1  LIG1        0.1424
     25 H           7.6378    0.7244   -0.0056 H       1  LIG1        0.1424
     26 C           7.4659    3.3784   -0.8789 C.ar    1  LIG1        0.0360
     27 C           8.2369    4.5409   -0.8933 C.ar    1  LIG1       -0.0323
     28 C           6.1966    3.3990   -0.2522 C.ar    1  LIG1        0.0400
     29 C           7.7695    5.7511   -0.3642 C.ar    1  LIG1       -0.0105
     30 H           9.2131    4.5185   -1.3724 H       1  LIG1        0.0642
     31 C           5.7374    4.6273    0.2544 C.ar    1  LIG1       -0.0458
     32 C           6.4820    5.8063    0.2132 C.ar    1  LIG1       -0.0419
     33 H           4.7607    4.6440    0.7268 H       1  LIG1        0.0628
     34 N           7.9494    2.1867   -1.4683 N.pl3   1  LIG1       -0.3574
     35 H           7.2155    1.7039   -1.9813 H       1  LIG1        0.1423
     36 H           8.7389    2.3535   -2.0822 H       1  LIG1        0.1423
     37 C           5.9089    7.0695    0.8148 C.3     1  LIG1       -0.0391
     38 H           5.1239    6.8275    1.5363 H       1  LIG1        0.0278
     39 H           5.4637    7.7133    0.0483 H       1  LIG1        0.0278
     40 H           6.6707    7.6585    1.3345 H       1  LIG1        0.0278
     41 C           8.4304    8.0814   -1.1865 C.ar    1  LIG1        0.1477
     42 C           8.6835    6.9271   -0.4123 C.ar    1  LIG1        0.0185
     43 C           9.8894    6.9155    0.2984 C.ar    1  LIG1       -0.0469
     44 C          10.7668    8.0015    0.2529 C.ar    1  LIG1       -0.0317
     45 C          10.3800    9.0925   -0.5381 C.ar    1  LIG1        0.0320
     46 N           9.2532    9.1409   -1.2461 N.ar    1  LIG1       -0.2438
     47 H          10.1291    6.0447    0.9032 H       1  LIG1        0.0628
     48 H          11.0214    9.9700   -0.6044 H       1  LIG1        0.0832
     49 N           6.3025    8.2506   -2.6829 N.1     1  LIG1       -0.1893
     50 C           7.2489    8.1719   -2.0123 C.1     1  LIG1        0.1197
     51 C          12.0644    8.0072    1.0187 C.3     1  LIG1       -0.0383
     52 H          12.6005    8.9502    0.8848 H       1  LIG1        0.0278
     53 H          12.7231    7.1963    0.6883 H       1  LIG1        0.0278
     54 H          11.8921    7.8665    2.0913 H       1  LIG1        0.0278
@<TRIPOS>BOND
     1    49    50    3
     2    36    34    1
     3    50    41    1
     4    35    34    1
     5    34    26    1
     6    30    27    1
     7    46    41   ar
     8    46    45   ar
     9    12    10    1
    10    41    42   ar
    11    11    10    1
    12    27    26   ar
    13    27    29   ar
    14    26    28   ar
    15    10     1    1
    16     5     2    1
    17    48    45    1
    18    45    44   ar
    19    42    29    1
    20    42    43   ar
    21     1     2   ar
    22     1     3   ar
    23    29    32   ar
    24     2     4   ar
    25    28    20    1
    26    28    31   ar
    27    21    20   ar
    28    21    17   ar
    29    20    19   ar
    30     9     3    1
    31    15    13    1
    32     3     6   ar
    33    25    23    1
    34     4    17    1
    35     4     7   ar
    36    39    37    1
    37    17    18   ar
    38    19    18   ar
    39    19    23    1
    40    32    31   ar
    41    32    37    1
    42    44    43   ar
    43    44    51    1
    44    31    33    1
    45    18    22    1
    46    43    47    1
    47     6     7   ar
    48     6     8    1
    49    24    23    1
    50     7    13    1
    51    53    51    1
    52    13    14    1
    53    13    16    1
    54    37    40    1
    55    37    38    1
    56    52    51    1
    57    51    54    1
