@<TRIPOS>MOLECULE
mol_data/opt/b3lyp/geoms/mol2/4hi6aa13df-6ii-13dd6ha12if-4ae-.out
 95 102 0 0 0
SMALL
GASTEIGER

@<TRIPOS>ATOM
      1 C           0.3688   -1.2385   -1.6754 C.ar    1  LIG1        0.0251
      2 C           1.6208   -0.9154   -1.1357 C.ar    1  LIG1       -0.0330
      3 C          -0.5696   -0.2057   -1.8230 C.ar    1  LIG1       -0.0408
      4 C           1.9499    0.3939   -0.7542 C.ar    1  LIG1       -0.0118
      5 H           2.3675   -1.6981   -1.0270 H       1  LIG1        0.0642
      6 C          -0.2480    1.0896   -1.4348 C.ar    1  LIG1       -0.0565
      7 C           1.0001    1.4309   -0.8979 C.ar    1  LIG1       -0.0426
      8 H          -0.9991    1.8681   -1.5435 H       1  LIG1        0.0621
      9 H          -1.5536   -0.4234   -2.2305 H       1  LIG1        0.0636
     10 N           0.0468   -2.5568   -2.0015 N.pl3   1  LIG1       -0.3579
     11 H          -0.6827   -2.6610   -2.6934 H       1  LIG1        0.1423
     12 H           0.8365   -3.1568   -2.1968 H       1  LIG1        0.1423
     13 C           1.2550    2.8593   -0.4674 C.3     1  LIG1       -0.0391
     14 H           0.3100    3.3613   -0.2404 H       1  LIG1        0.0278
     15 H           1.7500    3.4510   -1.2477 H       1  LIG1        0.0278
     16 H           1.8847    2.9139    0.4249 H       1  LIG1        0.0278
     17 C           4.1682    1.6161   -0.6943 C.ar    1  LIG1        0.0360
     18 C           3.3074    0.6245   -0.1917 C.ar    1  LIG1        0.0006
     19 C           3.8188   -0.1724    0.8436 C.ar    1  LIG1       -0.0505
     20 C           5.1039    0.0406    1.3281 C.ar    1  LIG1       -0.0336
     21 C           5.8718    1.0659    0.7578 C.ar    1  LIG1        0.0885
     22 N           5.4016    1.8385   -0.2457 N.ar    1  LIG1       -0.2529
     23 H           3.1986   -0.9512    1.2770 H       1  LIG1        0.0625
     24 H           3.8413    2.2478   -1.5167 H       1  LIG1        0.0836
     25 H           5.4995   -0.5679    2.1327 H       1  LIG1        0.0640
     26 C           7.2325    1.3883    1.1816 C.ar    1  LIG1        0.0866
     27 C           8.1060    0.8610    2.1510 C.ar    1  LIG1        0.1204
     28 C           9.3192    1.5989    2.0549 C.ar    1  LIG1        0.1601
     29 C           9.1776    2.5549    1.0490 C.ar    1  LIG1        0.0920
     30 N           7.8920    2.3988    0.5595 N.ar    1  LIG1       -0.3490
     31 H           7.4553    2.8851   -0.2119 H       1  LIG1        0.1661
     32 N           7.6208   -1.0477    3.8188 N.1     1  LIG1       -0.1907
     33 C           7.8464   -0.1856    3.0681 C.1     1  LIG1        0.1050
     34 O          10.3860    1.3640    2.8599 O.3     1  LIG1       -0.5034
     35 H          10.9889    2.1191    2.8160 H       1  LIG1        0.2923
     36 C           9.8213    4.8629    0.1943 C.ar    1  LIG1        0.0482
     37 C          10.1491    3.5293    0.5569 C.ar    1  LIG1        0.0232
     38 C          11.5031    3.1710    0.4745 C.ar    1  LIG1       -0.0458
     39 C          12.4914    4.0515    0.0287 C.ar    1  LIG1       -0.0224
     40 C          12.0411    5.3230   -0.3843 C.ar    1  LIG1        0.0916
     41 N          10.7497    5.7015   -0.2608 N.ar    1  LIG1       -0.2495
     42 H          11.7988    2.1629    0.7541 H       1  LIG1        0.0628
     43 C           8.4264    5.4291    0.3088 C.3     1  LIG1       -0.0217
     44 H           7.9091    5.0656    1.2006 H       1  LIG1        0.0293
     45 H           7.8101    5.1690   -0.5615 H       1  LIG1        0.0293
     46 H           8.4880    6.5179    0.3442 H       1  LIG1        0.0293
     47 C          13.9356    3.6203    0.0569 C.3     1  LIG1       -0.0376
     48 H          14.5980    4.4524    0.3100 H       1  LIG1        0.0278
     49 H          14.2693    3.2288   -0.9079 H       1  LIG1        0.0278
     50 H          14.0783    2.8339    0.8032 H       1  LIG1        0.0278
     51 C          12.8927    6.4026   -0.9086 C.ar    1  LIG1        0.0845
     52 C          14.0314    6.4781   -1.7177 C.ar    1  LIG1        0.0964
     53 C          14.3176    7.8732   -1.9267 C.ar    1  LIG1        0.0951
     54 C          13.3398    8.6135   -1.2486 C.ar    1  LIG1        0.0691
     55 N          12.5092    7.6945   -0.6645 N.ar    1  LIG1       -0.3508
     56 H          11.6748    7.9280   -0.1365 H       1  LIG1        0.1660
     57 N          15.2729    4.5624   -2.9231 N.1     1  LIG1       -0.1908
     58 C          14.7149    5.4196   -2.3666 C.1     1  LIG1        0.1026
     59 N          16.2524    8.8100   -3.3563 N.1     1  LIG1       -0.1908
     60 C          15.3777    8.3849   -2.7150 C.1     1  LIG1        0.1026
     61 C          11.8938   10.6391   -0.7898 C.ar    1  LIG1        0.1261
     62 C          13.1585   10.0530   -1.0822 C.ar    1  LIG1        0.0391
     63 C          14.2415   10.9405   -1.1661 C.ar    1  LIG1       -0.0472
     64 C          14.0710   12.2951   -0.9241 C.ar    1  LIG1       -0.0319
     65 C          12.7934   12.7593   -0.5646 C.ar    1  LIG1        0.1085
     66 N          11.7307   11.9303   -0.5246 N.ar    1  LIG1       -0.2287
     67 H          15.2278   10.5632   -1.4107 H       1  LIG1        0.0626
     68 N          10.7298    9.8591   -0.7148 N.pl3   1  LIG1       -0.3426
     69 H           9.9234   10.4607   -0.5840 H       1  LIG1        0.1437
     70 H          10.5940    9.2295   -1.4995 H       1  LIG1        0.1437
     71 H          14.9106   12.9705   -1.0114 H       1  LIG1        0.0640
     72 C          12.5423   14.1539   -0.2358 C.ar    1  LIG1        0.1604
     73 C          13.3631   15.2364    0.0294 C.ar    1  LIG1        0.0390
     74 C          12.4759   16.3193    0.2909 C.ar    1  LIG1        0.1662
     75 C          11.1817   15.8570    0.1667 C.ar    1  LIG1        0.1772
     76 O          11.2302   14.5258   -0.1380 O.2     1  LIG1       -0.4492
     77 C          14.8566   15.3367    0.0999 C.3     1  LIG1       -0.0325
     78 H          15.1359   16.2647    0.6042 H       1  LIG1        0.0280
     79 H          15.3155   15.3546   -0.8959 H       1  LIG1        0.0280
     80 H          15.2948   14.5009    0.6536 H       1  LIG1        0.0280
     81 O          12.9151   17.5667    0.6259 O.3     1  LIG1       -0.5030
     82 H          12.2333   18.0098    1.1494 H       1  LIG1        0.2923
     83 C           9.7271   17.8759    0.2574 C.ar    1  LIG1       -0.0509
     84 C           8.4769   18.4611    0.4478 C.ar    1  LIG1       -0.0599
     85 C           9.8788   16.4766    0.3337 C.ar    1  LIG1        0.0221
     86 C           7.3566   17.6752    0.7010 C.ar    1  LIG1       -0.0463
     87 H           8.3743   19.5400    0.3812 H       1  LIG1        0.0618
     88 C           8.7440   15.6851    0.5776 C.ar    1  LIG1       -0.0355
     89 C           7.4840   16.2732    0.7582 C.ar    1  LIG1        0.0254
     90 H           8.8464   14.6075    0.6278 H       1  LIG1        0.0637
     91 H           6.3821   18.1283    0.8461 H       1  LIG1        0.0630
     92 H          10.5753   18.5008   -0.0047 H       1  LIG1        0.0625
     93 C           6.3371   15.4551    1.0066 C.1     1  LIG1       -0.0696
     94 C           5.3628   14.7693    1.2174 C.1     1  LIG1       -0.1139
     95 H           4.5056   14.1647    1.4036 H       1  LIG1        0.1232
@<TRIPOS>BOND
     1    59    60    3
     2    57    58    3
     3    60    53    1
     4    11    10    1
     5    58    52    1
     6     9     3    1
     7    12    10    1
     8    10     1    1
     9    53    52   ar
    10    53    54   ar
    11     3     1   ar
    12     3     6   ar
    13    52    51   ar
    14     1     2   ar
    15     8     6    1
    16    24    17    1
    17    70    68    1
    18     6     7   ar
    19    67    63    1
    20    54    62    1
    21    54    55   ar
    22    15    13    1
    23    63    62   ar
    24    63    64   ar
    25     2     5    1
    26     2     4   ar
    27    62    61   ar
    28    71    64    1
    29    64    65   ar
    30    51    55   ar
    31    51    40    1
    32    49    47    1
    33     7     4   ar
    34     7    13    1
    35    79    77    1
    36    61    68    1
    37    61    66   ar
    38     4    18    1
    39    68    69    1
    40    17    22   ar
    41    17    18   ar
    42    55    56    1
    43    65    66   ar
    44    65    72    1
    45    45    43    1
    46    13    14    1
    47    13    16    1
    48    40    41   ar
    49    40    39   ar
    50    41    36   ar
    51    22    21   ar
    52    72    76   ar
    53    72    73   ar
    54    31    30    1
    55    18    19   ar
    56    76    75   ar
    57    92    83    1
    58    39    47    1
    59    39    38   ar
    60    73    77    1
    61    73    74   ar
    62    47    48    1
    63    47    50    1
    64    77    78    1
    65    77    80    1
    66    75    74   ar
    67    75    85    1
    68    36    43    1
    69    36    37   ar
    70    83    85   ar
    71    83    84   ar
    72    74    81    1
    73    43    46    1
    74    43    44    1
    75    85    88   ar
    76    87    84    1
    77    84    86   ar
    78    38    37   ar
    79    38    42    1
    80    37    29    1
    81    30    29   ar
    82    30    26   ar
    83    88    90    1
    84    88    89   ar
    85    81    82    1
    86    86    89   ar
    87    86    91    1
    88    21    26    1
    89    21    20   ar
    90    89    93    1
    91    19    23    1
    92    19    20   ar
    93    93    94    3
    94    29    28   ar
    95    26    27   ar
    96    94    95    1
    97    20    25    1
    98    28    27   ar
    99    28    34    1
   100    27    33    1
   101    35    34    1
   102    33    32    3
