@<TRIPOS>MOLECULE
mol_data/opt/b3lyp/geoms/mol2/4hl6id12fi-6da-.out
 52 55 0 0 0
SMALL
GASTEIGER

@<TRIPOS>ATOM
      1 C          -0.0006    0.3734    0.9850 C.ar    1  LIG1        0.0253
      2 C           1.3933    0.4240    0.8238 C.ar    1  LIG1       -0.0298
      3 C          -0.7698    1.3436    0.3323 C.ar    1  LIG1       -0.0376
      4 C           2.0158    1.4056    0.0476 C.ar    1  LIG1        0.0273
      5 H           2.0163   -0.3080    1.3318 H       1  LIG1        0.0643
      6 C          -0.1693    2.3261   -0.4556 C.ar    1  LIG1       -0.0176
      7 C           1.2183    2.3667   -0.6090 C.ar    1  LIG1        0.1279
      8 H          -0.7998    3.0525   -0.9539 H       1  LIG1        0.0655
      9 H          -1.8513    1.3371    0.4408 H       1  LIG1        0.0637
     10 N          -0.5906   -0.5773    1.8284 N.pl3   1  LIG1       -0.3579
     11 H          -1.5556   -0.7880    1.6112 H       1  LIG1        0.1423
     12 H          -0.0520   -1.4250    1.9472 H       1  LIG1        0.1423
     13 O           1.8842    3.2796   -1.3870 O.3     1  LIG1       -0.4945
     14 C           1.1181    4.2280   -2.1121 C.3     1  LIG1        0.0788
     15 H           1.8359    4.8298   -2.6711 H       1  LIG1        0.0660
     16 H           0.4313    3.7388   -2.8148 H       1  LIG1        0.0660
     17 H           0.5419    4.8823   -1.4451 H       1  LIG1        0.0660
     18 C           4.3529    2.4000    0.4010 C.ar    1  LIG1        0.0469
     19 C           3.4977    1.3827   -0.1073 C.ar    1  LIG1        0.0080
     20 C           4.1055    0.3108   -0.7468 C.ar    1  LIG1       -0.0326
     21 C           5.5030    0.2517   -0.8802 C.ar    1  LIG1        0.0814
     22 C           6.2810    1.2880   -0.3034 C.ar    1  LIG1        0.1272
     23 N           5.6802    2.3268    0.3011 N.ar    1  LIG1       -0.2468
     24 H           3.4978   -0.4786   -1.1770 H       1  LIG1        0.0638
     25 C           3.8189    3.6113    1.1142 C.3     1  LIG1       -0.0217
     26 H           3.0744    3.3294    1.8657 H       1  LIG1        0.0293
     27 H           3.3193    4.2737    0.4000 H       1  LIG1        0.0293
     28 H           4.6450    4.1441    1.5859 H       1  LIG1        0.0293
     29 N           6.6121   -1.6564   -2.2331 N.1     1  LIG1       -0.1908
     30 C           6.0911   -0.8041   -1.6291 C.1     1  LIG1        0.1014
     31 C           7.7376    1.3248   -0.2909 C.ar    1  LIG1        0.1964
     32 C           8.7839    0.4072   -0.3035 C.ar    1  LIG1        0.1678
     33 C           9.9998    1.1333   -0.1093 C.ar    1  LIG1        0.0376
     34 C           9.6240    2.4545    0.0033 C.ar    1  LIG1        0.1450
     35 O           8.2765    2.5751   -0.1051 O.2     1  LIG1       -0.4491
     36 O           8.8046   -0.9409   -0.3609 O.3     1  LIG1       -0.5030
     37 H           8.0867   -1.2974   -0.9127 H       1  LIG1        0.2923
     38 C          11.3499    0.4931   -0.0021 C.3     1  LIG1       -0.0326
     39 H          12.0186    1.0635    0.6481 H       1  LIG1        0.0280
     40 H          11.8337    0.3937   -0.9818 H       1  LIG1        0.0280
     41 H          11.2486   -0.5155    0.4056 H       1  LIG1        0.0280
     42 C           9.8795    4.8265    0.8682 C.ar    1  LIG1        0.1506
     43 C          10.3849    3.6822    0.1965 C.ar    1  LIG1        0.0535
     44 C          11.6975    3.7837   -0.2986 C.ar    1  LIG1       -0.0469
     45 C          12.4255    4.9505   -0.1159 C.ar    1  LIG1       -0.0428
     46 C          11.8194    6.0179    0.5508 C.ar    1  LIG1        0.0291
     47 N          10.5782    5.9626    1.0318 N.ar    1  LIG1       -0.2439
     48 H          12.1257    2.9530   -0.8473 H       1  LIG1        0.0626
     49 H          12.3507    6.9544    0.7039 H       1  LIG1        0.0830
     50 N           7.5424    4.9503    2.0131 N.1     1  LIG1       -0.1893
     51 C           8.5693    4.8609    1.4768 C.1     1  LIG1        0.1198
     52 H          13.4371    5.0417   -0.4976 H       1  LIG1        0.0633
@<TRIPOS>BOND
     1    16    14    1
     2    15    14    1
     3    29    30    3
     4    14    17    1
     5    14    13    1
     6    30    21    1
     7    13     7    1
     8    24    20    1
     9    40    38    1
    10     8     6    1
    11    37    36    1
    12    21    20   ar
    13    21    22   ar
    14    48    44    1
    15    20    19   ar
    16     7     6   ar
    17     7     4   ar
    18    52    45    1
    19     6     3   ar
    20    36    32    1
    21    32    31   ar
    22    32    33   ar
    23    22    31    1
    24    22    23   ar
    25    44    45   ar
    26    44    43   ar
    27    31    35   ar
    28    45    46   ar
    29    33    38    1
    30    33    34   ar
    31    19     4    1
    32    19    18   ar
    33    35    34   ar
    34    38    41    1
    35    38    39    1
    36    34    43    1
    37     4     2   ar
    38    43    42   ar
    39    23    18   ar
    40     3     9    1
    41     3     1   ar
    42    27    25    1
    43    18    25    1
    44    46    49    1
    45    46    47   ar
    46     2     1   ar
    47     2     5    1
    48    42    47   ar
    49    42    51    1
    50     1    10    1
    51    25    28    1
    52    25    26    1
    53    51    50    3
    54    11    10    1
    55    10    12    1
