@<TRIPOS>MOLECULE
mol_data/opt/b3lyp/geoms/mol2/4ia.out
 15 15 0 0 0
SMALL
GASTEIGER

@<TRIPOS>ATOM
      1 C           0.1176    0.0904    0.0154 C.ar    1  LIG1       -0.0504
      2 C           1.5188    0.0961    0.0113 C.ar    1  LIG1       -0.0588
      3 C          -0.5496    1.3224    0.0115 C.ar    1  LIG1       -0.0588
      4 C           2.2328    1.2947   -0.0029 C.ar    1  LIG1       -0.0615
      5 H           2.0554   -0.8497    0.0210 H       1  LIG1        0.0620
      6 C           0.1595    2.5240   -0.0026 C.ar    1  LIG1       -0.0615
      7 C           1.5549    2.5146   -0.0105 C.ar    1  LIG1       -0.0617
      8 H          -0.3790    3.4677   -0.0030 H       1  LIG1        0.0618
      9 H           3.3193    1.2752   -0.0035 H       1  LIG1        0.0618
     10 H          -1.6370    1.3396    0.0215 H       1  LIG1        0.0620
     11 C          -0.6529   -1.2093   -0.0019 C.3     1  LIG1       -0.0397
     12 H          -0.0991   -2.0103    0.4971 H       1  LIG1        0.0278
     13 H          -0.8485   -1.5413   -1.0293 H       1  LIG1        0.0278
     14 H          -1.6222   -1.1074    0.4954 H       1  LIG1        0.0278
     15 H           2.1089    3.4488   -0.0182 H       1  LIG1        0.0618
@<TRIPOS>BOND
     1    13    11    1
     2    15     7    1
     3     7     4   ar
     4     7     6   ar
     5     9     4    1
     6     8     6    1
     7     4     2   ar
     8     6     3   ar
     9    11     1    1
    10    11    14    1
    11    11    12    1
    12     2     1   ar
    13     2     5    1
    14     3     1   ar
    15     3    10    1
