@<TRIPOS>MOLECULE
mol_data/opt/b3lyp/geoms/mol2/4ia13ee-6fd-12hh.out
 49 52 0 0 0
SMALL
GASTEIGER

@<TRIPOS>ATOM
      1 C          -0.0905    0.2469    0.7896 C.ar    1  LIG1       -0.0498
      2 C           1.2770    0.1193    0.5376 C.ar    1  LIG1       -0.0497
      3 C          -0.7214    1.4613    0.4824 C.ar    1  LIG1       -0.0588
      4 C           2.0225    1.1703   -0.0265 C.ar    1  LIG1       -0.0002
      5 H           1.7798   -0.8082    0.7878 H       1  LIG1        0.0627
      6 C           0.0015    2.5136   -0.0761 C.ar    1  LIG1       -0.0609
      7 C           1.3625    2.3735   -0.3354 C.ar    1  LIG1       -0.0526
      8 H          -0.4984    3.4466   -0.3193 H       1  LIG1        0.0618
      9 H          -1.7836    1.5801    0.6803 H       1  LIG1        0.0620
     10 C          -0.8782   -0.9024    1.3734 C.3     1  LIG1       -0.0397
     11 H          -0.2195   -1.6615    1.8033 H       1  LIG1        0.0278
     12 H          -1.4885   -1.3918    0.6047 H       1  LIG1        0.0278
     13 H          -1.5610   -0.5612    2.1582 H       1  LIG1        0.0278
     14 H           1.9016    3.1905   -0.8068 H       1  LIG1        0.0624
     15 C           3.4589    1.0279   -0.2652 C.ar    1  LIG1        0.0637
     16 C           4.2685   -0.0843   -0.5037 C.ar    1  LIG1        0.0659
     17 C           5.6245    0.3885   -0.6649 C.ar    1  LIG1        0.0660
     18 C           5.6058    1.7751   -0.5188 C.ar    1  LIG1        0.0689
     19 N           4.2836    2.1349   -0.3101 N.ar    1  LIG1       -0.3521
     20 H           4.0095    3.0338    0.0605 H       1  LIG1        0.1660
     21 C           3.8682   -1.4369   -0.6304 C.1     1  LIG1       -0.0663
     22 C           3.5595   -2.6022   -0.7427 C.1     1  LIG1       -0.1138
     23 H           3.2894   -3.6267   -0.8524 H       1  LIG1        0.1232
     24 C           6.7504   -0.4185   -0.9585 C.1     1  LIG1       -0.0663
     25 C           7.7090   -1.1162   -1.2035 C.1     1  LIG1       -0.1138
     26 H           8.5493   -1.7318   -1.4273 H       1  LIG1        0.1232
     27 C           6.5024    4.0783   -1.0737 C.ar    1  LIG1        0.2224
     28 C           6.6794    2.7643   -0.5463 C.ar    1  LIG1        0.0621
     29 C           7.9606    2.4794   -0.0827 C.ar    1  LIG1       -0.0279
     30 C           8.9615    3.4619   -0.0826 C.ar    1  LIG1        0.0816
     31 C           8.6256    4.7865   -0.4930 C.ar    1  LIG1        0.1290
     32 N           7.4058    5.0308   -1.0166 N.ar    1  LIG1       -0.2080
     33 H           8.1952    1.4816    0.2688 H       1  LIG1        0.0639
     34 O           5.3364    4.4450   -1.6695 O.3     1  LIG1       -0.4919
     35 H           4.8366    3.6469   -1.8993 H       1  LIG1        0.2937
     36 N          11.3722    2.7570    0.5459 N.1     1  LIG1       -0.1908
     37 C          10.2853    3.0742    0.2654 C.1     1  LIG1        0.1014
     38 C           9.5084    5.9274   -0.4050 C.ar    1  LIG1        0.1767
     39 C          10.5703    6.3322    0.4058 C.ar    1  LIG1        0.0935
     40 C          10.8748    7.6865    0.0214 C.ar    1  LIG1        0.0845
     41 C          10.0044    8.0060   -0.9780 C.ar    1  LIG1        0.1151
     42 O           9.1814    6.9754   -1.2557 O.2     1  LIG1       -0.4576
     43 H           9.8809    8.8927   -1.5824 H       1  LIG1        0.1049
     44 N          11.2253    5.7451    1.4638 N.pl3   1  LIG1       -0.3536
     45 H          11.3250    4.7375    1.4494 H       1  LIG1        0.1425
     46 H          12.1045    6.2158    1.6528 H       1  LIG1        0.1425
     47 N          11.9359    8.4129    0.6129 N.pl3   1  LIG1       -0.3541
     48 H          12.2524    9.1757    0.0245 H       1  LIG1        0.1425
     49 H          11.6743    8.7973    1.5179 H       1  LIG1        0.1425
@<TRIPOS>BOND
     1    35    34    1
     2    34    27    1
     3    43    41    1
     4    26    25    1
     5    42    41   ar
     6    42    38   ar
     7    25    24    3
     8    27    32   ar
     9    27    28   ar
    10    32    31   ar
    11    41    40   ar
    12    24    17    1
    13    23    22    1
    14    14     7    1
    15    22    21    3
    16    17    18   ar
    17    17    16   ar
    18    21    16    1
    19    28    18    1
    20    28    29   ar
    21    18    19   ar
    22    16    15   ar
    23    31    38    1
    24    31    30   ar
    25    38    39   ar
    26     7     6   ar
    27     7     4   ar
    28     8     6    1
    29    19    15   ar
    30    19    20    1
    31    15     4    1
    32    29    30   ar
    33    29    33    1
    34    30    37    1
    35     6     3   ar
    36     4     2   ar
    37    40    39   ar
    38    40    47    1
    39    48    47    1
    40    37    36    3
    41    39    44    1
    42     3     9    1
    43     3     1   ar
    44     2     5    1
    45     2     1   ar
    46    12    10    1
    47    47    49    1
    48     1    10    1
    49    10    11    1
    50    10    13    1
    51    45    44    1
    52    44    46    1
