@<TRIPOS>MOLECULE
mol_data/opt/b3lyp/geoms/mol2/4ia13hf-12ha6la.out
 48 51 0 0 0
SMALL
GASTEIGER

@<TRIPOS>ATOM
      1 C          -0.1006   -0.1461    0.4107 C.ar    1  LIG1       -0.0498
      2 C           1.2929   -0.1087    0.3336 C.ar    1  LIG1       -0.0497
      3 C          -0.8309    0.9829    0.0104 C.ar    1  LIG1       -0.0588
      4 C           1.9802    1.0280   -0.1422 C.ar    1  LIG1        0.0005
      5 H           1.8682   -0.9630    0.6771 H       1  LIG1        0.0627
      6 C          -0.1697    2.1166   -0.4600 C.ar    1  LIG1       -0.0609
      7 C           1.2198    2.1436   -0.5432 C.ar    1  LIG1       -0.0526
      8 H          -0.7429    2.9846   -0.7745 H       1  LIG1        0.0618
      9 H          -1.9165    0.9715    0.0673 H       1  LIG1        0.0620
     10 C          -0.8128   -1.3800    0.9154 C.3     1  LIG1       -0.0397
     11 H          -0.1113   -2.0972    1.3498 H       1  LIG1        0.0278
     12 H          -1.3489   -1.8888    0.1050 H       1  LIG1        0.0278
     13 H          -1.5548   -1.1279    1.6808 H       1  LIG1        0.0278
     14 H           1.7173    3.0203   -0.9479 H       1  LIG1        0.0624
     15 C           3.4354    1.0480   -0.1973 C.ar    1  LIG1        0.0716
     16 C           4.3624    0.0049   -0.2878 C.ar    1  LIG1        0.0930
     17 C           5.6564    0.5809   -0.3157 C.ar    1  LIG1        0.1666
     18 C           5.5121    1.9692   -0.2419 C.ar    1  LIG1        0.1282
     19 N           4.1517    2.2338   -0.2198 N.ar    1  LIG1       -0.3473
     20 H           3.7816    3.1232    0.0761 H       1  LIG1        0.1662
     21 N           4.1228   -1.3807   -0.3436 N.pl3   1  LIG1       -0.3535
     22 H           3.3617   -1.6206   -0.9707 H       1  LIG1        0.1425
     23 H           4.9656   -1.8686   -0.6296 H       1  LIG1        0.1425
     24 O           6.7800   -0.1647   -0.4342 O.3     1  LIG1       -0.5030
     25 H           7.5592    0.4492   -0.4548 H       1  LIG1        0.2923
     26 C           6.4875    3.0113   -0.1929 C.ar    1  LIG1        0.1759
     27 C           7.8679    3.0373   -0.2637 C.ar    1  LIG1        0.0732
     28 C           8.2555    4.4036   -0.1479 C.ar    1  LIG1        0.0058
     29 C           7.1049    5.1416   -0.0098 C.ar    1  LIG1        0.1427
     30 O           6.0252    4.2868   -0.0386 O.2     1  LIG1       -0.4512
     31 N           8.6846    1.8707   -0.4442 N.pl3   1  LIG1       -0.3550
     32 H           9.2109    1.9221   -1.3149 H       1  LIG1        0.1424
     33 H           9.3662    1.7811    0.3070 H       1  LIG1        0.1424
     34 H           9.2635    4.7925   -0.1897 H       1  LIG1        0.0674
     35 C           5.6765    7.2512   -0.1353 C.ar    1  LIG1        0.2254
     36 C           6.8878    6.5666    0.1789 C.ar    1  LIG1        0.0788
     37 C           7.9236    7.3691    0.6737 C.ar    1  LIG1       -0.0445
     38 C           7.7569    8.7455    0.8220 C.ar    1  LIG1       -0.0427
     39 C           6.5270    9.2929    0.4825 C.ar    1  LIG1        0.0314
     40 N           5.5067    8.5575    0.0150 N.ar    1  LIG1       -0.2207
     41 H           8.8610    6.9013    0.9583 H       1  LIG1        0.0627
     42 H           6.3378   10.3591    0.5867 H       1  LIG1        0.0831
     43 O           4.6510    6.5194   -0.6240 O.3     1  LIG1       -0.4792
     44 C           3.4558    7.2258   -0.9690 C.3     1  LIG1        0.0804
     45 H           2.7759    6.4649   -1.3547 H       1  LIG1        0.0660
     46 H           3.0213    7.7186   -0.0950 H       1  LIG1        0.0660
     47 H           3.6505    7.9839   -1.7325 H       1  LIG1        0.0660
     48 H           8.5570    9.3687    1.2060 H       1  LIG1        0.0633
@<TRIPOS>BOND
     1    47    44    1
     2    45    44    1
     3    32    31    1
     4    22    21    1
     5    44    43    1
     6    44    46    1
     7    14     7    1
     8     8     6    1
     9    23    21    1
    10    43    35    1
    11     7     6   ar
    12     7     4   ar
    13     6     3   ar
    14    25    24    1
    15    31    27    1
    16    31    33    1
    17    24    17    1
    18    21    16    1
    19    17    16   ar
    20    17    18   ar
    21    16    15   ar
    22    27    26   ar
    23    27    28   ar
    24    18    19   ar
    25    18    26    1
    26    19    15   ar
    27    19    20    1
    28    15     4    1
    29    26    30   ar
    30    34    28    1
    31    28    29   ar
    32     4     2   ar
    33    35    40   ar
    34    35    36   ar
    35    30    29   ar
    36    29    36    1
    37     3     9    1
    38     3     1   ar
    39    40    39   ar
    40    12    10    1
    41    36    37   ar
    42     2     1   ar
    43     2     5    1
    44     1    10    1
    45    39    42    1
    46    39    38   ar
    47    37    38   ar
    48    37    41    1
    49    38    48    1
    50    10    11    1
    51    10    13    1
