@<TRIPOS>MOLECULE
mol_data/opt/b3lyp/geoms/mol2/4ia13di-4ha13dl.out
 52 55 0 0 0
SMALL
GASTEIGER

@<TRIPOS>ATOM
      1 C          -0.1052    0.1073   -0.8477 C.ar    1  LIG1       -0.0498
      2 C           1.2426    0.0247   -0.4879 C.ar    1  LIG1       -0.0497
      3 C          -0.7260    1.3640   -0.8413 C.ar    1  LIG1       -0.0588
      4 C           1.9761    1.1647   -0.1169 C.ar    1  LIG1       -0.0002
      5 H           1.7326   -0.9431   -0.4999 H       1  LIG1        0.0627
      6 C          -0.0133    2.5059   -0.4774 C.ar    1  LIG1       -0.0609
      7 C           1.3265    2.4125   -0.1120 C.ar    1  LIG1       -0.0526
      8 H          -0.5092    3.4721   -0.4616 H       1  LIG1        0.0618
      9 H          -1.7744    1.4458   -1.1159 H       1  LIG1        0.0620
     10 C          -0.8640   -1.1298   -1.2668 C.3     1  LIG1       -0.0397
     11 H          -0.4487   -2.0287   -0.8035 H       1  LIG1        0.0278
     12 H          -0.8198   -1.2703   -2.3539 H       1  LIG1        0.0278
     13 H          -1.9205   -1.0611   -0.9911 H       1  LIG1        0.0278
     14 H           1.8551    3.3033    0.2156 H       1  LIG1        0.0624
     15 C           3.3891    1.0617    0.2517 C.ar    1  LIG1        0.0648
     16 C           4.1471    0.0156    0.7935 C.ar    1  LIG1        0.0804
     17 C           5.5015    0.4647    0.9602 C.ar    1  LIG1       -0.0072
     18 C           5.5420    1.7747    0.5052 C.ar    1  LIG1        0.0529
     19 N           4.2556    2.1111    0.1065 N.ar    1  LIG1       -0.3529
     20 H           4.0323    2.9615   -0.3877 H       1  LIG1        0.1659
     21 N           3.3129   -2.3213    1.5134 N.1     1  LIG1       -0.1908
     22 C           3.6704   -1.2609    1.1870 C.1     1  LIG1        0.1016
     23 C           6.6084   -0.3245    1.5936 C.3     1  LIG1       -0.0365
     24 H           7.4058    0.3316    1.9482 H       1  LIG1        0.0279
     25 H           7.0600   -1.0382    0.8946 H       1  LIG1        0.0279
     26 H           6.2302   -0.9022    2.4424 H       1  LIG1        0.0279
     27 C           7.8571    2.5023   -0.1959 C.ar    1  LIG1        0.0344
     28 C           8.8448    3.4989   -0.2287 C.ar    1  LIG1       -0.0313
     29 C           6.6210    2.7729    0.4496 C.ar    1  LIG1        0.0193
     30 C           8.6294    4.7672    0.3205 C.ar    1  LIG1        0.0014
     31 H           9.7935    3.2722   -0.7030 H       1  LIG1        0.0643
     32 C           6.4210    4.0512    0.9953 C.ar    1  LIG1       -0.0502
     33 C           7.3910    5.0423    0.9329 C.ar    1  LIG1       -0.0519
     34 H           5.4742    4.2615    1.4852 H       1  LIG1        0.0625
     35 N           8.1160    1.2627   -0.7607 N.pl3   1  LIG1       -0.3574
     36 H           7.3000    0.7130   -0.9937 H       1  LIG1        0.1423
     37 H           8.8269    1.2517   -1.4786 H       1  LIG1        0.1423
     38 H           7.1748    6.0307    1.3260 H       1  LIG1        0.0624
     39 C           9.6729    5.7918    0.2632 C.ar    1  LIG1        0.0678
     40 C          10.7040    6.0249   -0.6614 C.ar    1  LIG1        0.1185
     41 C          11.4210    7.1930   -0.2181 C.ar    1  LIG1        0.1552
     42 C          10.8222    7.6268    0.9417 C.ar    1  LIG1        0.0457
     43 N           9.7633    6.7828    1.2011 N.ar    1  LIG1       -0.3565
     44 H           9.2038    6.8049    2.0389 H       1  LIG1        0.1655
     45 H          11.0645    8.4634    1.5769 H       1  LIG1        0.0845
     46 N          11.1389    4.6983   -2.8332 N.1     1  LIG1       -0.1907
     47 C          10.9335    5.2981   -1.8545 C.1     1  LIG1        0.1050
     48 O          12.4440    7.8418   -0.8329 O.3     1  LIG1       -0.4923
     49 C          13.5947    7.0496   -1.1523 C.3     1  LIG1        0.0789
     50 H          14.3268    7.7414   -1.5716 H       1  LIG1        0.0660
     51 H          14.0077    6.5811   -0.2508 H       1  LIG1        0.0660
     52 H          13.3634    6.2773   -1.8917 H       1  LIG1        0.0660
@<TRIPOS>BOND
     1    46    47    3
     2    12    10    1
     3    52    49    1
     4    47    40    1
     5    50    49    1
     6    37    35    1
     7    10    13    1
     8    10     1    1
     9    10    11    1
    10    49    48    1
    11    49    51    1
    12     9     3    1
    13    36    35    1
    14     1     3   ar
    15     1     2   ar
    16     3     6   ar
    17    48    41    1
    18    35    27    1
    19    31    28    1
    20    40    41   ar
    21    40    39   ar
    22     5     2    1
    23     2     4   ar
    24     6     8    1
    25     6     7   ar
    26    20    19    1
    27    28    27   ar
    28    28    30   ar
    29    41    42   ar
    30    27    29   ar
    31     4     7   ar
    32     4    15    1
    33     7    14    1
    34    19    15   ar
    35    19    18   ar
    36    15    16   ar
    37    39    30    1
    38    39    43   ar
    39    30    33   ar
    40    29    18    1
    41    29    32   ar
    42    18    17   ar
    43    16    17   ar
    44    16    22    1
    45    25    23    1
    46    33    32   ar
    47    33    38    1
    48    42    43   ar
    49    42    45    1
    50    17    23    1
    51    32    34    1
    52    22    21    3
    53    43    44    1
    54    23    24    1
    55    23    26    1
