@<TRIPOS>MOLECULE
mol_data/opt/b3lyp/geoms/mol2/4ia13li-4di-12if-.out
 55 58 0 0 0
SMALL
GASTEIGER

@<TRIPOS>ATOM
      1 C          -0.2648    0.1664   -0.7497 C.ar    1  LIG1       -0.0498
      2 C           1.1232    0.1135   -0.6135 C.ar    1  LIG1       -0.0496
      3 C          -0.9229    1.3786   -0.4899 C.ar    1  LIG1       -0.0588
      4 C           1.8703    1.2404   -0.2164 C.ar    1  LIG1        0.0021
      5 H           1.6513   -0.8098   -0.8283 H       1  LIG1        0.0627
      6 C          -0.2005    2.5025   -0.0948 C.ar    1  LIG1       -0.0609
      7 C           1.1840    2.4386    0.0486 C.ar    1  LIG1       -0.0525
      8 H          -0.7196    3.4340    0.1133 H       1  LIG1        0.0618
      9 H          -2.0031    1.4384   -0.5960 H       1  LIG1        0.0620
     10 C          -1.0475   -1.0543   -1.1748 C.3     1  LIG1       -0.0397
     11 H          -0.3859   -1.8951   -1.3987 H       1  LIG1        0.0278
     12 H          -1.6477   -0.8517   -2.0689 H       1  LIG1        0.0278
     13 H          -1.7416   -1.3746   -0.3888 H       1  LIG1        0.0278
     14 H           1.7273    3.3138    0.3940 H       1  LIG1        0.0624
     15 C           3.3241    1.1602   -0.1025 C.ar    1  LIG1        0.0894
     16 C           4.1881    0.0801    0.0736 C.ar    1  LIG1        0.1487
     17 C           5.5340    0.5369    0.0647 C.ar    1  LIG1        0.0171
     18 C           5.4732    1.9176   -0.1287 C.ar    1  LIG1        0.0547
     19 N           4.1339    2.2748   -0.1758 N.ar    1  LIG1       -0.3510
     20 H           3.8203    3.1571   -0.5509 H       1  LIG1        0.1660
     21 O           3.8275   -1.2341    0.2503 O.3     1  LIG1       -0.4927
     22 C           3.3738   -1.5505    1.5697 C.3     1  LIG1        0.0789
     23 H           3.1818   -2.6257    1.5824 H       1  LIG1        0.0660
     24 H           4.1369   -1.3085    2.3195 H       1  LIG1        0.0660
     25 H           2.4496   -1.0136    1.8136 H       1  LIG1        0.0660
     26 C           6.7282   -0.3349    0.3090 C.3     1  LIG1       -0.0342
     27 H           7.5467    0.2230    0.7731 H       1  LIG1        0.0279
     28 H           7.1140   -0.7629   -0.6218 H       1  LIG1        0.0279
     29 H           6.4610   -1.1658    0.9679 H       1  LIG1        0.0279
     30 C           7.7019    2.8441   -0.9074 C.ar    1  LIG1        0.0615
     31 C           8.6395    3.8869   -0.8884 C.ar    1  LIG1       -0.0328
     32 C           6.4967    2.9591   -0.1727 C.ar    1  LIG1        0.0163
     33 C           8.4273    5.0674   -0.1680 C.ar    1  LIG1        0.0218
     34 H           9.5356    3.7843   -1.4892 H       1  LIG1        0.0638
     35 C           6.2930    4.1635    0.5269 C.ar    1  LIG1       -0.0478
     36 C           7.2111    5.2118    0.5528 C.ar    1  LIG1       -0.0391
     37 H           5.3868    4.2581    1.1184 H       1  LIG1        0.0627
     38 N           8.2206    0.8513   -2.4877 N.1     1  LIG1       -0.1908
     39 C           7.9683    1.7275   -1.7640 C.1     1  LIG1        0.0998
     40 C           6.9030    6.4379    1.3777 C.3     1  LIG1       -0.0390
     41 H           6.0298    6.2648    2.0117 H       1  LIG1        0.0278
     42 H           6.7026    7.3066    0.7440 H       1  LIG1        0.0278
     43 H           7.7475    6.7083    2.0189 H       1  LIG1        0.0278
     44 C           9.4717    6.0941   -0.1882 C.ar    1  LIG1        0.1416
     45 C          10.8456    6.0180   -0.1664 C.ar    1  LIG1        0.0367
     46 C          11.3011    7.3758   -0.2423 C.ar    1  LIG1        0.1580
     47 C          10.2003    8.1792   -0.3008 C.ar    1  LIG1        0.1341
     48 O           9.0721    7.4047   -0.2655 O.2     1  LIG1       -0.4589
     49 H          10.0533    9.2455   -0.3672 H       1  LIG1        0.1068
     50 C          11.7392    4.8222   -0.0413 C.3     1  LIG1       -0.0326
     51 H          12.5832    5.0476    0.6177 H       1  LIG1        0.0280
     52 H          12.1619    4.5253   -1.0087 H       1  LIG1        0.0280
     53 H          11.2022    3.9627    0.3671 H       1  LIG1        0.0280
     54 O          12.6268    7.6920   -0.2361 O.3     1  LIG1       -0.5034
     55 H          12.7273    8.6524   -0.2470 H       1  LIG1        0.2923
@<TRIPOS>BOND
     1    38    39    3
     2    12    10    1
     3    39    30    1
     4    34    31    1
     5    11    10    1
     6    10     1    1
     7    10    13    1
     8    52    50    1
     9    30    31   ar
    10    30    32   ar
    11    31    33   ar
    12     5     2    1
    13     1     2   ar
    14     1     3   ar
    15    28    26    1
    16     2     4   ar
    17     9     3    1
    18    20    19    1
    19     3     6   ar
    20    49    47    1
    21    47    48   ar
    22    47    46   ar
    23    48    44   ar
    24    55    54    1
    25    46    54    1
    26    46    45   ar
    27     4    15    1
    28     4     7   ar
    29    44    33    1
    30    44    45   ar
    31    19    18   ar
    32    19    15   ar
    33    32    18    1
    34    32    35   ar
    35    33    36   ar
    36    45    50    1
    37    18    17   ar
    38    15    16   ar
    39     6     7   ar
    40     6     8    1
    41    50    53    1
    42    50    51    1
    43     7    14    1
    44    17    16   ar
    45    17    26    1
    46    16    21    1
    47    21    22    1
    48    26    27    1
    49    26    29    1
    50    35    36   ar
    51    35    37    1
    52    36    40    1
    53    42    40    1
    54    40    41    1
    55    40    43    1
    56    22    23    1
    57    22    25    1
    58    22    24    1
