@<TRIPOS>MOLECULE
mol_data/opt/b3lyp/geoms/mol2/4ia4ia.out
 28 29 0 0 0
SMALL
GASTEIGER

@<TRIPOS>ATOM
      1 C          -0.0764    0.1724   -0.3250 C.ar    1  LIG1       -0.0499
      2 C           1.3176    0.1418   -0.4419 C.ar    1  LIG1       -0.0511
      3 C          -0.6654    1.2478    0.3525 C.ar    1  LIG1       -0.0588
      4 C           2.1297    1.1545    0.0909 C.ar    1  LIG1       -0.0174
      5 H           1.7830   -0.6804   -0.9789 H       1  LIG1        0.0626
      6 C           0.1231    2.2664    0.8859 C.ar    1  LIG1       -0.0609
      7 C           1.5104    2.2248    0.7548 C.ar    1  LIG1       -0.0540
      8 H          -0.3448    3.0934    1.4127 H       1  LIG1        0.0618
      9 H          -1.7464    1.2858    0.4618 H       1  LIG1        0.0620
     10 C          -0.9269   -0.9121   -0.9449 C.3     1  LIG1       -0.0397
     11 H          -0.3853   -1.8605   -1.0071 H       1  LIG1        0.0278
     12 H          -1.2314   -0.6436   -1.9642 H       1  LIG1        0.0278
     13 H          -1.8415   -1.0814   -0.3683 H       1  LIG1        0.0278
     14 H           2.1234    3.0125    1.1828 H       1  LIG1        0.0624
     15 C           4.4127    0.0489    0.3632 C.ar    1  LIG1       -0.0427
     16 C           5.7989    0.1221    0.1707 C.ar    1  LIG1       -0.0583
     17 C           3.6133    1.1314   -0.0716 C.ar    1  LIG1       -0.0150
     18 C           6.4018    1.2237   -0.4334 C.ar    1  LIG1       -0.0615
     19 H           6.4174   -0.7031    0.5153 H       1  LIG1        0.0620
     20 C           4.2344    2.2425   -0.6657 C.ar    1  LIG1       -0.0538
     21 C           5.6137    2.2946   -0.8519 C.ar    1  LIG1       -0.0612
     22 H           3.6129    3.0684   -0.9998 H       1  LIG1        0.0624
     23 H           7.4795    1.2473   -0.5677 H       1  LIG1        0.0618
     24 C           3.8325   -1.1655    1.0549 C.3     1  LIG1       -0.0391
     25 H           4.5937   -1.6554    1.6689 H       1  LIG1        0.0278
     26 H           3.4675   -1.9111    0.3385 H       1  LIG1        0.0278
     27 H           2.9890   -0.9029    1.6983 H       1  LIG1        0.0278
     28 H           6.0665    3.1630   -1.3213 H       1  LIG1        0.0618
@<TRIPOS>BOND
     1    12    10    1
     2    28    21    1
     3    11    10    1
     4    22    20    1
     5     5     2    1
     6    10    13    1
     7    10     1    1
     8    21    20   ar
     9    21    18   ar
    10    20    17   ar
    11    23    18    1
    12     2     1   ar
    13     2     4   ar
    14    18    16   ar
    15     1     3   ar
    16    17     4    1
    17    17    15   ar
    18     4     7   ar
    19    16    15   ar
    20    16    19    1
    21    26    24    1
    22     3     9    1
    23     3     6   ar
    24    15    24    1
    25     7     6   ar
    26     7    14    1
    27     6     8    1
    28    24    25    1
    29    24    27    1
