@<TRIPOS>MOLECULE
mol_data/opt/b3lyp/geoms/mol2/4ia4ia4ia4ia.out
 54 57 0 0 0
SMALL
GASTEIGER

@<TRIPOS>ATOM
      1 C          -0.3473    0.9542   -0.5144 C.ar    1  LIG1       -0.0499
      2 C           1.0400    0.8292   -0.6407 C.ar    1  LIG1       -0.0511
      3 C          -0.8881    1.1241    0.7673 C.ar    1  LIG1       -0.0588
      4 C           1.8948    0.8762    0.4721 C.ar    1  LIG1       -0.0174
      5 H           1.4698    0.7145   -1.6319 H       1  LIG1        0.0626
      6 C          -0.0570    1.1776    1.8849 C.ar    1  LIG1       -0.0609
      7 C           1.3248    1.0581    1.7416 C.ar    1  LIG1       -0.0540
      8 H          -0.4878    1.3057    2.8740 H       1  LIG1        0.0618
      9 H          -1.9648    1.2151    0.8877 H       1  LIG1        0.0620
     10 C          -1.2399    0.9394   -1.7337 C.3     1  LIG1       -0.0397
     11 H          -0.7482    0.4603   -2.5850 H       1  LIG1        0.0278
     12 H          -1.5083    1.9577   -2.0414 H       1  LIG1        0.0278
     13 H          -2.1751    0.4052   -1.5381 H       1  LIG1        0.0278
     14 H           1.9685    1.0861    2.6157 H       1  LIG1        0.0624
     15 C           4.0175   -0.2937   -0.3335 C.ar    1  LIG1       -0.0422
     16 C           5.4150   -0.2966   -0.4117 C.ar    1  LIG1       -0.0505
     17 C           3.3758    0.7813    0.3236 C.ar    1  LIG1       -0.0149
     18 C           6.2094    0.7229    0.1306 C.ar    1  LIG1       -0.0173
     19 H           5.8999   -1.1210   -0.9271 H       1  LIG1        0.0626
     20 C           4.1696    1.7984    0.8776 C.ar    1  LIG1       -0.0532
     21 C           5.5568    1.7800    0.7812 C.ar    1  LIG1       -0.0534
     22 H           3.6793    2.6262    1.3818 H       1  LIG1        0.0624
     23 C           3.2536   -1.4542   -0.9341 C.3     1  LIG1       -0.0391
     24 H           3.8942   -2.3378   -1.0054 H       1  LIG1        0.0278
     25 H           2.8977   -1.2316   -1.9471 H       1  LIG1        0.0278
     26 H           2.3753   -1.7135   -0.3377 H       1  LIG1        0.0278
     27 H           6.1416    2.5814    1.2231 H       1  LIG1        0.0624
     28 C           8.5077   -0.3574    0.4080 C.ar    1  LIG1       -0.0422
     29 C           9.8945   -0.2539    0.2482 C.ar    1  LIG1       -0.0505
     30 C           7.6940    0.7231   -0.0040 C.ar    1  LIG1       -0.0149
     31 C          10.5145    0.8740   -0.3060 C.ar    1  LIG1       -0.0173
     32 H          10.5125   -1.0921    0.5580 H       1  LIG1        0.0626
     33 C           8.3137    1.8593   -0.5494 C.ar    1  LIG1       -0.0532
     34 C           9.6931    1.9376   -0.7066 C.ar    1  LIG1       -0.0534
     35 H           7.6908    2.6901   -0.8683 H       1  LIG1        0.0624
     36 C           7.9411   -1.6114    1.0383 C.3     1  LIG1       -0.0391
     37 H           8.6945   -2.0998    1.6629 H       1  LIG1        0.0278
     38 H           7.6252   -2.3425    0.2845 H       1  LIG1        0.0278
     39 H           7.0678   -1.3948    1.6587 H       1  LIG1        0.0278
     40 H          10.1411    2.8315   -1.1302 H       1  LIG1        0.0624
     41 C          12.9174    0.7497    0.5442 C.ar    1  LIG1       -0.0427
     42 C          14.2854    0.8410    0.2543 C.ar    1  LIG1       -0.0583
     43 C          11.9909    0.9429   -0.5070 C.ar    1  LIG1       -0.0150
     44 C          14.7504    1.1135   -1.0309 C.ar    1  LIG1       -0.0615
     45 H          14.9996    0.7054    1.0629 H       1  LIG1        0.0620
     46 C          12.4721    1.2313   -1.7951 C.ar    1  LIG1       -0.0538
     47 C          13.8361    1.3140   -2.0638 C.ar    1  LIG1       -0.0612
     48 H          11.7545    1.3744   -2.5978 H       1  LIG1        0.0624
     49 H          15.8181    1.1764   -1.2201 H       1  LIG1        0.0618
     50 C          12.4881    0.4827    1.9706 C.3     1  LIG1       -0.0391
     51 H          13.2752    0.7821    2.6686 H       1  LIG1        0.0278
     52 H          12.2884   -0.5809    2.1474 H       1  LIG1        0.0278
     53 H          11.5753    1.0253    2.2291 H       1  LIG1        0.0278
     54 H          14.1796    1.5309   -3.0710 H       1  LIG1        0.0618
@<TRIPOS>BOND
     1    54    47    1
     2    48    46    1
     3    11    10    1
     4    47    46   ar
     5    47    44   ar
     6    12    10    1
     7    25    23    1
     8    46    43   ar
     9    10    13    1
    10    10     1    1
    11     5     2    1
    12    49    44    1
    13    40    34    1
    14    44    42   ar
    15    24    23    1
    16    23    26    1
    17    23    15    1
    18    19    16    1
    19    35    33    1
    20    34    33   ar
    21    34    31   ar
    22     2     1   ar
    23     2     4   ar
    24    33    30   ar
    25     1     3   ar
    26    43    31    1
    27    43    41   ar
    28    16    15   ar
    29    16    18   ar
    30    15    17   ar
    31    31    29   ar
    32    30    18    1
    33    30    28   ar
    34    18    21   ar
    35    29    28   ar
    36    29    32    1
    37    42    41   ar
    38    42    45    1
    39    38    36    1
    40    17     4    1
    41    17    20   ar
    42    28    36    1
    43     4     7   ar
    44    41    50    1
    45     3     9    1
    46     3     6   ar
    47    21    20   ar
    48    21    27    1
    49    20    22    1
    50    36    39    1
    51    36    37    1
    52     7     6   ar
    53     7    14    1
    54     6     8    1
    55    50    52    1
    56    50    53    1
    57    50    51    1
