@<TRIPOS>MOLECULE
mol_data/opt/b3lyp/geoms/mol2/4ia4ia-4ia4ia.out
 54 57 0 0 0
SMALL
GASTEIGER

@<TRIPOS>ATOM
      1 C          -0.2986    0.3001   -0.1968 C.ar    1  LIG1       -0.0499
      2 C           1.0981    0.2474   -0.1434 C.ar    1  LIG1       -0.0511
      3 C          -0.9153    1.5565   -0.2605 C.ar    1  LIG1       -0.0588
      4 C           1.8887    1.4084   -0.1532 C.ar    1  LIG1       -0.0174
      5 H           1.5902   -0.7196   -0.0755 H       1  LIG1        0.0626
      6 C          -0.1492    2.7210   -0.2771 C.ar    1  LIG1       -0.0609
      7 C           1.2422    2.6516   -0.2239 C.ar    1  LIG1       -0.0540
      8 H          -0.6384    3.6893   -0.3352 H       1  LIG1        0.0618
      9 H          -1.9999    1.6212   -0.2967 H       1  LIG1        0.0620
     10 C          -1.1221   -0.9669   -0.2045 C.3     1  LIG1       -0.0397
     11 H          -0.5613   -1.8118    0.2052 H       1  LIG1        0.0278
     12 H          -1.4236   -1.2374   -1.2242 H       1  LIG1        0.0278
     13 H          -2.0387   -0.8523    0.3826 H       1  LIG1        0.0278
     14 H           1.8306    3.5627   -0.2589 H       1  LIG1        0.0624
     15 C           4.1867    1.9798    0.8037 C.ar    1  LIG1       -0.0422
     16 C           5.5738    1.8039    0.7436 C.ar    1  LIG1       -0.0505
     17 C           3.3754    1.2960   -0.1311 C.ar    1  LIG1       -0.0149
     18 C           6.1984    0.9765   -0.2009 C.ar    1  LIG1       -0.0173
     19 H           6.1938    2.3117    1.4783 H       1  LIG1        0.0626
     20 C           3.9978    0.4599   -1.0725 C.ar    1  LIG1       -0.0532
     21 C           5.3783    0.2999   -1.1150 C.ar    1  LIG1       -0.0534
     22 H           3.3784   -0.0536   -1.8022 H       1  LIG1        0.0624
     23 C           3.6138    2.8646    1.8899 C.3     1  LIG1       -0.0391
     24 H           2.6633    2.4804    2.2688 H       1  LIG1        0.0278
     25 H           3.4263    3.8840    1.5323 H       1  LIG1        0.0278
     26 H           4.3126    2.9413    2.7277 H       1  LIG1        0.0278
     27 H           5.8223   -0.3301   -1.8790 H       1  LIG1        0.0624
     28 C           8.3686   -0.3691   -0.2101 C.ar    1  LIG1       -0.0422
     29 C           9.7680   -0.3647   -0.2382 C.ar    1  LIG1       -0.0505
     30 C           7.6843    0.8682   -0.2356 C.ar    1  LIG1       -0.0149
     31 C          10.5244    0.8137   -0.2943 C.ar    1  LIG1       -0.0173
     32 H          10.2860   -1.3198   -0.2272 H       1  LIG1        0.0626
     33 C           8.4404    2.0509   -0.2804 C.ar    1  LIG1       -0.0532
     34 C           9.8304    2.0320   -0.3160 C.ar    1  LIG1       -0.0534
     35 H           7.9179    3.0029   -0.3031 H       1  LIG1        0.0624
     36 C           7.6498   -1.6985   -0.1278 C.3     1  LIG1       -0.0391
     37 H           8.3034   -2.4599    0.3075 H       1  LIG1        0.0278
     38 H           7.3460   -2.0630   -1.1163 H       1  LIG1        0.0278
     39 H           6.7444   -1.6343    0.4808 H       1  LIG1        0.0278
     40 H          10.3851    2.9650   -0.3486 H       1  LIG1        0.0624
     41 C          12.8190    0.1242    0.5839 C.ar    1  LIG1       -0.0427
     42 C          14.2113    0.1669    0.4294 C.ar    1  LIG1       -0.0583
     43 C          12.0138    0.7913   -0.3686 C.ar    1  LIG1       -0.0150
     44 C          14.8154    0.8429   -0.6288 C.ar    1  LIG1       -0.0615
     45 H          14.8331   -0.3347    1.1670 H       1  LIG1        0.0620
     46 C          12.6358    1.4813   -1.4228 C.ar    1  LIG1       -0.0538
     47 C          14.0212    1.5090   -1.5608 C.ar    1  LIG1       -0.0612
     48 H          12.0109    1.9876   -2.1529 H       1  LIG1        0.0624
     49 H          15.8979    0.8551   -0.7184 H       1  LIG1        0.0618
     50 C          12.2382   -0.6026    1.7774 C.3     1  LIG1       -0.0391
     51 H          12.9717   -0.6541    2.5872 H       1  LIG1        0.0278
     52 H          11.9561   -1.6339    1.5331 H       1  LIG1        0.0278
     53 H          11.3407   -0.1084    2.1575 H       1  LIG1        0.0278
     54 H          14.4742    2.0441   -2.3904 H       1  LIG1        0.0618
@<TRIPOS>BOND
     1    54    47    1
     2    48    46    1
     3    27    21    1
     4    22    20    1
     5    47    46   ar
     6    47    44   ar
     7    46    43   ar
     8    12    10    1
     9    38    36    1
    10    21    20   ar
    11    21    18   ar
    12    20    17   ar
    13    49    44    1
    14    44    42   ar
    15    43    31    1
    16    43    41   ar
    17    40    34    1
    18     8     6    1
    19    34    31   ar
    20    34    33   ar
    21    35    33    1
    22     9     3    1
    23    31    29   ar
    24    33    30   ar
    25     6     3   ar
    26     6     7   ar
    27     3     1   ar
    28    14     7    1
    29    29    32    1
    30    29    28   ar
    31    30    28   ar
    32    30    18    1
    33     7     4   ar
    34    28    36    1
    35    10     1    1
    36    10    11    1
    37    10    13    1
    38    18    16   ar
    39     1     2   ar
    40     4     2   ar
    41     4    17    1
    42     2     5    1
    43    17    15   ar
    44    36    37    1
    45    36    39    1
    46    42    41   ar
    47    42    45    1
    48    41    50    1
    49    16    15   ar
    50    16    19    1
    51    15    23    1
    52    25    23    1
    53    52    50    1
    54    50    53    1
    55    50    51    1
    56    23    24    1
    57    23    26    1
