@<TRIPOS>MOLECULE
mol_data/opt/b3lyp/geoms/mol2/4ia4ia4ia-4ia-.out
 54 57 0 0 0
SMALL
GASTEIGER

@<TRIPOS>ATOM
      1 C          -0.2391   -0.1635   -0.2407 C.ar    1  LIG1       -0.0499
      2 C           1.1578   -0.1255   -0.1813 C.ar    1  LIG1       -0.0511
      3 C          -0.9401    1.0499   -0.2357 C.ar    1  LIG1       -0.0588
      4 C           1.8669    1.0848   -0.1252 C.ar    1  LIG1       -0.0174
      5 H           1.7112   -1.0603   -0.2013 H       1  LIG1        0.0626
      6 C          -0.2555    2.2629   -0.1841 C.ar    1  LIG1       -0.0609
      7 C           1.1376    2.2839   -0.1323 C.ar    1  LIG1       -0.0540
      8 H          -0.8100    3.1972   -0.1765 H       1  LIG1        0.0618
      9 H          -2.0267    1.0421   -0.2726 H       1  LIG1        0.0620
     10 C          -0.9741   -1.4801   -0.3407 C.3     1  LIG1       -0.0397
     11 H          -0.3651   -2.3089    0.0314 H       1  LIG1        0.0278
     12 H          -1.2379   -1.7093   -1.3807 H       1  LIG1        0.0278
     13 H          -1.9069   -1.4617    0.2317 H       1  LIG1        0.0278
     14 H           1.6672    3.2304   -0.0775 H       1  LIG1        0.0624
     15 C           4.1285    0.4150    0.8537 C.ar    1  LIG1       -0.0422
     16 C           5.5236    0.5078    0.7893 C.ar    1  LIG1       -0.0505
     17 C           3.3576    1.1145   -0.1030 C.ar    1  LIG1       -0.0149
     18 C           6.1937    1.2669   -0.1811 C.ar    1  LIG1       -0.0173
     19 H           6.1139   -0.0111    1.5403 H       1  LIG1        0.0626
     20 C           4.0258    1.8843   -1.0692 C.ar    1  LIG1       -0.0532
     21 C           5.4134    1.9621   -1.1157 C.ar    1  LIG1       -0.0534
     22 H           3.4363    2.4101   -1.8147 H       1  LIG1        0.0624
     23 C           3.5048   -0.3998    1.9664 C.3     1  LIG1       -0.0391
     24 H           4.1957   -0.4865    2.8097 H       1  LIG1        0.0278
     25 H           3.2626   -1.4188    1.6421 H       1  LIG1        0.0278
     26 H           2.5760    0.0491    2.3275 H       1  LIG1        0.0278
     27 H           5.8926    2.5414   -1.8984 H       1  LIG1        0.0624
     28 C           8.4406    2.4798   -0.2279 C.ar    1  LIG1       -0.0422
     29 C           9.8371    2.3909   -0.2590 C.ar    1  LIG1       -0.0505
     30 C           7.6834    1.2854   -0.2205 C.ar    1  LIG1       -0.0149
     31 C          10.5213    1.1683   -0.2870 C.ar    1  LIG1       -0.0173
     32 H          10.4115    3.3131   -0.2745 H       1  LIG1        0.0626
     33 C           8.3673    0.0588   -0.2367 C.ar    1  LIG1       -0.0532
     34 C           9.7557   -0.0064   -0.2760 C.ar    1  LIG1       -0.0534
     35 H           7.7886   -0.8604   -0.2341 H       1  LIG1        0.0624
     36 C           7.8023    3.8514   -0.1799 C.3     1  LIG1       -0.0391
     37 H           6.8916    3.8552    0.4240 H       1  LIG1        0.0278
     38 H           7.5260    4.2104   -1.1785 H       1  LIG1        0.0278
     39 H           8.4980    4.5823    0.2423 H       1  LIG1        0.0278
     40 H          10.2534   -0.9716   -0.2861 H       1  LIG1        0.0624
     41 C          12.8585    1.7414    0.5633 C.ar    1  LIG1       -0.0427
     42 C          14.2448    1.6111    0.4037 C.ar    1  LIG1       -0.0583
     43 C          12.0091    1.0992   -0.3676 C.ar    1  LIG1       -0.0150
     44 C          14.8009    0.8732   -0.6393 C.ar    1  LIG1       -0.0615
     45 H          14.9000    2.0935    1.1250 H       1  LIG1        0.0620
     46 C          12.5822    0.3457   -1.4060 C.ar    1  LIG1       -0.0538
     47 C          13.9626    0.2318   -1.5499 C.ar    1  LIG1       -0.0612
     48 H          11.9234   -0.1418   -2.1190 H       1  LIG1        0.0624
     49 H          15.8801    0.7941   -0.7336 H       1  LIG1        0.0618
     50 C          12.3300    2.5339    1.7391 C.3     1  LIG1       -0.0391
     51 H          11.4057    2.1070    2.1361 H       1  LIG1        0.0278
     52 H          12.1116    3.5740    1.4682 H       1  LIG1        0.0278
     53 H          13.0697    2.5611    2.5445 H       1  LIG1        0.0278
     54 H          14.3777   -0.3507   -2.3671 H       1  LIG1        0.0618
@<TRIPOS>BOND
     1    54    47    1
     2    48    46    1
     3    27    21    1
     4    22    20    1
     5    47    46   ar
     6    47    44   ar
     7    46    43   ar
     8    12    10    1
     9    38    36    1
    10    21    20   ar
    11    21    18   ar
    12    20    17   ar
    13    49    44    1
    14    44    42   ar
    15    43    31    1
    16    43    41   ar
    17    10     1    1
    18    10    11    1
    19    10    13    1
    20    31    34   ar
    21    31    29   ar
    22    40    34    1
    23    34    33   ar
    24    32    29    1
    25     9     3    1
    26    29    28   ar
    27     1     3   ar
    28     1     2   ar
    29    33    35    1
    30    33    30   ar
    31     3     6   ar
    32    28    30   ar
    33    28    36    1
    34    30    18    1
    35     5     2    1
    36     6     8    1
    37     6     7   ar
    38     2     4   ar
    39    18    16   ar
    40    36    39    1
    41    36    37    1
    42     7     4   ar
    43     7    14    1
    44     4    17    1
    45    17    15   ar
    46    42    41   ar
    47    42    45    1
    48    41    50    1
    49    16    15   ar
    50    16    19    1
    51    15    23    1
    52    52    50    1
    53    25    23    1
    54    50    51    1
    55    50    53    1
    56    23    26    1
    57    23    24    1
