@<TRIPOS>MOLECULE
mol_data/opt/b3lyp/geoms/mol2/4ia4ia-4ia-4ia.out
 54 57 0 0 0
SMALL
GASTEIGER

@<TRIPOS>ATOM
      1 C          -0.2373    0.3603    0.5088 C.ar    1  LIG1       -0.0499
      2 C           1.1579    0.4538    0.5531 C.ar    1  LIG1       -0.0511
      3 C          -0.9147    1.0074   -0.5327 C.ar    1  LIG1       -0.0588
      4 C           1.8873    1.1705   -0.4095 C.ar    1  LIG1       -0.0174
      5 H           1.6966   -0.0280    1.3653 H       1  LIG1        0.0626
      6 C          -0.2092    1.7199   -1.5015 C.ar    1  LIG1       -0.0609
      7 C           1.1811    1.8032   -1.4439 C.ar    1  LIG1       -0.0540
      8 H          -0.7455    2.2109   -2.3088 H       1  LIG1        0.0618
      9 H          -1.9993    0.9529   -0.5832 H       1  LIG1        0.0620
     10 C          -0.9927   -0.4363    1.5472 C.3     1  LIG1       -0.0397
     11 H          -0.4235   -0.5240    2.4770 H       1  LIG1        0.0278
     12 H          -1.1989   -1.4542    1.1931 H       1  LIG1        0.0278
     13 H          -1.9569    0.0249    1.7823 H       1  LIG1        0.0278
     14 H           1.7231    2.3430   -2.2137 H       1  LIG1        0.0624
     15 C           4.1170    2.4134   -0.3326 C.ar    1  LIG1       -0.0422
     16 C           5.5125    2.3448   -0.2495 C.ar    1  LIG1       -0.0505
     17 C           3.3765    1.2089   -0.3366 C.ar    1  LIG1       -0.0149
     18 C           6.2119    1.1325   -0.1746 C.ar    1  LIG1       -0.0173
     19 H           6.0748    3.2743   -0.2565 H       1  LIG1        0.0626
     20 C           4.0739   -0.0069   -0.2516 C.ar    1  LIG1       -0.0532
     21 C           5.4618   -0.0525   -0.1787 C.ar    1  LIG1       -0.0534
     22 H           3.5077   -0.9338   -0.2572 H       1  LIG1        0.0624
     23 C           3.4594    3.7754   -0.3911 C.3     1  LIG1       -0.0391
     24 H           2.5094    3.7920    0.1488 H       1  LIG1        0.0278
     25 H           3.2469    4.0841   -1.4216 H       1  LIG1        0.0278
     26 H           4.1151    4.5356    0.0429 H       1  LIG1        0.0278
     27 H           5.9699   -1.0098   -0.1104 H       1  LIG1        0.0624
     28 C           8.4701    1.7868    0.8236 C.ar    1  LIG1       -0.0422
     29 C           9.8639    1.6649    0.7842 C.ar    1  LIG1       -0.0505
     30 C           7.7007    1.0820   -0.1305 C.ar    1  LIG1       -0.0149
     31 C          10.5342    0.8719   -0.1581 C.ar    1  LIG1       -0.0173
     32 H          10.4524    2.1875    1.5342 H       1  LIG1        0.0626
     33 C           8.3694    0.2800   -1.0702 C.ar    1  LIG1       -0.0532
     34 C           9.7556    0.1740   -1.0920 C.ar    1  LIG1       -0.0534
     35 H           7.7819   -0.2497   -1.8146 H       1  LIG1        0.0624
     36 C           7.8459    2.6368    1.9094 C.3     1  LIG1       -0.0391
     37 H           6.9007    2.2166    2.2619 H       1  LIG1        0.0278
     38 H           7.6337    3.6549    1.5616 H       1  LIG1        0.0278
     39 H           8.5238    2.7239    2.7632 H       1  LIG1        0.0278
     40 H          10.2362   -0.4315   -1.8538 H       1  LIG1        0.0624
     41 C          12.7462   -0.3981   -0.1246 C.ar    1  LIG1       -0.0427
     42 C          14.1465   -0.3451   -0.1350 C.ar    1  LIG1       -0.0583
     43 C          12.0243    0.8176   -0.1691 C.ar    1  LIG1       -0.0150
     44 C          14.8384    0.8633   -0.1890 C.ar    1  LIG1       -0.0615
     45 H          14.7037   -1.2777   -0.0883 H       1  LIG1        0.0620
     46 C          12.7342    2.0298   -0.2090 C.ar    1  LIG1       -0.0538
     47 C          14.1263    2.0611   -0.2227 C.ar    1  LIG1       -0.0612
     48 H          12.1734    2.9592   -0.2485 H       1  LIG1        0.0624
     49 H          15.9246    0.8675   -0.1968 H       1  LIG1        0.0618
     50 C          12.0678   -1.7478   -0.0339 C.3     1  LIG1       -0.0391
     51 H          12.7383   -2.4817    0.4226 H       1  LIG1        0.0278
     52 H          11.7917   -2.1358   -1.0217 H       1  LIG1        0.0278
     53 H          11.1511   -1.7046    0.5592 H       1  LIG1        0.0278
     54 H          14.6483    3.0128   -0.2621 H       1  LIG1        0.0618
@<TRIPOS>BOND
     1     8     6    1
     2    14     7    1
     3    40    34    1
     4    35    33    1
     5     6     7   ar
     6     6     3   ar
     7     7     4   ar
     8    25    23    1
     9    34    33   ar
    10    34    31   ar
    11    33    30   ar
    12    52    50    1
    13     9     3    1
    14     3     1   ar
    15     4    17    1
    16     4     2   ar
    17    23    15    1
    18    23    26    1
    19    23    24    1
    20    17    15   ar
    21    17    20   ar
    22    15    16   ar
    23    54    47    1
    24    22    20    1
    25    19    16    1
    26    20    21   ar
    27    16    18   ar
    28    48    46    1
    29    47    46   ar
    30    47    44   ar
    31    46    43   ar
    32    49    44    1
    33    44    42   ar
    34    21    18   ar
    35    21    27    1
    36    18    30    1
    37    43    31    1
    38    43    41   ar
    39    31    29   ar
    40    42    41   ar
    41    42    45    1
    42    30    28   ar
    43    41    50    1
    44    50    51    1
    45    50    53    1
    46     1     2   ar
    47     1    10    1
    48     2     5    1
    49    29    28   ar
    50    29    32    1
    51    28    36    1
    52    12    10    1
    53    10    13    1
    54    10    11    1
    55    38    36    1
    56    36    37    1
    57    36    39    1
