@<TRIPOS>MOLECULE
mol_data/opt/b3lyp/geoms/mol2/4ia4ia-.out
 28 29 0 0 0
SMALL
GASTEIGER

@<TRIPOS>ATOM
      1 C          -0.0001    0.1459    0.2121 C.ar    1  LIG1       -0.0499
      2 C           1.3978    0.1888    0.2653 C.ar    1  LIG1       -0.0511
      3 C          -0.6743    1.1988   -0.4187 C.ar    1  LIG1       -0.0588
      4 C           2.1316    1.2472   -0.2929 C.ar    1  LIG1       -0.0174
      5 H           1.9350   -0.6126    0.7667 H       1  LIG1        0.0626
      6 C           0.0362    2.2571   -0.9847 C.ar    1  LIG1       -0.0609
      7 C           1.4283    2.2845   -0.9243 C.ar    1  LIG1       -0.0540
      8 H          -0.4981    3.0642   -1.4781 H       1  LIG1        0.0618
      9 H          -1.7604    1.1891   -0.4659 H       1  LIG1        0.0620
     10 C          -0.7594   -1.0204    0.8008 C.3     1  LIG1       -0.0397
     11 H          -0.2189   -1.4681    1.6400 H       1  LIG1        0.0278
     12 H          -0.9131   -1.8101    0.0546 H       1  LIG1        0.0278
     13 H          -1.7478   -0.7158    1.1578 H       1  LIG1        0.0278
     14 H           1.9742    3.1021   -1.3843 H       1  LIG1        0.0624
     15 C           4.3812    2.2919    0.3029 C.ar    1  LIG1       -0.0427
     16 C           5.7781    2.1805    0.3110 C.ar    1  LIG1       -0.0583
     17 C           3.6230    1.2290   -0.2408 C.ar    1  LIG1       -0.0150
     18 C           6.4313    1.0603   -0.1995 C.ar    1  LIG1       -0.0615
     19 H           6.3634    2.9906    0.7395 H       1  LIG1        0.0620
     20 C           4.2928    0.0991   -0.7392 C.ar    1  LIG1       -0.0538
     21 C           5.6825    0.0090   -0.7259 C.ar    1  LIG1       -0.0612
     22 H           3.7034   -0.7109   -1.1592 H       1  LIG1        0.0624
     23 H           7.5161    1.0076   -0.1783 H       1  LIG1        0.0618
     24 C           3.7417    3.5258    0.9017 C.3     1  LIG1       -0.0391
     25 H           2.8034    3.2919    1.4108 H       1  LIG1        0.0278
     26 H           3.5123    4.2802    0.1398 H       1  LIG1        0.0278
     27 H           4.4171    3.9940    1.6237 H       1  LIG1        0.0278
     28 H           6.1740   -0.8731   -1.1255 H       1  LIG1        0.0618
@<TRIPOS>BOND
     1     8     6    1
     2    14     7    1
     3    22    20    1
     4    28    21    1
     5     6     7   ar
     6     6     3   ar
     7     7     4   ar
     8    20    21   ar
     9    20    17   ar
    10    21    18   ar
    11     9     3    1
    12     3     1   ar
    13     4    17    1
    14     4     2   ar
    15    17    15   ar
    16    18    23    1
    17    18    16   ar
    18    12    10    1
    19    26    24    1
    20     1     2   ar
    21     1    10    1
    22     2     5    1
    23    15    16   ar
    24    15    24    1
    25    16    19    1
    26    10    13    1
    27    10    11    1
    28    24    25    1
    29    24    27    1
