@<TRIPOS>MOLECULE
mol_data/opt/b3lyp/geoms/mol2/4ia4ia-4ia.out
 41 43 0 0 0
SMALL
GASTEIGER

@<TRIPOS>ATOM
      1 C          -0.1424    0.1622    0.0551 C.ar    1  LIG1       -0.0499
      2 C           1.2558    0.1776    0.1117 C.ar    1  LIG1       -0.0511
      3 C          -0.8027    1.3127   -0.3939 C.ar    1  LIG1       -0.0588
      4 C           2.0039    1.3035   -0.2672 C.ar    1  LIG1       -0.0174
      5 H           1.7822   -0.7017    0.4749 H       1  LIG1        0.0626
      6 C          -0.0783    2.4401   -0.7802 C.ar    1  LIG1       -0.0609
      7 C           1.3140    2.4394   -0.7186 C.ar    1  LIG1       -0.0540
      8 H          -0.6017    3.3239   -1.1341 H       1  LIG1        0.0618
      9 H          -1.8888    1.3249   -0.4400 H       1  LIG1        0.0620
     10 C          -0.9174   -1.0740    0.4485 C.3     1  LIG1       -0.0397
     11 H          -0.3835   -1.6583    1.2038 H       1  LIG1        0.0278
     12 H          -1.0808   -1.7308   -0.4152 H       1  LIG1        0.0278
     13 H          -1.9018   -0.8179    0.8514 H       1  LIG1        0.0278
     14 H           1.8703    3.3141   -1.0402 H       1  LIG1        0.0624
     15 C           4.2738    2.2137    0.4663 C.ar    1  LIG1       -0.0422
     16 C           5.6670    2.0802    0.4513 C.ar    1  LIG1       -0.0505
     17 C           3.4940    1.2568   -0.2226 C.ar    1  LIG1       -0.0149
     18 C           6.3263    1.0375   -0.2155 C.ar    1  LIG1       -0.0173
     19 H           6.2644    2.8030    1.0013 H       1  LIG1        0.0626
     20 C           4.1511    0.2058   -0.8830 C.ar    1  LIG1       -0.0532
     21 C           5.5371    0.0931   -0.8866 C.ar    1  LIG1       -0.0534
     22 H           3.5547   -0.5215   -1.4262 H       1  LIG1        0.0624
     23 C           3.6601    3.3554    1.2473 C.3     1  LIG1       -0.0391
     24 H           2.7175    3.0657    1.7183 H       1  LIG1        0.0278
     25 H           3.4455    4.2199    0.6079 H       1  LIG1        0.0278
     26 H           4.3451    3.6961    2.0289 H       1  LIG1        0.0278
     27 H           6.0085   -0.7154   -1.4362 H       1  LIG1        0.0624
     28 C           8.5429   -0.1663    0.1695 C.ar    1  LIG1       -0.0427
     29 C           9.9428   -0.1193    0.1255 C.ar    1  LIG1       -0.0583
     30 C           7.8164    0.9803   -0.2288 C.ar    1  LIG1       -0.0150
     31 C          10.6298    1.0166   -0.2982 C.ar    1  LIG1       -0.0615
     32 H          10.5038   -0.9949    0.4433 H       1  LIG1        0.0620
     33 C           8.5216    2.1238   -0.6409 C.ar    1  LIG1       -0.0538
     34 C           9.9132    2.1492   -0.6816 C.ar    1  LIG1       -0.0612
     35 H           7.9570    2.9985   -0.9507 H       1  LIG1        0.0624
     36 H          11.7158    1.0178   -0.3209 H       1  LIG1        0.0618
     37 C           7.8705   -1.4264    0.6696 C.3     1  LIG1       -0.0391
     38 H           8.5474   -1.9873    1.3205 H       1  LIG1        0.0278
     39 H           7.5883   -2.0948   -0.1527 H       1  LIG1        0.0278
     40 H           6.9583   -1.2073    1.2300 H       1  LIG1        0.0278
     41 H          10.4312    3.0447   -1.0122 H       1  LIG1        0.0618
@<TRIPOS>BOND
     1    27    21    1
     2    22    20    1
     3     8     6    1
     4    14     7    1
     5    41    34    1
     6    35    33    1
     7    21    20   ar
     8    21    18   ar
     9    20    17   ar
    10     6     7   ar
    11     6     3   ar
    12     7     4   ar
    13    34    33   ar
    14    34    31   ar
    15    33    30   ar
    16     9     3    1
    17    12    10    1
    18     3     1   ar
    19    36    31    1
    20    31    29   ar
    21     4    17    1
    22     4     2   ar
    23    30    18    1
    24    30    28   ar
    25    17    15   ar
    26    18    16   ar
    27    39    37    1
    28     1     2   ar
    29     1    10    1
    30     2     5    1
    31    29    28   ar
    32    29    32    1
    33    28    37    1
    34    10    13    1
    35    10    11    1
    36    16    15   ar
    37    16    19    1
    38    15    23    1
    39    25    23    1
    40    37    40    1
    41    37    38    1
    42    23    24    1
    43    23    26    1
