@<TRIPOS>MOLECULE
mol_data/opt/b3lyp/geoms/mol2/4ia4ia4ia-4ia.out
 54 57 0 0 0
SMALL
GASTEIGER

@<TRIPOS>ATOM
      1 C          -0.2864    0.1685   -0.5631 C.ar    1  LIG1       -0.0499
      2 C           1.1111    0.1236   -0.5246 C.ar    1  LIG1       -0.0511
      3 C          -0.9333    1.2845   -0.0157 C.ar    1  LIG1       -0.0588
      4 C           1.8729    1.1607    0.0363 C.ar    1  LIG1       -0.0174
      5 H           1.6224   -0.7296   -0.9617 H       1  LIG1        0.0626
      6 C          -0.1958    2.3271    0.5427 C.ar    1  LIG1       -0.0609
      7 C           1.1970    2.2703    0.5673 C.ar    1  LIG1       -0.0540
      8 H          -0.7085    3.1854    0.9680 H       1  LIG1        0.0618
      9 H          -2.0193    1.3348   -0.0283 H       1  LIG1        0.0620
     10 C          -1.0781   -0.9445   -1.2096 C.3     1  LIG1       -0.0397
     11 H          -0.5123   -1.8803   -1.2291 H       1  LIG1        0.0278
     12 H          -1.3362   -0.6973   -2.2470 H       1  LIG1        0.0278
     13 H          -2.0175   -1.1277   -0.6786 H       1  LIG1        0.0278
     14 H           1.7683    3.0775    1.0161 H       1  LIG1        0.0624
     15 C           4.1065    0.0457    0.5755 C.ar    1  LIG1       -0.0422
     16 C           5.5040    0.1056    0.5284 C.ar    1  LIG1       -0.0505
     17 C           3.3636    1.1211    0.0365 C.ar    1  LIG1       -0.0149
     18 C           6.2033    1.1873   -0.0265 C.ar    1  LIG1       -0.0173
     19 H           6.0740   -0.7109    0.9647 H       1  LIG1        0.0626
     20 C           4.0612    2.2103   -0.5107 C.ar    1  LIG1       -0.0532
     21 C           5.4507    2.2492   -0.5476 C.ar    1  LIG1       -0.0534
     22 H           3.4923    3.0308   -0.9384 H       1  LIG1        0.0624
     23 C           3.4514   -1.1485    1.2355 C.3     1  LIG1       -0.0391
     24 H           4.1421   -1.6236    1.9378 H       1  LIG1        0.0278
     25 H           3.1585   -1.9119    0.5049 H       1  LIG1        0.0278
     26 H           2.5472   -0.8657    1.7802 H       1  LIG1        0.0278
     27 H           5.9522    3.0941   -1.0083 H       1  LIG1        0.0624
     28 C           8.4970    2.2218    0.4067 C.ar    1  LIG1       -0.0422
     29 C           9.8884    2.1047    0.3107 C.ar    1  LIG1       -0.0505
     30 C           7.6922    1.1672   -0.0827 C.ar    1  LIG1       -0.0149
     31 C          10.5235    0.9860   -0.2475 C.ar    1  LIG1       -0.0173
     32 H          10.5056    2.9056    0.7101 H       1  LIG1        0.0626
     33 C           8.3263    0.0415   -0.6341 C.ar    1  LIG1       -0.0532
     34 C           9.7108   -0.0535   -0.7209 C.ar    1  LIG1       -0.0534
     35 H           7.7107   -0.7628   -1.0263 H       1  LIG1        0.0624
     36 C           7.9165    3.4554    1.0639 C.3     1  LIG1       -0.0391
     37 H           7.0189    3.2241    1.6428 H       1  LIG1        0.0278
     38 H           7.6346    4.2180    0.3280 H       1  LIG1        0.0278
     39 H           8.6501    3.9119    1.7344 H       1  LIG1        0.0278
     40 H          10.1613   -0.9260   -1.1830 H       1  LIG1        0.0624
     41 C          12.7845   -0.1305    0.1408 C.ar    1  LIG1       -0.0427
     42 C          14.1770   -0.0753   -0.0068 C.ar    1  LIG1       -0.0583
     43 C          12.0100    0.9438   -0.3569 C.ar    1  LIG1       -0.0150
     44 C          14.8110    0.9997   -0.6266 C.ar    1  LIG1       -0.0615
     45 H          14.7754   -0.8937    0.3863 H       1  LIG1        0.0620
     46 C          12.6629    2.0282   -0.9673 C.ar    1  LIG1       -0.0538
     47 C          14.0478    2.0622   -1.1080 C.ar    1  LIG1       -0.0612
     48 H          12.0615    2.8466   -1.3523 H       1  LIG1        0.0624
     49 H          15.8928    1.0092   -0.7249 H       1  LIG1        0.0618
     50 C          12.1726   -1.3179    0.8520 C.3     1  LIG1       -0.0391
     51 H          12.9061   -1.7845    1.5159 H       1  LIG1        0.0278
     52 H          11.8385   -2.0902    0.1488 H       1  LIG1        0.0278
     53 H          11.3026   -1.0321    1.4484 H       1  LIG1        0.0278
     54 H          14.5245    2.9099   -1.5916 H       1  LIG1        0.0618
@<TRIPOS>BOND
     1    12    10    1
     2    54    47    1
     3    48    46    1
     4    11    10    1
     5    10    13    1
     6    10     1    1
     7    40    34    1
     8    47    46   ar
     9    47    44   ar
    10    35    33    1
    11    27    21    1
    12    46    43   ar
    13     5     2    1
    14    22    20    1
    15    49    44    1
    16    34    33   ar
    17    34    31   ar
    18    33    30   ar
    19    44    42   ar
    20     1     2   ar
    21     1     3   ar
    22    21    20   ar
    23    21    18   ar
    24     2     4   ar
    25    20    17   ar
    26    43    31    1
    27    43    41   ar
    28    31    29   ar
    29    30    18    1
    30    30    28   ar
    31     9     3    1
    32    18    16   ar
    33     3     6   ar
    34    42    41   ar
    35    42    45    1
    36     4    17    1
    37     4     7   ar
    38    17    15   ar
    39    41    50    1
    40    52    50    1
    41    29    28   ar
    42    29    32    1
    43    38    36    1
    44    28    36    1
    45    25    23    1
    46    16    15   ar
    47    16    19    1
    48     6     7   ar
    49     6     8    1
    50     7    14    1
    51    15    23    1
    52    50    53    1
    53    50    51    1
    54    36    37    1
    55    36    39    1
    56    23    26    1
    57    23    24    1
