@<TRIPOS>MOLECULE
mol_data/opt/b3lyp/geoms/mol2/4ia4ia-4ia-4ia-.out
 54 57 0 0 0
SMALL
GASTEIGER

@<TRIPOS>ATOM
      1 C          -0.1753    0.4978    0.9231 C.ar    1  LIG1       -0.0499
      2 C           1.2132    0.6612    0.8774 C.ar    1  LIG1       -0.0511
      3 C          -0.9016    0.6378   -0.2667 C.ar    1  LIG1       -0.0588
      4 C           1.8896    0.9572   -0.3175 C.ar    1  LIG1       -0.0174
      5 H           1.7882    0.5727    1.7958 H       1  LIG1        0.0626
      6 C          -0.2492    0.9260   -1.4645 C.ar    1  LIG1       -0.0609
      7 C           1.1356    1.0854   -1.4936 C.ar    1  LIG1       -0.0540
      8 H          -0.8222    1.0240   -2.3824 H       1  LIG1        0.0618
      9 H          -1.9824    0.5206   -0.2532 H       1  LIG1        0.0620
     10 C          -0.8730    0.1591    2.2200 C.3     1  LIG1       -0.0397
     11 H          -0.2623    0.4294    3.0860 H       1  LIG1        0.0278
     12 H          -1.0816   -0.9158    2.2888 H       1  LIG1        0.0278
     13 H          -1.8323    0.6792    2.3065 H       1  LIG1        0.0278
     14 H           1.6367    1.2891   -2.4344 H       1  LIG1        0.0624
     15 C           4.0508    2.2145   -0.8380 C.ar    1  LIG1       -0.0422
     16 C           5.4492    2.2442   -0.7869 C.ar    1  LIG1       -0.0505
     17 C           3.3754    1.0856   -0.3191 C.ar    1  LIG1       -0.0149
     18 C           6.2133    1.2008   -0.2465 C.ar    1  LIG1       -0.0173
     19 H           5.9607    3.1104   -1.1975 H       1  LIG1        0.0626
     20 C           4.1380    0.0440    0.2334 C.ar    1  LIG1       -0.0532
     21 C           5.5274    0.0904    0.2668 C.ar    1  LIG1       -0.0534
     22 H           3.6226   -0.8259    0.6301 H       1  LIG1        0.0624
     23 C           3.3204    3.4030   -1.4254 C.3     1  LIG1       -0.0391
     24 H           2.3855    3.6066   -0.8972 H       1  LIG1        0.0278
     25 H           3.0639    3.2470   -2.4800 H       1  LIG1        0.0278
     26 H           3.9458    4.2988   -1.3759 H       1  LIG1        0.0278
     27 H           6.0871   -0.7314    0.7035 H       1  LIG1        0.0624
     28 C           8.4555    2.2912    0.3115 C.ar    1  LIG1       -0.0422
     29 C           9.8528    2.2180    0.2719 C.ar    1  LIG1       -0.0505
     30 C           7.7036    1.2316   -0.2463 C.ar    1  LIG1       -0.0149
     31 C          10.5425    1.1414   -0.3016 C.ar    1  LIG1       -0.0173
     32 H          10.4237    3.0399    0.6951 H       1  LIG1        0.0626
     33 C           8.3924    0.1460   -0.8114 C.ar    1  LIG1       -0.0532
     34 C           9.7816    0.0981   -0.8484 C.ar    1  LIG1       -0.0534
     35 H           7.8174   -0.6686   -1.2423 H       1  LIG1        0.0624
     36 C           7.8104    3.4904    0.9723 C.3     1  LIG1       -0.0391
     37 H           6.8873    3.2210    1.4914 H       1  LIG1        0.0278
     38 H           7.5535    4.2700    0.2452 H       1  LIG1        0.0278
     39 H           8.4939    3.9411    1.6974 H       1  LIG1        0.0278
     40 H          10.2832   -0.7574   -1.2912 H       1  LIG1        0.0624
     41 C          12.8573    1.2431    0.7684 C.ar    1  LIG1       -0.0427
     42 C          14.2472    1.1897    0.5977 C.ar    1  LIG1       -0.0583
     43 C          12.0319    1.1068   -0.3722 C.ar    1  LIG1       -0.0150
     44 C          14.8301    1.0091   -0.6551 C.ar    1  LIG1       -0.0615
     45 H          14.8839    1.2815    1.4744 H       1  LIG1        0.0620
     46 C          12.6317    0.9104   -1.6277 C.ar    1  LIG1       -0.0538
     47 C          14.0154    0.8646   -1.7770 C.ar    1  LIG1       -0.0612
     48 H          11.9913    0.8106   -2.4994 H       1  LIG1        0.0624
     49 H          15.9115    0.9735   -0.7510 H       1  LIG1        0.0618
     50 C          12.2991    1.4110    2.1649 C.3     1  LIG1       -0.0391
     51 H          11.3683    0.8549    2.3016 H       1  LIG1        0.0278
     52 H          12.0818    2.4605    2.3967 H       1  LIG1        0.0278
     53 H          13.0206    1.0612    2.9089 H       1  LIG1        0.0278
     54 H          14.4515    0.7194   -2.7611 H       1  LIG1        0.0618
@<TRIPOS>BOND
     1    54    47    1
     2    48    46    1
     3    25    23    1
     4    14     7    1
     5     8     6    1
     6    47    46   ar
     7    47    44   ar
     8    46    43   ar
     9     7     6   ar
    10     7     4   ar
    11     6     3   ar
    12    23    26    1
    13    23    24    1
    14    23    15    1
    15    40    34    1
    16    35    33    1
    17    19    16    1
    18    34    33   ar
    19    34    31   ar
    20    15    16   ar
    21    15    17   ar
    22    33    30   ar
    23    16    18   ar
    24    49    44    1
    25    44    42   ar
    26    43    31    1
    27    43    41   ar
    28    17     4    1
    29    17    20   ar
    30     4     2   ar
    31    31    29   ar
    32     3     9    1
    33     3     1   ar
    34    18    30    1
    35    18    21   ar
    36    30    28   ar
    37    20    21   ar
    38    20    22    1
    39    38    36    1
    40    21    27    1
    41    29    28   ar
    42    29    32    1
    43    28    36    1
    44    42    41   ar
    45    42    45    1
    46    41    50    1
    47     2     1   ar
    48     2     5    1
    49     1    10    1
    50    36    37    1
    51    36    39    1
    52    50    51    1
    53    50    52    1
    54    50    53    1
    55    10    12    1
    56    10    13    1
    57    10    11    1
