@<TRIPOS>MOLECULE
mol_data/opt/b3lyp/geoms/mol2/4ia4ia4ia.out
 41 43 0 0 0
SMALL
GASTEIGER

@<TRIPOS>ATOM
      1 C          -0.2397    0.4831   -0.4930 C.ar    1  LIG1       -0.0499
      2 C           1.1513    0.4010   -0.6110 C.ar    1  LIG1       -0.0511
      3 C          -0.7768    1.1861    0.5941 C.ar    1  LIG1       -0.0588
      4 C           2.0131    1.0043    0.3190 C.ar    1  LIG1       -0.0174
      5 H           1.5772   -0.1270   -1.4597 H       1  LIG1        0.0626
      6 C           0.0606    1.7955    1.5264 C.ar    1  LIG1       -0.0609
      7 C           1.4460    1.7098    1.3911 C.ar    1  LIG1       -0.0540
      8 H          -0.3670    2.3346    2.3672 H       1  LIG1        0.0618
      9 H          -1.8559    1.2553    0.7083 H       1  LIG1        0.0620
     10 C          -1.1442   -0.1455   -1.5276 C.3     1  LIG1       -0.0397
     11 H          -0.6112   -0.8879   -2.1282 H       1  LIG1        0.0278
     12 H          -1.5440    0.6086   -2.2167 H       1  LIG1        0.0278
     13 H          -2.0017   -0.6408   -1.0605 H       1  LIG1        0.0278
     14 H           2.0958    2.1744    2.1268 H       1  LIG1        0.0624
     15 C           4.2093   -0.2685    0.0348 C.ar    1  LIG1       -0.0422
     16 C           5.6017   -0.2186   -0.0987 C.ar    1  LIG1       -0.0505
     17 C           3.4951    0.9451    0.1624 C.ar    1  LIG1       -0.0149
     18 C           6.3219    0.9835   -0.1149 C.ar    1  LIG1       -0.0173
     19 H           6.1430   -1.1546   -0.2057 H       1  LIG1        0.0626
     20 C           4.2154    2.1505    0.1585 C.ar    1  LIG1       -0.0532
     21 C           5.5985    2.1776    0.0164 C.ar    1  LIG1       -0.0534
     22 H           3.6690    3.0844    0.2551 H       1  LIG1        0.0624
     23 C           3.5300   -1.6208    0.0613 C.3     1  LIG1       -0.0391
     24 H           4.2327   -2.3958    0.3804 H       1  LIG1        0.0278
     25 H           3.1568   -1.9123   -0.9278 H       1  LIG1        0.0278
     26 H           2.6743   -1.6318    0.7409 H       1  LIG1        0.0278
     27 H           6.1258    3.1270    0.0194 H       1  LIG1        0.0624
     28 C           8.6947    0.2922    0.5218 C.ar    1  LIG1       -0.0427
     29 C          10.0687    0.3888    0.2638 C.ar    1  LIG1       -0.0583
     30 C           7.8009    1.0128   -0.3046 C.ar    1  LIG1       -0.0150
     31 C          10.5709    1.1693   -0.7757 C.ar    1  LIG1       -0.0615
     32 H          10.7588   -0.1545    0.9049 H       1  LIG1        0.0620
     33 C           8.3209    1.8079   -1.3398 C.ar    1  LIG1       -0.0538
     34 C           9.6899    1.8883   -1.5819 C.ar    1  LIG1       -0.0612
     35 H           7.6282    2.3555   -1.9725 H       1  LIG1        0.0624
     36 H          11.6422    1.2210   -0.9476 H       1  LIG1        0.0618
     37 C           8.2280   -0.5481    1.6907 C.3     1  LIG1       -0.0391
     38 H           9.0286   -0.6536    2.4285 H       1  LIG1        0.0278
     39 H           7.9399   -1.5600    1.3811 H       1  LIG1        0.0278
     40 H           7.3595   -0.1077    2.1869 H       1  LIG1        0.0278
     41 H          10.0630    2.5050   -2.3944 H       1  LIG1        0.0618
@<TRIPOS>BOND
     1    41    34    1
     2    12    10    1
     3    11    10    1
     4    35    33    1
     5    34    33   ar
     6    34    31   ar
     7    10    13    1
     8    10     1    1
     9     5     2    1
    10    33    30   ar
    11    36    31    1
    12    25    23    1
    13    31    29   ar
    14     2     1   ar
    15     2     4   ar
    16     1     3   ar
    17    30    18    1
    18    30    28   ar
    19    19    16    1
    20    18    16   ar
    21    18    21   ar
    22    16    15   ar
    23    21    27    1
    24    21    20   ar
    25    15    23    1
    26    15    17   ar
    27    23    24    1
    28    23    26    1
    29    20    17   ar
    30    20    22    1
    31    17     4    1
    32    29    28   ar
    33    29    32    1
    34     4     7   ar
    35    28    37    1
    36     3     9    1
    37     3     6   ar
    38    39    37    1
    39     7     6   ar
    40     7    14    1
    41     6     8    1
    42    37    40    1
    43    37    38    1
