@<TRIPOS>MOLECULE
mol_data/opt/b3lyp/geoms/mol2/4ia4ia-4ia4ia-.out
 54 57 0 0 0
SMALL
GASTEIGER

@<TRIPOS>ATOM
      1 C          -0.2657    0.1484    0.1132 C.ar    1  LIG1       -0.0499
      2 C           1.1307    0.1779    0.1856 C.ar    1  LIG1       -0.0511
      3 C          -0.9228    1.2202   -0.5058 C.ar    1  LIG1       -0.0588
      4 C           1.8817    1.2423   -0.3401 C.ar    1  LIG1       -0.0174
      5 H           1.6540   -0.6383    0.6772 H       1  LIG1        0.0626
      6 C          -0.1963    2.2834   -1.0390 C.ar    1  LIG1       -0.0609
      7 C           1.1957    2.2981   -0.9585 C.ar    1  LIG1       -0.0540
      8 H          -0.7166    3.1047   -1.5238 H       1  LIG1        0.0618
      9 H          -2.0083    1.2205   -0.5690 H       1  LIG1        0.0620
     10 C          -1.0476   -1.0171    0.6732 C.3     1  LIG1       -0.0397
     11 H          -0.4439   -1.6078    1.3678 H       1  LIG1        0.0278
     12 H          -1.3830   -1.6903   -0.1254 H       1  LIG1        0.0278
     13 H          -1.9425   -0.6794    1.2059 H       1  LIG1        0.0278
     14 H           1.7540    3.1199   -1.3952 H       1  LIG1        0.0624
     15 C           4.1399    2.2628    0.2751 C.ar    1  LIG1       -0.0422
     16 C           5.5334    2.1347    0.2974 C.ar    1  LIG1       -0.0505
     17 C           3.3708    1.2089   -0.2694 C.ar    1  LIG1       -0.0149
     18 C           6.2043    1.0055   -0.1943 C.ar    1  LIG1       -0.0173
     19 H           6.1213    2.9357    0.7387 H       1  LIG1        0.0626
     20 C           4.0393    0.0723   -0.7532 C.ar    1  LIG1       -0.0532
     21 C           5.4254   -0.0338   -0.7226 C.ar    1  LIG1       -0.0534
     22 H           3.4520   -0.7321   -1.1865 H       1  LIG1        0.0624
     23 C           3.5154    3.5075    0.8680 C.3     1  LIG1       -0.0391
     24 H           2.5665    3.2897    1.3643 H       1  LIG1        0.0278
     25 H           3.3093    4.2666    0.1039 H       1  LIG1        0.0278
     26 H           4.1900    3.9622    1.5990 H       1  LIG1        0.0278
     27 H           5.9057   -0.9143   -1.1370 H       1  LIG1        0.0624
     28 C           8.4241   -0.1244    0.3688 C.ar    1  LIG1       -0.0422
     29 C           9.8224   -0.0750    0.3330 C.ar    1  LIG1       -0.0505
     30 C           7.6933    0.9540   -0.1815 C.ar    1  LIG1       -0.0149
     31 C          10.5343    0.9983   -0.2215 C.ar    1  LIG1       -0.0173
     32 H          10.3828   -0.8936    0.7778 H       1  LIG1        0.0626
     33 C           8.4044    2.0345   -0.7293 C.ar    1  LIG1       -0.0532
     34 C           9.7942    2.0627   -0.7550 C.ar    1  LIG1       -0.0534
     35 H           7.8456    2.8565   -1.1674 H       1  LIG1        0.0624
     36 C           7.7562   -1.3114    1.0289 C.3     1  LIG1       -0.0391
     37 H           8.4368   -1.7847    1.7423 H       1  LIG1        0.0278
     38 H           7.4693   -2.0787    0.2998 H       1  LIG1        0.0278
     39 H           6.8468   -1.0218    1.5613 H       1  LIG1        0.0278
     40 H          10.3062    2.9013   -1.2160 H       1  LIG1        0.0624
     41 C          12.8268    2.0158    0.2448 C.ar    1  LIG1       -0.0427
     42 C          14.2201    1.8928    0.1602 C.ar    1  LIG1       -0.0583
     43 C          12.0245    0.9680   -0.2650 C.ar    1  LIG1       -0.0150
     44 C          14.8289    0.7762   -0.4093 C.ar    1  LIG1       -0.0615
     45 H          14.8390    2.6912    0.5627 H       1  LIG1        0.0620
     46 C          12.6511   -0.1587   -0.8240 C.ar    1  LIG1       -0.0538
     47 C          14.0377   -0.2601   -0.9025 C.ar    1  LIG1       -0.0612
     48 H          12.0290   -0.9567   -1.2190 H       1  LIG1        0.0624
     49 H          15.9122    0.7144   -0.4595 H       1  LIG1        0.0618
     50 C          12.2416    3.2458    0.9042 C.3     1  LIG1       -0.0391
     51 H          11.3351    3.0138    1.4688 H       1  LIG1        0.0278
     52 H          11.9733    4.0163    0.1715 H       1  LIG1        0.0278
     53 H          12.9676    3.6935    1.5890 H       1  LIG1        0.0278
     54 H          14.4941   -1.1395   -1.3475 H       1  LIG1        0.0618
@<TRIPOS>BOND
     1     8     6    1
     2    14     7    1
     3    54    47    1
     4    48    46    1
     5    40    34    1
     6    22    20    1
     7    35    33    1
     8    27    21    1
     9     6     7   ar
    10     6     3   ar
    11     7     4   ar
    12    47    46   ar
    13    47    44   ar
    14    46    43   ar
    15    34    33   ar
    16    34    31   ar
    17    20    21   ar
    18    20    17   ar
    19    33    30   ar
    20    21    18   ar
    21     9     3    1
    22     3     1   ar
    23    49    44    1
    24    44    42   ar
    25     4    17    1
    26     4     2   ar
    27    17    15   ar
    28    43    31    1
    29    43    41   ar
    30    31    29   ar
    31    18    30    1
    32    18    16   ar
    33    30    28   ar
    34    12    10    1
    35    25    23    1
    36     1     2   ar
    37     1    10    1
    38    42    41   ar
    39    42    45    1
    40    52    50    1
    41     2     5    1
    42    41    50    1
    43    15    16   ar
    44    15    23    1
    45    16    19    1
    46    38    36    1
    47    29    28   ar
    48    29    32    1
    49    28    36    1
    50    10    13    1
    51    10    11    1
    52    23    24    1
    53    23    26    1
    54    50    51    1
    55    50    53    1
    56    36    39    1
    57    36    37    1
