@<TRIPOS>MOLECULE
mol_data/opt/b3lyp/geoms/mol2/4ia4ia4ia4ia-.out
 54 57 0 0 0
SMALL
GASTEIGER

@<TRIPOS>ATOM
      1 C          -0.3035    0.4835   -0.7236 C.ar    1  LIG1       -0.0499
      2 C           1.0922    0.3992   -0.7387 C.ar    1  LIG1       -0.0511
      3 C          -0.9192    1.1716    0.3310 C.ar    1  LIG1       -0.0588
      4 C           1.8833    0.9849    0.2629 C.ar    1  LIG1       -0.0174
      5 H           1.5791   -0.1164   -1.5618 H       1  LIG1        0.0626
      6 C          -0.1528    1.7638    1.3327 C.ar    1  LIG1       -0.0609
      7 C           1.2387    1.6754    1.3004 C.ar    1  LIG1       -0.0540
      8 H          -0.6410    2.2914    2.1473 H       1  LIG1        0.0618
      9 H          -2.0037    1.2426    0.3650 H       1  LIG1        0.0620
     10 C          -1.1298   -0.1288   -1.8309 C.3     1  LIG1       -0.0397
     11 H          -0.5426   -0.8330   -2.4268 H       1  LIG1        0.0278
     12 H          -1.5129    0.6400   -2.5130 H       1  LIG1        0.0278
     13 H          -1.9971   -0.6653   -1.4320 H       1  LIG1        0.0278
     14 H           1.8322    2.1259    2.0905 H       1  LIG1        0.0624
     15 C           4.0903   -0.2931    0.1298 C.ar    1  LIG1       -0.0422
     16 C           5.4888   -0.2478    0.1030 C.ar    1  LIG1       -0.0505
     17 C           3.3727    0.9220    0.2181 C.ar    1  LIG1       -0.0149
     18 C           6.2129    0.9512    0.1560 C.ar    1  LIG1       -0.0173
     19 H           6.0327   -1.1849    0.0243 H       1  LIG1        0.0626
     20 C           4.0954    2.1241    0.2833 C.ar    1  LIG1       -0.0532
     21 C           5.4853    2.1468    0.2469 C.ar    1  LIG1       -0.0534
     22 H           3.5463    3.0590    0.3503 H       1  LIG1        0.0624
     23 C           3.4067   -1.6428    0.0867 C.3     1  LIG1       -0.0391
     24 H           4.0815   -2.4250    0.4459 H       1  LIG1        0.0278
     25 H           3.1074   -1.9185   -0.9314 H       1  LIG1        0.0278
     26 H           2.5026   -1.6603    0.7004 H       1  LIG1        0.0278
     27 H           6.0136    3.0941    0.3029 H       1  LIG1        0.0624
     28 C           8.5329    0.2166    0.9331 C.ar    1  LIG1       -0.0422
     29 C           9.9206    0.3129    0.7782 C.ar    1  LIG1       -0.0505
     30 C           7.7009    0.9765    0.0787 C.ar    1  LIG1       -0.0149
     31 C          10.5263    1.1329   -0.1842 C.ar    1  LIG1       -0.0173
     32 H          10.5589   -0.2545    1.4511 H       1  LIG1        0.0626
     33 C           8.3057    1.8075   -0.8790 C.ar    1  LIG1       -0.0532
     34 C           9.6870    1.8877   -1.0157 C.ar    1  LIG1       -0.0534
     35 H           7.6691    2.3813   -1.5464 H       1  LIG1        0.0624
     36 C           7.9869   -0.6676    2.0336 C.3     1  LIG1       -0.0391
     37 H           8.7307   -0.7938    2.8255 H       1  LIG1        0.0278
     38 H           7.7341   -1.6700    1.6674 H       1  LIG1        0.0278
     39 H           7.0791   -0.2519    2.4777 H       1  LIG1        0.0278
     40 H          10.1143    2.5172   -1.7897 H       1  LIG1        0.0624
     41 C          12.7660    2.3501   -0.2953 C.ar    1  LIG1       -0.0427
     42 C          14.1581    2.2650   -0.4315 C.ar    1  LIG1       -0.0583
     43 C          12.0107    1.1543   -0.3243 C.ar    1  LIG1       -0.0150
     44 C          14.8099    1.0441   -0.5945 C.ar    1  LIG1       -0.0615
     45 H          14.7423    3.1815   -0.3970 H       1  LIG1        0.0620
     46 C          12.6815   -0.0712   -0.4752 C.ar    1  LIG1       -0.0538
     47 C          14.0658   -0.1344   -0.6131 C.ar    1  LIG1       -0.0612
     48 H          12.0946   -0.9848   -0.5024 H       1  LIG1        0.0624
     49 H          15.8908    1.0150   -0.6981 H       1  LIG1        0.0618
     50 C          12.1339    3.7100   -0.0917 C.3     1  LIG1       -0.0391
     51 H          11.2794    3.6646    0.5880 H       1  LIG1        0.0278
     52 H          11.7710    4.1391   -1.0333 H       1  LIG1        0.0278
     53 H          12.8640    4.4124    0.3206 H       1  LIG1        0.0278
     54 H          14.5566   -1.0954   -0.7365 H       1  LIG1        0.0618
@<TRIPOS>BOND
     1    12    10    1
     2    11    10    1
     3    10    13    1
     4    10     1    1
     5    40    34    1
     6     5     2    1
     7    35    33    1
     8    52    50    1
     9    34    33   ar
    10    34    31   ar
    11    25    23    1
    12    33    30   ar
    13     2     1   ar
    14     2     4   ar
    15    54    47    1
    16     1     3   ar
    17    49    44    1
    18    47    44   ar
    19    47    46   ar
    20    44    42   ar
    21    48    46    1
    22    46    43   ar
    23    42    45    1
    24    42    41   ar
    25    43    41   ar
    26    43    31    1
    27    41    50    1
    28    31    29   ar
    29    50    53    1
    30    50    51    1
    31    19    16    1
    32    30    18    1
    33    30    28   ar
    34    23    15    1
    35    23    24    1
    36    23    26    1
    37    16    15   ar
    38    16    18   ar
    39    15    17   ar
    40    18    21   ar
    41    17     4    1
    42    17    20   ar
    43    21    20   ar
    44    21    27    1
    45     4     7   ar
    46    20    22    1
    47     3     9    1
    48     3     6   ar
    49    29    28   ar
    50    29    32    1
    51    28    36    1
    52     7     6   ar
    53     7    14    1
    54     6     8    1
    55    38    36    1
    56    36    39    1
    57    36    37    1
