@<TRIPOS>MOLECULE
mol_data/opt/b3lyp/geoms/mol2/4ia6ad-13af-6ah-.out
 45 48 0 0 0
SMALL
GASTEIGER

@<TRIPOS>ATOM
      1 C          -0.1472    0.2260   -0.4949 C.ar    1  LIG1       -0.0499
      2 C           1.2466    0.1510   -0.4132 C.ar    1  LIG1       -0.0511
      3 C          -0.7835    1.3660    0.0141 C.ar    1  LIG1       -0.0588
      4 C           2.0121    1.1804    0.1585 C.ar    1  LIG1       -0.0162
      5 H           1.7514   -0.7183   -0.8271 H       1  LIG1        0.0626
      6 C          -0.0408    2.3992    0.5842 C.ar    1  LIG1       -0.0609
      7 C           1.3474    2.3116    0.6597 C.ar    1  LIG1       -0.0540
      8 H          -0.5476    3.2719    0.9855 H       1  LIG1        0.0618
      9 H          -1.8666    1.4420   -0.0351 H       1  LIG1        0.0620
     10 C          -0.9423   -0.8791   -1.1495 C.3     1  LIG1       -0.0397
     11 H          -0.4365   -1.8448   -1.0601 H       1  LIG1        0.0278
     12 H          -1.0844   -0.6833   -2.2195 H       1  LIG1        0.0278
     13 H          -1.9361   -0.9741   -0.7022 H       1  LIG1        0.0278
     14 H           1.9132    3.1053    1.1374 H       1  LIG1        0.0624
     15 C           4.3212    2.1933    0.0482 C.ar    1  LIG1        0.0361
     16 C           3.4868    1.0737    0.2315 C.ar    1  LIG1        0.0015
     17 C           4.1412   -0.1360    0.4744 C.ar    1  LIG1       -0.0330
     18 C           5.5393   -0.1958    0.5292 C.ar    1  LIG1        0.0797
     19 C           6.2886    0.9976    0.3398 C.ar    1  LIG1        0.1045
     20 N           5.6466    2.1647    0.1008 N.ar    1  LIG1       -0.2516
     21 H           3.5718   -1.0437    0.6443 H       1  LIG1        0.0638
     22 H           3.8782    3.1622   -0.1738 H       1  LIG1        0.0836
     23 N           6.6129   -2.5095    0.9984 N.1     1  LIG1       -0.1908
     24 C           6.1493   -1.4626    0.7877 C.1     1  LIG1        0.1014
     25 C           7.7350    1.0932    0.3751 C.ar    1  LIG1        0.0702
     26 C           8.7740    0.1768    0.5737 C.ar    1  LIG1        0.0073
     27 C           9.9756    0.8950    0.4565 C.ar    1  LIG1        0.1427
     28 C           9.6760    2.2395    0.1862 C.ar    1  LIG1        0.0905
     29 N           8.3061    2.3255    0.1665 N.ar    1  LIG1       -0.3500
     30 H           7.7437    3.1321   -0.0634 H       1  LIG1        0.1661
     31 H           8.6867   -0.8755    0.7891 H       1  LIG1        0.0676
     32 O          11.2145    0.3356    0.6028 O.3     1  LIG1       -0.5046
     33 H          11.8323    1.0239    0.8855 H       1  LIG1        0.2922
     34 C          10.1558    4.6875    0.3521 C.ar    1  LIG1        0.0369
     35 C          10.5571    3.3844   -0.0015 C.ar    1  LIG1        0.0217
     36 C          11.8440    3.2286   -0.5426 C.ar    1  LIG1       -0.0289
     37 C          12.6715    4.3464   -0.7035 C.ar    1  LIG1        0.0435
     38 C          12.1495    5.5976   -0.3198 C.ar    1  LIG1        0.0482
     39 N          10.9287    5.7621    0.1877 N.ar    1  LIG1       -0.2608
     40 H          12.1816    2.2515   -0.8780 H       1  LIG1        0.0643
     41 H          12.7572    6.4951   -0.4349 H       1  LIG1        0.0848
     42 H           9.1802    4.8594    0.8020 H       1  LIG1        0.0836
     43 N          13.9697    4.2315   -1.1850 N.pl3   1  LIG1       -0.3568
     44 H          14.1571    3.4213   -1.7592 H       1  LIG1        0.1424
     45 H          14.3672    5.0762   -1.5719 H       1  LIG1        0.1424
@<TRIPOS>BOND
     1    12    10    1
     2    44    43    1
     3    45    43    1
     4    43    37    1
     5    10    11    1
     6    10    13    1
     7    10     1    1
     8    40    36    1
     9     5     2    1
    10    37    36   ar
    11    37    38   ar
    12    36    35   ar
    13     1     2   ar
    14     1     3   ar
    15    41    38    1
    16     2     4   ar
    17    38    39   ar
    18    22    15    1
    19    30    29    1
    20     9     3    1
    21    35    28    1
    22    35    34   ar
    23     3     6   ar
    24    15    20   ar
    25    15    16   ar
    26    20    19   ar
    27     4    16    1
    28     4     7   ar
    29    29    28   ar
    30    29    25   ar
    31    28    27   ar
    32    39    34   ar
    33    16    17   ar
    34    19    25    1
    35    19    18   ar
    36    34    42    1
    37    25    26   ar
    38    27    26   ar
    39    27    32    1
    40    17    18   ar
    41    17    21    1
    42    18    24    1
    43    26    31    1
    44     6     7   ar
    45     6     8    1
    46    32    33    1
    47     7    14    1
    48    24    23    3
