@<TRIPOS>MOLECULE
mol_data/opt/b3lyp/geoms/mol2/4id13hf-6fl-4hh-4dh13fe-12dh-13la-.out
 101 108 0 0 0
SMALL
GASTEIGER

@<TRIPOS>ATOM
      1 C          -0.1328   -0.8842   -0.5850 C.ar    1  LIG1       -0.0498
      2 C           1.0870   -0.4765   -0.0487 C.ar    1  LIG1       -0.0484
      3 C          -0.4123   -0.5934   -1.9320 C.ar    1  LIG1       -0.0576
      4 C           2.0627    0.2114   -0.8031 C.ar    1  LIG1        0.0178
      5 H           1.2878   -0.6616    1.0017 H       1  LIG1        0.0627
      6 C           0.5155    0.0859   -2.7046 C.ar    1  LIG1       -0.0435
      7 C           1.7511    0.4868   -2.1642 C.ar    1  LIG1        0.0609
      8 H           0.3051    0.3097   -3.7453 H       1  LIG1        0.0631
      9 H          -1.3589   -0.8981   -2.3686 H       1  LIG1        0.0621
     10 C          -1.1487   -1.6079    0.2647 C.3     1  LIG1       -0.0397
     11 H          -0.7922   -1.7462    1.2882 H       1  LIG1        0.0278
     12 H          -1.3770   -2.5960   -0.1510 H       1  LIG1        0.0278
     13 H          -2.0927   -1.0532    0.3078 H       1  LIG1        0.0278
     14 N           3.4296    1.6721   -3.7499 N.1     1  LIG1       -0.1908
     15 C           2.6801    1.1388   -3.0347 C.1     1  LIG1        0.0998
     16 C           3.3086    0.5992   -0.1657 C.ar    1  LIG1        0.0728
     17 C           3.9827    0.0033    0.9039 C.ar    1  LIG1        0.0929
     18 C           5.1422    0.7803    1.1523 C.ar    1  LIG1        0.1636
     19 C           5.1835    1.8367    0.2549 C.ar    1  LIG1        0.0961
     20 N           4.0904    1.6796   -0.5887 N.ar    1  LIG1       -0.3496
     21 H           3.6818    2.4706   -1.0674 H       1  LIG1        0.1661
     22 N           3.6565   -1.1472    1.6261 N.pl3   1  LIG1       -0.3535
     23 H           3.2244   -1.8727    1.0660 H       1  LIG1        0.1425
     24 H           4.4613   -1.5101    2.1253 H       1  LIG1        0.1425
     25 O           6.0567    0.4181    2.1076 O.3     1  LIG1       -0.5031
     26 H           6.9088    0.8190    1.8853 H       1  LIG1        0.2923
     27 C           6.5555    3.4697   -1.1170 C.ar    1  LIG1        0.2225
     28 C           6.1685    2.9025    0.1243 C.ar    1  LIG1        0.0668
     29 C           6.8024    3.4169    1.2702 C.ar    1  LIG1       -0.0035
     30 C           7.7585    4.4253    1.1626 C.ar    1  LIG1        0.1469
     31 C           8.1005    4.8962   -0.1283 C.ar    1  LIG1        0.1181
     32 N           7.4739    4.4192   -1.2145 N.ar    1  LIG1       -0.2087
     33 H           6.4833    3.0621    2.2433 H       1  LIG1        0.0663
     34 O           6.0135    3.1024   -2.3058 O.3     1  LIG1       -0.4919
     35 H           5.4944    2.2871   -2.2264 H       1  LIG1        0.2937
     36 O           8.3560    5.0351    2.2247 O.3     1  LIG1       -0.4929
     37 C           8.0742    4.5578    3.5287 C.3     1  LIG1        0.0789
     38 H           8.6883    5.1539    4.2042 H       1  LIG1        0.0660
     39 H           7.0157    4.6888    3.7896 H       1  LIG1        0.0660
     40 H           8.3407    3.4981    3.6410 H       1  LIG1        0.0660
     41 C          10.4048    5.9827    0.1582 C.ar    1  LIG1        0.0346
     42 C          11.2347    7.0666   -0.1546 C.ar    1  LIG1       -0.0309
     43 C           9.0885    5.9850   -0.3589 C.ar    1  LIG1        0.0264
     44 C          10.8385    8.1224   -0.9809 C.ar    1  LIG1        0.0058
     45 H          12.2341    7.0816    0.2687 H       1  LIG1        0.0643
     46 C           8.7021    7.0282   -1.2111 C.ar    1  LIG1       -0.0294
     47 C           9.5368    8.0953   -1.5396 C.ar    1  LIG1        0.0331
     48 H           7.7078    6.9793   -1.6455 H       1  LIG1        0.0643
     49 N          10.9213    4.9580    0.9664 N.pl3   1  LIG1       -0.3574
     50 H          10.3955    4.0959    0.9192 H       1  LIG1        0.1423
     51 H          11.9027    4.7822    0.7878 H       1  LIG1        0.1423
     52 N           9.0593    9.1284   -2.3769 N.pl3   1  LIG1       -0.3575
     53 H           9.7799    9.5255   -2.9689 H       1  LIG1        0.1423
     54 H           8.2798    8.8223   -2.9476 H       1  LIG1        0.1423
     55 C          13.1276    9.0399   -1.6380 C.ar    1  LIG1        0.0603
     56 C          13.9905   10.1312   -1.8083 C.ar    1  LIG1       -0.0328
     57 C          11.7814    9.2425   -1.2398 C.ar    1  LIG1        0.0031
     58 C          13.5716   11.4531   -1.6096 C.ar    1  LIG1        0.0238
     59 H          15.0179    9.9456   -2.0962 H       1  LIG1        0.0638
     60 C          11.3606   10.5682   -1.0813 C.ar    1  LIG1       -0.0314
     61 C          12.2069   11.6633   -1.2722 C.ar    1  LIG1        0.0345
     62 H          10.3244   10.7501   -0.8126 H       1  LIG1        0.0643
     63 N          14.1355    6.6913   -2.1031 N.1     1  LIG1       -0.1908
     64 C          13.6593    7.7320   -1.8899 C.1     1  LIG1        0.0998
     65 N          11.7112   12.9715   -1.0807 N.pl3   1  LIG1       -0.3574
     66 H          11.9587   13.6010   -1.8388 H       1  LIG1        0.1423
     67 H          10.7066   12.9847   -0.9452 H       1  LIG1        0.1423
     68 C          14.5348   12.5435   -1.7244 C.ar    1  LIG1        0.0921
     69 C          15.7635   12.6115   -2.3788 C.ar    1  LIG1        0.1582
     70 C          16.3625   13.8767   -2.1213 C.ar    1  LIG1        0.0949
     71 C          15.4679   14.5825   -1.2914 C.ar    1  LIG1        0.1031
     72 N          14.3909   13.7631   -1.0783 N.ar    1  LIG1       -0.3478
     73 H          13.6058   13.9854   -0.4825 H       1  LIG1        0.1661
     74 O          16.3054   11.6231   -3.1326 O.3     1  LIG1       -0.5035
     75 H          17.1623   11.9408   -3.4597 H       1  LIG1        0.2923
     76 C          17.6392   14.2229   -2.6162 C.1     1  LIG1       -0.0637
     77 C          18.7434   14.4062   -3.0820 C.1     1  LIG1       -0.1137
     78 H          19.7042   14.6426   -3.4773 H       1  LIG1        0.1232
     79 C          15.5084   15.8752   -0.6778 C.ar    1  LIG1        0.1723
     80 C          16.2283   17.0495   -0.8554 C.ar    1  LIG1        0.1202
     81 C          15.7513   17.9981    0.1231 C.ar    1  LIG1        0.0909
     82 C          14.7449   17.3609    0.8165 C.ar    1  LIG1        0.1772
     83 O          14.6069   16.0667    0.3278 O.2     1  LIG1       -0.4485
     84 N          17.9839   17.7891   -2.5901 N.1     1  LIG1       -0.1907
     85 C          17.2008   17.3879   -1.8258 C.1     1  LIG1        0.1049
     86 N          16.2861   19.2521    0.3392 N.pl3   1  LIG1       -0.3540
     87 H          16.7739   19.6404   -0.4575 H       1  LIG1        0.1425
     88 H          15.6493   19.9024    0.7864 H       1  LIG1        0.1425
     89 C          13.8816   17.7300    1.9019 C.ar    1  LIG1        0.1261
     90 C          13.4867   18.9710    2.4019 C.ar    1  LIG1        0.1483
     91 C          12.6286   18.7583    3.5131 C.ar    1  LIG1       -0.0018
     92 C          12.5059   17.3895    3.6645 C.ar    1  LIG1        0.0058
     93 N          13.2567   16.7831    2.6968 N.ar    1  LIG1       -0.3553
     94 H          13.3855   15.7913    2.5813 H       1  LIG1        0.1655
     95 H          11.9413   16.8136    4.3814 H       1  LIG1        0.0808
     96 O          13.8846   20.1537    1.8328 O.3     1  LIG1       -0.4929
     97 C          13.4139   21.3371    2.4649 C.3     1  LIG1        0.0789
     98 H          13.8202   22.1740    1.8955 H       1  LIG1        0.0660
     99 H          12.3182   21.3847    2.4472 H       1  LIG1        0.0660
    100 H          13.7611   21.3998    3.5038 H       1  LIG1        0.0660
    101 H          12.1466   19.5069    4.1228 H       1  LIG1        0.0669
@<TRIPOS>BOND
     1    14    15    3
     2     8     6    1
     3    78    77    1
     4    75    74    1
     5    74    69    1
     6    77    76    3
     7    15     7    1
     8    53    52    1
     9    54    52    1
    10     6     7   ar
    11     6     3   ar
    12    76    70    1
    13    84    85    3
    14    69    70   ar
    15    69    68   ar
    16    52    47    1
    17     9     3    1
    18    34    35    1
    19    34    27    1
    20     7     4   ar
    21    70    71   ar
    22    63    64    3
    23    59    56    1
    24     3     1   ar
    25    64    55    1
    26    66    65    1
    27    85    80    1
    28    56    55   ar
    29    56    58   ar
    30    68    58    1
    31    68    72   ar
    32    48    46    1
    33    55    57   ar
    34    58    61   ar
    35    47    46   ar
    36    47    44   ar
    37    71    72   ar
    38    71    79    1
    39    61    60   ar
    40    61    65    1
    41    57    60   ar
    42    57    44    1
    43    32    27   ar
    44    32    31   ar
    45    46    43   ar
    46    27    28   ar
    47    60    62    1
    48    65    67    1
    49    72    73    1
    50    21    20    1
    51    44    42   ar
    52    80    79   ar
    53    80    81   ar
    54     4    16    1
    55     4     2   ar
    56    79    83   ar
    57    20    16   ar
    58    20    19   ar
    59     1     2   ar
    60     1    10    1
    61    87    86    1
    62    43    31    1
    63    43    41   ar
    64    16    17   ar
    65    42    41   ar
    66    42    45    1
    67    12    10    1
    68    31    30   ar
    69     2     5    1
    70    81    86    1
    71    81    82   ar
    72    28    19    1
    73    28    29   ar
    74    41    49    1
    75    19    18   ar
    76    10    13    1
    77    10    11    1
    78    83    82   ar
    79    86    88    1
    80    51    49    1
    81    82    89    1
    82    17    18   ar
    83    17    22    1
    84    50    49    1
    85    23    22    1
    86    18    25    1
    87    30    29   ar
    88    30    36    1
    89    29    33    1
    90    22    24    1
    91    96    90    1
    92    96    97    1
    93    26    25    1
    94    98    97    1
    95    89    90   ar
    96    89    93   ar
    97    36    37    1
    98    90    91   ar
    99    99    97    1
   100    97   100    1
   101    94    93    1
   102    93    92   ar
   103    91    92   ar
   104    91   101    1
   105    37    40    1
   106    37    39    1
   107    37    38    1
   108    92    95    1
