@<TRIPOS>MOLECULE
mol_data/opt/b3lyp/geoms/mol2/4id12fh12hh13hd-12ld-4af-13ae13il-.out
 96 103 0 0 0
SMALL
GASTEIGER

@<TRIPOS>ATOM
      1 C           1.3218   -0.7245   -2.3142 C.ar    1  LIG1       -0.0497
      2 C           2.5458   -0.4759   -1.7000 C.ar    1  LIG1       -0.0468
      3 C           0.2686    0.1899   -2.1218 C.ar    1  LIG1       -0.0576
      4 C           2.7761    0.6496   -0.8728 C.ar    1  LIG1        0.0386
      5 H           3.3793   -1.1354   -1.9247 H       1  LIG1        0.0628
      6 C           0.4565    1.3111   -1.3314 C.ar    1  LIG1       -0.0434
      7 C           1.6906    1.5503   -0.6942 C.ar    1  LIG1        0.0625
      8 H          -0.3493    2.0228   -1.1789 H       1  LIG1        0.0631
      9 H          -0.6892    0.0238   -2.6057 H       1  LIG1        0.0621
     10 C           1.1296   -1.9299   -3.2007 C.3     1  LIG1       -0.0397
     11 H           2.0406   -2.5295   -3.2712 H       1  LIG1        0.0278
     12 H           0.8434   -1.6300   -4.2147 H       1  LIG1        0.0278
     13 H           0.3291   -2.5741   -2.8198 H       1  LIG1        0.0278
     14 N           1.6489    3.6266    0.8505 N.1     1  LIG1       -0.1908
     15 C           1.7463    2.6914    0.1611 C.1     1  LIG1        0.0999
     16 C           4.0684    0.8306   -0.2692 C.ar    1  LIG1        0.1802
     17 C           5.0751   -0.0522    0.0729 C.ar    1  LIG1        0.1846
     18 C           6.1537    0.6909    0.6154 C.ar    1  LIG1        0.1169
     19 C           5.7504    2.0238    0.5946 C.ar    1  LIG1        0.1967
     20 O           4.4917    2.1050    0.0755 O.2     1  LIG1       -0.4459
     21 O           5.1188   -1.4080   -0.0301 O.3     1  LIG1       -0.5020
     22 H           4.2216   -1.7441   -0.1635 H       1  LIG1        0.2924
     23 N           7.4054    0.1718    1.0688 N.pl3   1  LIG1       -0.3521
     24 H           7.2506   -0.5561    1.7646 H       1  LIG1        0.1425
     25 H           7.9009   -0.2757    0.2992 H       1  LIG1        0.1425
     26 C           6.3872    3.2414    0.9586 C.ar    1  LIG1        0.1950
     27 C           7.6167    3.5456    1.5315 C.ar    1  LIG1        0.0958
     28 C           7.7198    4.9722    1.5389 C.ar    1  LIG1        0.0942
     29 C           6.5444    5.4673    0.9943 C.ar    1  LIG1        0.1761
     30 O           5.7334    4.4288    0.6458 O.2     1  LIG1       -0.4463
     31 N           8.5453    2.6872    2.0669 N.pl3   1  LIG1       -0.3535
     32 H           8.4293    1.7065    1.8006 H       1  LIG1        0.1425
     33 H           9.4950    3.0306    2.0841 H       1  LIG1        0.1425
     34 N           8.8277    5.7361    2.0181 N.pl3   1  LIG1       -0.3535
     35 H           9.0116    5.5458    3.0017 H       1  LIG1        0.1425
     36 H           9.6799    5.5284    1.5010 H       1  LIG1        0.1425
     37 C           6.0263    6.7689    0.7184 C.ar    1  LIG1        0.1067
     38 C           6.5686    8.0578    0.8632 C.ar    1  LIG1        0.0716
     39 C           5.6081    8.9745    0.3256 C.ar    1  LIG1        0.1014
     40 C           4.4970    8.2271   -0.1159 C.ar    1  LIG1        0.1058
     41 N           4.7696    6.9201    0.1337 N.ar    1  LIG1       -0.3467
     42 H           4.1449    6.1505   -0.0565 H       1  LIG1        0.1662
     43 N           7.7453    8.4091    1.4521 N.pl3   1  LIG1       -0.3552
     44 H           8.3887    7.6587    1.6957 H       1  LIG1        0.1424
     45 H           8.1040    9.3337    1.2730 H       1  LIG1        0.1424
     46 N           5.9935   11.5207    0.4230 N.1     1  LIG1       -0.1907
     47 C           5.7779   10.3764    0.3497 C.1     1  LIG1        0.1033
     48 C           3.2490    8.6360   -0.6903 C.ar    1  LIG1        0.1958
     49 C           2.8233    9.7407   -1.3910 C.ar    1  LIG1        0.1852
     50 C           1.4337    9.5142   -1.7106 C.ar    1  LIG1        0.1396
     51 C           1.1016    8.2675   -1.1915 C.ar    1  LIG1        0.1569
     52 O           2.2042    7.7420   -0.5909 O.2     1  LIG1       -0.4482
     53 O           3.6228   10.7515   -1.7807 O.3     1  LIG1       -0.4901
     54 C           3.2198   12.0884   -1.4246 C.3     1  LIG1        0.0790
     55 H           4.0165   12.7373   -1.7856 H       1  LIG1        0.0660
     56 H           2.2733   12.3560   -1.9019 H       1  LIG1        0.0660
     57 H           3.1428   12.1858   -0.3379 H       1  LIG1        0.0660
     58 N          -0.0766   11.1073   -3.0683 N.1     1  LIG1       -0.1906
     59 C           0.5976   10.3829   -2.4527 C.1     1  LIG1        0.1067
     60 C          -1.2972    7.8424   -1.7868 C.ar    1  LIG1       -0.0502
     61 C          -2.4195    7.0374   -1.6849 C.ar    1  LIG1       -0.0485
     62 C          -0.1057    7.4685   -1.1353 C.ar    1  LIG1        0.0222
     63 C          -2.4331    5.8308   -0.9537 C.ar    1  LIG1        0.0398
     64 H          -3.3307    7.3520   -2.1815 H       1  LIG1        0.0625
     65 C          -0.0946    6.2751   -0.3936 C.ar    1  LIG1       -0.0088
     66 C          -1.2251    5.4739   -0.3046 C.ar    1  LIG1        0.1266
     67 H           0.8066    5.9649    0.1216 H       1  LIG1        0.0661
     68 H          -1.3498    8.7566   -2.3652 H       1  LIG1        0.0625
     69 O          -1.1876    4.3078    0.4228 O.3     1  LIG1       -0.5061
     70 H          -0.2932    4.1873    0.7932 H       1  LIG1        0.2922
     71 C          -3.6452    5.0266   -0.8938 C.ar    1  LIG1        0.0517
     72 C          -4.8466    5.1615   -1.5783 C.ar    1  LIG1       -0.0202
     73 C          -5.7280    4.1315   -1.1455 C.ar    1  LIG1        0.0519
     74 C          -5.0404    3.3790   -0.1756 C.ar    1  LIG1        0.0793
     75 N          -3.7909    3.9311   -0.0598 N.ar    1  LIG1       -0.3519
     76 H          -3.0882    3.6698    0.6167 H       1  LIG1        0.1660
     77 H          -5.0783    5.8947   -2.3360 H       1  LIG1        0.0651
     78 C          -7.0182    3.8693   -1.6723 C.1     1  LIG1       -0.0675
     79 C          -8.1119    3.6662   -2.1522 C.1     1  LIG1       -0.1138
     80 H          -9.0705    3.4828   -2.5780 H       1  LIG1        0.1232
     81 C          -5.4153    2.2073    0.5883 C.ar    1  LIG1        0.0706
     82 C          -6.5944    1.8635    1.2430 C.ar    1  LIG1        0.0179
     83 C          -6.3452    0.6053    1.8725 C.ar    1  LIG1        0.1408
     84 C          -5.0486    0.2179    1.6065 C.ar    1  LIG1        0.0447
     85 N          -4.4800    1.2143    0.8494 N.ar    1  LIG1       -0.3562
     86 H          -3.6043    1.1311    0.3587 H       1  LIG1        0.1655
     87 H          -4.4997   -0.6576    1.9165 H       1  LIG1        0.0844
     88 C          -7.8463    2.6742    1.3840 C.3     1  LIG1       -0.0342
     89 H          -8.3358    2.4398    2.3343 H       1  LIG1        0.0279
     90 H          -8.5614    2.4825    0.5759 H       1  LIG1        0.0279
     91 H          -7.6285    3.7456    1.3611 H       1  LIG1        0.0279
     92 O          -7.2153   -0.0714    2.6920 O.3     1  LIG1       -0.4933
     93 C          -8.2464   -0.7722    1.9995 C.3     1  LIG1        0.0789
     94 H          -8.8624   -1.2552    2.7615 H       1  LIG1        0.0660
     95 H          -8.8736   -0.0943    1.4072 H       1  LIG1        0.0660
     96 H          -7.8277   -1.5366    1.3314 H       1  LIG1        0.0660
@<TRIPOS>BOND
     1    12    10    1
     2    11    10    1
     3    10    13    1
     4    10     1    1
     5    58    59    3
     6     9     3    1
     7    80    79    1
     8    59    50    1
     9    68    60    1
    10    77    72    1
    11     1     3   ar
    12     1     2   ar
    13    64    61    1
    14    79    78    3
    15     3     6   ar
    16     5     2    1
    17    56    54    1
    18    60    61   ar
    19    60    62   ar
    20    55    54    1
    21    53    54    1
    22    53    49    1
    23    50    49   ar
    24    50    51   ar
    25     2     4   ar
    26    61    63   ar
    27    78    73    1
    28    72    73   ar
    29    72    71   ar
    30    54    57    1
    31    49    48   ar
    32     6     8    1
    33     6     7   ar
    34    51    62    1
    35    51    52   ar
    36    73    74   ar
    37    62    65   ar
    38    63    71    1
    39    63    66   ar
    40    71    75   ar
    41     4     7   ar
    42     4    16    1
    43     7    15    1
    44    48    52   ar
    45    48    40    1
    46    65    66   ar
    47    65    67    1
    48    66    69    1
    49    16    17   ar
    50    16    20   ar
    51    74    75   ar
    52    74    81    1
    53    22    21    1
    54    40    41   ar
    55    40    39   ar
    56    75    76    1
    57    42    41    1
    58    21    17    1
    59    17    18   ar
    60    20    19   ar
    61    41    37   ar
    62    15    14    3
    63    25    23    1
    64    39    47    1
    65    39    38   ar
    66    47    46    3
    67    86    85    1
    68    69    70    1
    69    90    88    1
    70    81    85   ar
    71    81    82   ar
    72    19    18   ar
    73    19    26    1
    74    18    23    1
    75    30    26   ar
    76    30    29   ar
    77    37    38   ar
    78    37    29    1
    79    85    84   ar
    80    38    43    1
    81    26    27   ar
    82    29    28   ar
    83    23    24    1
    84    82    88    1
    85    82    83   ar
    86    45    43    1
    87    96    93    1
    88    91    88    1
    89    88    89    1
    90    95    93    1
    91    43    44    1
    92    36    34    1
    93    27    28   ar
    94    27    31    1
    95    28    34    1
    96    84    83   ar
    97    84    87    1
    98    32    31    1
    99    83    92    1
   100    93    92    1
   101    93    94    1
   102    34    35    1
   103    31    33    1
