@<TRIPOS>MOLECULE
mol_data/opt/b3lyp/geoms/mol2/4id13fl-13de-13ae.out
 50 53 0 0 0
SMALL
GASTEIGER

@<TRIPOS>ATOM
      1 C          -0.1806    0.4619   -0.1464 C.ar    1  LIG1       -0.0498
      2 C           1.1945    0.2581   -0.0697 C.ar    1  LIG1       -0.0484
      3 C          -0.6705    1.7775   -0.2564 C.ar    1  LIG1       -0.0576
      4 C           2.1226    1.3193   -0.0881 C.ar    1  LIG1        0.0196
      5 H           1.5790   -0.7526    0.0079 H       1  LIG1        0.0627
      6 C           0.2046    2.8489   -0.2705 C.ar    1  LIG1       -0.0435
      7 C           1.5960    2.6456   -0.1786 C.ar    1  LIG1        0.0610
      8 H          -0.1720    3.8641   -0.3424 H       1  LIG1        0.0631
      9 H          -1.7397    1.9541   -0.3260 H       1  LIG1        0.0621
     10 C          -1.1375   -0.7037   -0.1219 C.3     1  LIG1       -0.0397
     11 H          -0.6087   -1.6571   -0.0546 H       1  LIG1        0.0278
     12 H          -1.7581   -0.7220   -1.0248 H       1  LIG1        0.0278
     13 H          -1.8186   -0.6329    0.7337 H       1  LIG1        0.0278
     14 N           3.1258    4.7457   -0.1255 N.1     1  LIG1       -0.1908
     15 C           2.4289    3.8090   -0.1435 C.1     1  LIG1        0.0998
     16 C           3.5398    1.0377    0.0069 C.ar    1  LIG1        0.0940
     17 C           4.2534   -0.0576    0.4990 C.ar    1  LIG1        0.1851
     18 C           5.6382    0.2612    0.5068 C.ar    1  LIG1        0.1888
     19 C           5.7746    1.5611    0.0164 C.ar    1  LIG1        0.1106
     20 N           4.4998    1.9953   -0.2778 N.ar    1  LIG1       -0.3471
     21 H           4.3394    2.7597   -0.9140 H       1  LIG1        0.1662
     22 O           3.7306   -1.2089    0.9946 O.3     1  LIG1       -0.5019
     23 H           4.4362   -1.6370    1.5054 H       1  LIG1        0.2924
     24 O           6.5704   -0.5533    1.0837 O.3     1  LIG1       -0.4895
     25 C           7.1393   -1.5459    0.2027 C.3     1  LIG1        0.0791
     26 H           7.7426   -1.0757   -0.5766 H       1  LIG1        0.0660
     27 H           7.7813   -2.1679    0.8280 H       1  LIG1        0.0660
     28 H           6.3527   -2.1617   -0.2497 H       1  LIG1        0.0660
     29 C           6.8076    2.5663   -0.0547 C.ar    1  LIG1        0.0859
     30 C           8.1837    2.5966   -0.2756 C.ar    1  LIG1        0.0945
     31 C           8.6014    3.9799   -0.2966 C.ar    1  LIG1        0.0693
     32 C           7.4553    4.7558   -0.0888 C.ar    1  LIG1        0.0802
     33 N           6.4024    3.8824    0.0480 N.ar    1  LIG1       -0.3498
     34 H           5.4855    4.1433    0.3863 H       1  LIG1        0.1661
     35 N           9.6968    0.5539   -0.7201 N.1     1  LIG1       -0.1908
     36 C           9.0165    1.4768   -0.5125 C.1     1  LIG1        0.1026
     37 C           9.9180    4.4439   -0.5192 C.1     1  LIG1       -0.0662
     38 C          11.0516    4.8247   -0.7089 C.1     1  LIG1       -0.1138
     39 H          12.0511    5.1503   -0.8818 H       1  LIG1        0.1232
     40 C           7.2464    6.1812   -0.0240 C.ar    1  LIG1        0.0653
     41 C           8.1462    7.2276    0.0956 C.ar    1  LIG1       -0.0195
     42 C           7.3989    8.4432    0.1302 C.ar    1  LIG1        0.0426
     43 C           6.0559    8.0937    0.0291 C.ar    1  LIG1        0.0177
     44 N           5.9711    6.7356   -0.0586 N.ar    1  LIG1       -0.3584
     45 H           5.1016    6.2350   -0.1988 H       1  LIG1        0.1654
     46 H           5.1760    8.7177    0.0102 H       1  LIG1        0.0819
     47 H           9.2182    7.1304    0.1627 H       1  LIG1        0.0651
     48 C           7.9127    9.7615    0.2495 C.1     1  LIG1       -0.0682
     49 C           8.3573   10.8827    0.3512 C.1     1  LIG1       -0.1139
     50 H           8.7485   11.8691    0.4407 H       1  LIG1        0.1232
@<TRIPOS>BOND
     1    12    10    1
     2    21    20    1
     3    39    38    1
     4    35    36    3
     5    38    37    3
     6    26    25    1
     7    37    31    1
     8    36    30    1
     9     8     6    1
    10     9     3    1
    11    31    30   ar
    12    31    32   ar
    13    20    16   ar
    14    20    19   ar
    15    30    29   ar
    16     6     3   ar
    17     6     7   ar
    18     3     1   ar
    19    28    25    1
    20    45    44    1
    21     7    15    1
    22     7     4   ar
    23     1    10    1
    24     1     2   ar
    25    15    14    3
    26    10    11    1
    27    10    13    1
    28    32    40    1
    29    32    33   ar
    30     4     2   ar
    31     4    16    1
    32     2     5    1
    33    44    40   ar
    34    44    43   ar
    35    29    19    1
    36    29    33   ar
    37    40    41   ar
    38    16    17   ar
    39    46    43    1
    40    19    18   ar
    41    43    42   ar
    42    33    34    1
    43    41    42   ar
    44    41    47    1
    45    42    48    1
    46    25    27    1
    47    25    24    1
    48    48    49    3
    49    49    50    1
    50    17    18   ar
    51    17    22    1
    52    18    24    1
    53    22    23    1
