@<TRIPOS>MOLECULE
mol_data/opt/b3lyp/geoms/mol2/4ie.out
 17 17 0 0 0
SMALL
GASTEIGER

@<TRIPOS>ATOM
      1 C           0.0923    0.0469    0.0158 C.ar    1  LIG1       -0.0504
      2 C           1.4941    0.0523    0.0140 C.ar    1  LIG1       -0.0577
      3 C          -0.5706    1.2820    0.0139 C.ar    1  LIG1       -0.0577
      4 C           2.2123    1.2435    0.0043 C.ar    1  LIG1       -0.0461
      5 H           2.0312   -0.8928    0.0221 H       1  LIG1        0.0621
      6 C           0.1348    2.4809    0.0041 C.ar    1  LIG1       -0.0461
      7 C           1.5417    2.4803   -0.0016 C.ar    1  LIG1        0.0247
      8 H          -0.3948    3.4280    0.0049 H       1  LIG1        0.0630
      9 H           3.2973    1.2289    0.0052 H       1  LIG1        0.0630
     10 H          -1.6574    1.3042    0.0219 H       1  LIG1        0.0621
     11 C          -0.6801   -1.2499   -0.0067 C.3     1  LIG1       -0.0397
     12 H          -0.1283   -2.0535    0.4900 H       1  LIG1        0.0278
     13 H          -0.8738   -1.5769   -1.0361 H       1  LIG1        0.0278
     14 H          -1.6501   -1.1472    0.4886 H       1  LIG1        0.0278
     15 C           2.2731    3.7083   -0.0083 C.1     1  LIG1       -0.0697
     16 C           2.8924    4.7482   -0.0145 C.1     1  LIG1       -0.1139
     17 H           3.4375    5.6634   -0.0200 H       1  LIG1        0.1232
@<TRIPOS>BOND
     1    13    11    1
     2    17    16    1
     3    16    15    3
     4    15     7    1
     5    11     1    1
     6    11    14    1
     7    11    12    1
     8     7     6   ar
     9     7     4   ar
    10     6     8    1
    11     6     3   ar
    12     4     9    1
    13     4     2   ar
    14     3     1   ar
    15     3    10    1
    16     2     1   ar
    17     2     5    1
