@<TRIPOS>MOLECULE
mol_data/opt/b3lyp/geoms/mol2/4ie13fh6ae-13hl.out
 53 56 0 0 0
SMALL
GASTEIGER

@<TRIPOS>ATOM
      1 C          -0.2801    0.0664    0.0319 C.ar    1  LIG1       -0.0498
      2 C           1.1071    0.0669   -0.0750 C.ar    1  LIG1       -0.0484
      3 C          -0.9415    1.2865    0.2512 C.ar    1  LIG1       -0.0576
      4 C           1.8867    1.2418    0.0255 C.ar    1  LIG1        0.0176
      5 H           1.6185   -0.8725   -0.2445 H       1  LIG1        0.0627
      6 C          -0.2127    2.4583    0.3573 C.ar    1  LIG1       -0.0454
      7 C           1.1938    2.4683    0.2496 C.ar    1  LIG1        0.0339
      8 H          -0.7189    3.4032    0.5268 H       1  LIG1        0.0630
      9 H          -2.0243    1.3130    0.3377 H       1  LIG1        0.0621
     10 C          -1.0637   -1.2193   -0.0787 C.3     1  LIG1       -0.0397
     11 H          -0.4108   -2.0688   -0.2939 H       1  LIG1        0.0278
     12 H          -1.8140   -1.1590   -0.8754 H       1  LIG1        0.0278
     13 H          -1.6020   -1.4357    0.8517 H       1  LIG1        0.0278
     14 C           1.8276    3.7439    0.3754 C.1     1  LIG1       -0.0690
     15 C           2.3018    4.8547    0.4976 C.1     1  LIG1       -0.1139
     16 H           2.7015    5.8370    0.6013 H       1  LIG1        0.1232
     17 C           3.3310    1.1232   -0.1019 C.ar    1  LIG1        0.0920
     18 C           4.1377    0.0060   -0.3509 C.ar    1  LIG1        0.1635
     19 C           5.4914    0.4031   -0.3584 C.ar    1  LIG1        0.0929
     20 C           5.5249    1.7841   -0.1251 C.ar    1  LIG1        0.0730
     21 N           4.2207    2.1844    0.0133 N.ar    1  LIG1       -0.3497
     22 H           3.9231    3.1083    0.2919 H       1  LIG1        0.1661
     23 O           3.7523   -1.2746   -0.5844 O.3     1  LIG1       -0.5031
     24 H           4.5860   -1.7402   -0.7873 H       1  LIG1        0.2923
     25 N           6.5023   -0.5621   -0.6464 N.pl3   1  LIG1       -0.3535
     26 H           7.1203   -0.2713   -1.3988 H       1  LIG1        0.1425
     27 H           7.0770   -0.7873    0.1613 H       1  LIG1        0.1425
     28 C           6.4442    4.1128   -0.2774 C.ar    1  LIG1        0.0376
     29 C           6.6307    2.7282   -0.0778 C.ar    1  LIG1        0.0195
     30 C           7.9472    2.3396    0.1963 C.ar    1  LIG1       -0.0336
     31 C           8.9966    3.2685    0.2321 C.ar    1  LIG1        0.0527
     32 C           8.7079    4.6347   -0.0681 C.ar    1  LIG1        0.1043
     33 N           7.4169    5.0094   -0.2731 N.ar    1  LIG1       -0.2516
     34 H           8.1741    1.3064    0.4301 H       1  LIG1        0.0637
     35 H           5.4473    4.5056   -0.4742 H       1  LIG1        0.0836
     36 C          10.2698    2.7987    0.6714 C.1     1  LIG1       -0.0675
     37 C          11.3130    2.3360    1.0791 C.1     1  LIG1       -0.1138
     38 H          12.2379    1.9732    1.4640 H       1  LIG1        0.1232
     39 C           9.6541    5.7298   -0.1703 C.ar    1  LIG1        0.0907
     40 C          11.0345    5.8882   -0.4077 C.ar    1  LIG1        0.0940
     41 C          11.2722    7.2886   -0.5194 C.ar    1  LIG1        0.1585
     42 C          10.0695    7.9532   -0.3695 C.ar    1  LIG1        0.0463
     43 N           9.1129    7.0157   -0.1521 N.ar    1  LIG1       -0.3549
     44 H           8.1119    7.1370   -0.1254 H       1  LIG1        0.1655
     45 H           9.8515    9.0097   -0.4060 H       1  LIG1        0.0845
     46 N          12.0725    4.9742   -0.5442 N.pl3   1  LIG1       -0.3535
     47 H          11.8038    4.0091   -0.6607 H       1  LIG1        0.1425
     48 H          12.7617    5.2828   -1.2192 H       1  LIG1        0.1425
     49 O          12.4973    7.8448   -0.7992 O.3     1  LIG1       -0.4918
     50 C          13.3581    7.9407    0.3414 C.3     1  LIG1        0.0789
     51 H          14.3021    8.3600   -0.0147 H       1  LIG1        0.0660
     52 H          12.9292    8.6045    1.1024 H       1  LIG1        0.0660
     53 H          13.5382    6.9555    0.7870 H       1  LIG1        0.0660
@<TRIPOS>BOND
     1    26    25    1
     2    48    46    1
     3    12    10    1
     4    49    41    1
     5    49    50    1
     6    24    23    1
     7    47    46    1
     8    25    19    1
     9    25    27    1
    10    23    18    1
    11    46    40    1
    12    41    40   ar
    13    41    42   ar
    14    35    28    1
    15    40    39   ar
    16    45    42    1
    17    42    43   ar
    18    19    18   ar
    19    19    20   ar
    20    18    17   ar
    21    11    10    1
    22    28    33   ar
    23    28    29   ar
    24    33    32   ar
    25     5     2    1
    26    39    43   ar
    27    39    32    1
    28    43    44    1
    29    20    29    1
    30    20    21   ar
    31    17    21   ar
    32    17     4    1
    33    10     1    1
    34    10    13    1
    35    29    30   ar
    36     2     4   ar
    37     2     1   ar
    38    32    31   ar
    39    51    50    1
    40    21    22    1
    41     4     7   ar
    42     1     3   ar
    43    30    31   ar
    44    30    34    1
    45    31    36    1
    46     7     6   ar
    47     7    14    1
    48     3     9    1
    49     3     6   ar
    50    50    53    1
    51    50    52    1
    52     6     8    1
    53    14    15    3
    54    15    16    1
    55    36    37    3
    56    37    38    1
