@<TRIPOS>MOLECULE
mol_data/opt/b3lyp/geoms/mol2/4ie12df-4ii-4dh-.out
 55 58 0 0 0
SMALL
GASTEIGER

@<TRIPOS>ATOM
      1 C          -0.1229   -0.0710    0.0429 C.ar    1  LIG1       -0.0497
      2 C           1.2004    0.1422   -0.3417 C.ar    1  LIG1       -0.0469
      3 C          -0.6000    0.6144    1.1698 C.ar    1  LIG1       -0.0576
      4 C           2.0608    1.0034    0.3618 C.ar    1  LIG1        0.0343
      5 H           1.5757   -0.3696   -1.2210 H       1  LIG1        0.0628
      6 C           0.2264    1.4717    1.8822 C.ar    1  LIG1       -0.0454
      7 C           1.5668    1.6848    1.5073 C.ar    1  LIG1        0.0354
      8 H          -0.1485    1.9881    2.7593 H       1  LIG1        0.0630
      9 H          -1.6277    0.4712    1.4933 H       1  LIG1        0.0621
     10 C          -1.0227   -0.9924   -0.7437 C.3     1  LIG1       -0.0397
     11 H          -0.4558   -1.5834   -1.4671 H       1  LIG1        0.0278
     12 H          -1.7830   -0.4268   -1.2957 H       1  LIG1        0.0278
     13 H          -1.5538   -1.6853   -0.0827 H       1  LIG1        0.0278
     14 C           2.3612    2.5392    2.3317 C.1     1  LIG1       -0.0690
     15 C           2.9697    3.2595    3.0902 C.1     1  LIG1       -0.1139
     16 H           3.5370    3.8933    3.7322 H       1  LIG1        0.1232
     17 C           3.4333    1.1542   -0.1125 C.ar    1  LIG1        0.1579
     18 C           4.2877    0.2999   -0.7980 C.ar    1  LIG1        0.1394
     19 C           5.5117    1.0252   -0.9862 C.ar    1  LIG1        0.1810
     20 C           5.3554    2.2539   -0.3958 C.ar    1  LIG1        0.1785
     21 O           4.0716    2.3241    0.1117 O.2     1  LIG1       -0.4497
     22 N           3.8502   -2.1135   -1.6027 N.1     1  LIG1       -0.1906
     23 C           4.0431   -1.0265   -1.2321 C.1     1  LIG1        0.1067
     24 O           6.5626    0.5167   -1.6723 O.3     1  LIG1       -0.5023
     25 H           7.1948    1.2268   -1.8463 H       1  LIG1        0.2923
     26 C           7.5522    3.3996    0.0649 C.ar    1  LIG1       -0.0391
     27 C           8.2671    4.6021    0.0819 C.ar    1  LIG1       -0.0501
     28 C           6.1906    3.4521   -0.3093 C.ar    1  LIG1        0.0242
     29 C           7.6887    5.8366   -0.2273 C.ar    1  LIG1       -0.0134
     30 H           9.3140    4.5782    0.3717 H       1  LIG1        0.0627
     31 C           5.6023    4.6989   -0.5887 C.ar    1  LIG1       -0.0472
     32 C           6.3150    5.8953   -0.5524 C.ar    1  LIG1       -0.0420
     33 H           4.5451    4.7234   -0.8352 H       1  LIG1        0.0627
     34 C           8.2367    2.1265    0.5098 C.3     1  LIG1       -0.0390
     35 H           9.0637    2.3596    1.1850 H       1  LIG1        0.0278
     36 H           8.6623    1.5466   -0.3192 H       1  LIG1        0.0278
     37 H           7.5428    1.4654    1.0355 H       1  LIG1        0.0278
     38 C           5.6074    7.2015   -0.8334 C.3     1  LIG1       -0.0391
     39 H           4.5248    7.0541   -0.8574 H       1  LIG1        0.0278
     40 H           5.9046    7.6346   -1.7948 H       1  LIG1        0.0278
     41 H           5.8312    7.9504   -0.0674 H       1  LIG1        0.0278
     42 C           9.0970    7.5416    1.0196 C.ar    1  LIG1        0.0596
     43 C           9.9134    8.6879    1.0010 C.ar    1  LIG1       -0.0420
     44 C           8.5403    7.0636   -0.1918 C.ar    1  LIG1        0.0015
     45 C          10.1826    9.3556   -0.1811 C.ar    1  LIG1       -0.0398
     46 H          10.3340    9.0493    1.9336 H       1  LIG1        0.0631
     47 C           8.8226    7.7468   -1.3736 C.ar    1  LIG1       -0.0321
     48 C           9.6388    8.8925   -1.3950 C.ar    1  LIG1        0.0252
     49 H           8.4097    7.3731   -2.3065 H       1  LIG1        0.0642
     50 H          10.8123   10.2407   -0.1742 H       1  LIG1        0.0636
     51 N           8.6470    6.3997    3.3064 N.1     1  LIG1       -0.1909
     52 C           8.8365    6.8967    2.2704 C.1     1  LIG1        0.0998
     53 N           9.8648    9.5745   -2.5764 N.pl3   1  LIG1       -0.3579
     54 H          10.6698   10.1824   -2.6063 H       1  LIG1        0.1423
     55 H           9.7103    9.0665   -3.4347 H       1  LIG1        0.1423
@<TRIPOS>BOND
     1    55    53    1
     2    54    53    1
     3    53    48    1
     4    49    47    1
     5    25    24    1
     6    40    38    1
     7    24    19    1
     8    22    23    3
     9    11    10    1
    10    48    47   ar
    11    48    45   ar
    12    47    44   ar
    13    12    10    1
    14    23    18    1
    15     5     2    1
    16    19    18   ar
    17    19    20   ar
    18    39    38    1
    19    33    31    1
    20    38    32    1
    21    38    41    1
    22    18    17   ar
    23    10    13    1
    24    10     1    1
    25    31    32   ar
    26    31    28   ar
    27    32    29   ar
    28    20    28    1
    29    20    21   ar
    30     2     1   ar
    31     2     4   ar
    32    36    34    1
    33    28    26   ar
    34    29    44    1
    35    29    27   ar
    36    44    42   ar
    37    45    50    1
    38    45    43   ar
    39    17    21   ar
    40    17     4    1
    41     1     3   ar
    42    26    27   ar
    43    26    34    1
    44    27    30    1
    45     4     7   ar
    46    34    37    1
    47    34    35    1
    48    43    42   ar
    49    43    46    1
    50    42    52    1
    51     3     9    1
    52     3     6   ar
    53     7     6   ar
    54     7    14    1
    55     6     8    1
    56    52    51    3
    57    14    15    3
    58    15    16    1
