@<TRIPOS>MOLECULE
mol_data/opt/b3lyp/geoms/mol2/4ie4ie-.out
 32 33 0 0 0
SMALL
GASTEIGER

@<TRIPOS>ATOM
      1 C          -0.0159    0.2737    0.5879 C.ar    1  LIG1       -0.0498
      2 C           1.3836    0.2987    0.6077 C.ar    1  LIG1       -0.0499
      3 C          -0.6819    1.2810   -0.1219 C.ar    1  LIG1       -0.0576
      4 C           2.1279    1.2840   -0.0510 C.ar    1  LIG1       -0.0020
      5 H           1.9209   -0.4674    1.1607 H       1  LIG1        0.0627
      6 C           0.0300    2.2665   -0.7945 C.ar    1  LIG1       -0.0455
      7 C           1.4370    2.2857   -0.7754 C.ar    1  LIG1        0.0324
      8 H          -0.4945    3.0370   -1.3502 H       1  LIG1        0.0630
      9 H          -1.7683    1.2919   -0.1501 H       1  LIG1        0.0621
     10 C          -0.7813   -0.8211    1.2906 C.3     1  LIG1       -0.0397
     11 H          -0.2222   -1.2177    2.1428 H       1  LIG1        0.0278
     12 H          -0.9806   -1.6606    0.6127 H       1  LIG1        0.0278
     13 H          -1.7486   -0.4624    1.6547 H       1  LIG1        0.0278
     14 C           2.1301    3.3009   -1.5061 C.1     1  LIG1       -0.0691
     15 C           2.6851    4.1724   -2.1369 C.1     1  LIG1       -0.1139
     16 H           3.1861    4.9272   -2.6975 H       1  LIG1        0.1232
     17 C           4.3784    2.1612    0.7506 C.ar    1  LIG1       -0.0426
     18 C           5.7714    2.0160    0.7737 C.ar    1  LIG1       -0.0571
     19 C           3.6218    1.2281    0.0060 C.ar    1  LIG1       -0.0126
     20 C           6.4176    0.9897    0.0935 C.ar    1  LIG1       -0.0461
     21 H           6.3624    2.7244    1.3482 H       1  LIG1        0.0621
     22 C           4.2707    0.1884   -0.6660 C.ar    1  LIG1       -0.0383
     23 C           5.6694    0.0533   -0.6383 C.ar    1  LIG1        0.0253
     24 H           3.6830   -0.5276   -1.2311 H       1  LIG1        0.0636
     25 H           7.4984    0.9008    0.1290 H       1  LIG1        0.0630
     26 C           3.7239    3.2813    1.5219 C.3     1  LIG1       -0.0391
     27 H           2.8698    2.9220    2.1044 H       1  LIG1        0.0278
     28 H           3.3490    4.0586    0.8474 H       1  LIG1        0.0278
     29 H           4.4349    3.7469    2.2097 H       1  LIG1        0.0278
     30 C           6.3110   -1.0158   -1.3374 C.1     1  LIG1       -0.0696
     31 C           6.8552   -1.9215   -1.9278 C.1     1  LIG1       -0.1139
     32 H           7.3335   -2.7177   -2.4492 H       1  LIG1        0.1232
@<TRIPOS>BOND
     1    16    15    1
     2    32    31    1
     3    15    14    3
     4    31    30    3
     5    14     7    1
     6     8     6    1
     7    30    23    1
     8    24    22    1
     9     6     7   ar
    10     6     3   ar
    11     7     4   ar
    12    22    23   ar
    13    22    19   ar
    14    23    20   ar
    15     9     3    1
    16     3     1   ar
    17     4    19    1
    18     4     2   ar
    19    19    17   ar
    20    20    25    1
    21    20    18   ar
    22     1     2   ar
    23     1    10    1
    24     2     5    1
    25    12    10    1
    26    17    18   ar
    27    17    26    1
    28    18    21    1
    29    28    26    1
    30    10    13    1
    31    10    11    1
    32    26    27    1
    33    26    29    1
