@<TRIPOS>MOLECULE
mol_data/opt/b3lyp/geoms/mol2/4ie4ie.out
 32 33 0 0 0
SMALL
GASTEIGER

@<TRIPOS>ATOM
      1 C           0.0869    0.3496   -1.0291 C.ar    1  LIG1       -0.0498
      2 C           1.4802    0.4425   -0.9394 C.ar    1  LIG1       -0.0499
      3 C          -0.6807    1.0193   -0.0669 C.ar    1  LIG1       -0.0576
      4 C           2.1228    1.1738    0.0669 C.ar    1  LIG1       -0.0020
      5 H           2.0951   -0.0768   -1.6698 H       1  LIG1        0.0627
      6 C          -0.0720    1.7612    0.9371 C.ar    1  LIG1       -0.0455
      7 C           1.3300    1.8552    1.0215 C.ar    1  LIG1        0.0324
      8 H          -0.6746    2.2851    1.6720 H       1  LIG1        0.0630
      9 H          -1.7654    0.9610   -0.1066 H       1  LIG1        0.0621
     10 C          -0.5705   -0.4302   -2.1419 C.3     1  LIG1       -0.0397
     11 H           0.1191   -1.1530   -2.5863 H       1  LIG1        0.0278
     12 H          -0.9089    0.2368   -2.9445 H       1  LIG1        0.0278
     13 H          -1.4497   -0.9746   -1.7833 H       1  LIG1        0.0278
     14 C           1.9132    2.6551    2.0535 C.1     1  LIG1       -0.0691
     15 C           2.3730    3.3423    2.9377 C.1     1  LIG1       -0.1139
     16 H           2.7910    3.9531    3.7039 H       1  LIG1        0.1232
     17 C           4.3857    0.5700    1.0621 C.ar    1  LIG1       -0.0426
     18 C           5.7815    0.6563    0.9815 C.ar    1  LIG1       -0.0571
     19 C           3.6172    1.2358    0.0804 C.ar    1  LIG1       -0.0126
     20 C           6.4195    1.3690   -0.0277 C.ar    1  LIG1       -0.0461
     21 H           6.3820    0.1429    1.7278 H       1  LIG1        0.0621
     22 C           4.2594    1.9402   -0.9420 C.ar    1  LIG1       -0.0383
     23 C           5.6607    2.0227   -1.0122 C.ar    1  LIG1        0.0253
     24 H           3.6634    2.4443   -1.6957 H       1  LIG1        0.0636
     25 H           7.5026    1.4189   -0.0663 H       1  LIG1        0.0630
     26 C           3.7423   -0.2328    2.1666 C.3     1  LIG1       -0.0391
     27 H           4.4823   -0.8553    2.6765 H       1  LIG1        0.0278
     28 H           2.9534   -0.8858    1.7807 H       1  LIG1        0.0278
     29 H           3.2809    0.4223    2.9134 H       1  LIG1        0.0278
     30 C           6.2946    2.7532   -2.0647 C.1     1  LIG1       -0.0696
     31 C           6.8326    3.3700   -2.9564 C.1     1  LIG1       -0.1139
     32 H           7.3052    3.9146   -3.7404 H       1  LIG1        0.1232
@<TRIPOS>BOND
     1    32    31    1
     2    31    30    3
     3    12    10    1
     4    11    10    1
     5    10    13    1
     6    10     1    1
     7    30    23    1
     8    24    22    1
     9     5     2    1
    10     1     2   ar
    11     1     3   ar
    12    23    22   ar
    13    23    20   ar
    14    22    19   ar
    15     2     4   ar
    16     9     3    1
    17     3     6   ar
    18    25    20    1
    19    20    18   ar
    20     4    19    1
    21     4     7   ar
    22    19    17   ar
    23     6     7   ar
    24     6     8    1
    25    18    17   ar
    26    18    21    1
    27     7    14    1
    28    17    26    1
    29    28    26    1
    30    14    15    3
    31    26    27    1
    32    26    29    1
    33    15    16    1
