@<TRIPOS>MOLECULE
mol_data/opt/b3lyp/geoms/mol2/4ie4ie-4ie-4ie.out
 62 65 0 0 0
SMALL
GASTEIGER

@<TRIPOS>ATOM
      1 C          -0.2087    0.1456    0.4782 C.ar    1  LIG1       -0.0498
      2 C           1.1891    0.1830    0.4206 C.ar    1  LIG1       -0.0499
      3 C          -0.9145    1.2885    0.0802 C.ar    1  LIG1       -0.0576
      4 C           1.8940    1.3071   -0.0256 C.ar    1  LIG1       -0.0020
      5 H           1.7570   -0.6917    0.7267 H       1  LIG1        0.0627
      6 C          -0.2424    2.4224   -0.3582 C.ar    1  LIG1       -0.0455
      7 C           1.1635    2.4548   -0.4181 C.ar    1  LIG1        0.0324
      8 H          -0.7971    3.3077   -0.6516 H       1  LIG1        0.0630
      9 H          -2.0006    1.2920    0.1195 H       1  LIG1        0.0621
     10 C          -0.9336   -1.0986    0.9308 C.3     1  LIG1       -0.0397
     11 H          -0.3038   -1.7166    1.5768 H       1  LIG1        0.0278
     12 H          -1.2292   -1.7170    0.0740 H       1  LIG1        0.0278
     13 H          -1.8466   -0.8512    1.4809 H       1  LIG1        0.0278
     14 C           1.8146    3.6554   -0.8419 C.1     1  LIG1       -0.0691
     15 C           2.3322    4.6881   -1.2040 C.1     1  LIG1       -0.1139
     16 H           2.7978    5.5957   -1.5115 H       1  LIG1        0.1232
     17 C           4.1349    1.2241   -1.2331 C.ar    1  LIG1       -0.0421
     18 C           5.5295    1.1611   -1.1420 C.ar    1  LIG1       -0.0494
     19 C           3.3887    1.2714   -0.0352 C.ar    1  LIG1       -0.0126
     20 C           6.2186    1.1452    0.0752 C.ar    1  LIG1       -0.0019
     21 H           6.1107    1.1219   -2.0594 H       1  LIG1        0.0627
     22 C           4.0611    1.2316    1.1878 C.ar    1  LIG1       -0.0377
     23 C           5.4630    1.1703    1.2701 C.ar    1  LIG1        0.0330
     24 H           3.4879    1.2497    2.1089 H       1  LIG1        0.0636
     25 C           3.4708    1.2249   -2.5882 C.3     1  LIG1       -0.0391
     26 H           3.0823    2.2188   -2.8350 H       1  LIG1        0.0278
     27 H           2.6242    0.5321   -2.6200 H       1  LIG1        0.0278
     28 H           4.1795    0.9362   -3.3687 H       1  LIG1        0.0278
     29 C           6.0794    1.1007    2.5586 C.1     1  LIG1       -0.0690
     30 C           6.5699    1.0393    3.6636 C.1     1  LIG1       -0.1139
     31 H           7.0120    0.9751    4.6307 H       1  LIG1        0.1232
     32 C           8.5324    2.1326    0.4709 C.ar    1  LIG1       -0.0421
     33 C           9.9200    1.9655    0.4055 C.ar    1  LIG1       -0.0494
     34 C           7.7105    1.0561    0.0711 C.ar    1  LIG1       -0.0126
     35 C          10.5306    0.7890   -0.0410 C.ar    1  LIG1       -0.0019
     36 H          10.5594    2.7926    0.7022 H       1  LIG1        0.0627
     37 C           8.3054   -0.1230   -0.3822 C.ar    1  LIG1       -0.0377
     38 C           9.7006   -0.2833   -0.4415 C.ar    1  LIG1        0.0330
     39 H           7.6747   -0.9532   -0.6831 H       1  LIG1        0.0636
     40 C           7.9558    3.4454    0.9420 C.3     1  LIG1       -0.0391
     41 H           7.5324    3.3499    1.9474 H       1  LIG1        0.0278
     42 H           7.1498    3.7880    0.2857 H       1  LIG1        0.0278
     43 H           8.7266    4.2199    0.9722 H       1  LIG1        0.0278
     44 C          10.2374   -1.5347   -0.8781 C.1     1  LIG1       -0.0690
     45 C          10.6603   -2.6058   -1.2514 C.1     1  LIG1       -0.1139
     46 H          11.0442   -3.5486   -1.5655 H       1  LIG1        0.1232
     47 C          12.7664    0.6906   -1.2531 C.ar    1  LIG1       -0.0426
     48 C          14.1634    0.6320   -1.1679 C.ar    1  LIG1       -0.0571
     49 C          12.0230    0.6964   -0.0513 C.ar    1  LIG1       -0.0126
     50 C          14.8265    0.5815    0.0531 C.ar    1  LIG1       -0.0461
     51 H          14.7446    0.6338   -2.0863 H       1  LIG1        0.0621
     52 C          12.6909    0.6600    1.1762 C.ar    1  LIG1       -0.0383
     53 C          14.0930    0.5981    1.2506 C.ar    1  LIG1        0.0253
     54 H          12.1139    0.6699    2.0951 H       1  LIG1        0.0636
     55 H          15.9100    0.5367    0.0899 H       1  LIG1        0.0630
     56 C          12.0970    0.7622   -2.6041 C.3     1  LIG1       -0.0391
     57 H          12.8273    0.9813   -3.3877 H       1  LIG1        0.0278
     58 H          11.3251    1.5376   -2.6295 H       1  LIG1        0.0278
     59 H          11.6092   -0.1863   -2.8533 H       1  LIG1        0.0278
     60 C          14.7532    0.5561    2.5177 C.1     1  LIG1       -0.0696
     61 C          15.3133    0.5214    3.5902 C.1     1  LIG1       -0.1139
     62 H          15.8054    0.4892    4.5344 H       1  LIG1        0.1232
@<TRIPOS>BOND
     1    57    56    1
     2    28    25    1
     3    59    56    1
     4    26    25    1
     5    58    56    1
     6    27    25    1
     7    56    47    1
     8    25    17    1
     9    51    48    1
    10    21    18    1
    11    46    45    1
    12    16    15    1
    13    47    48   ar
    14    47    49   ar
    15    45    44    3
    16    17    18   ar
    17    17    19   ar
    18    15    14    3
    19    48    50   ar
    20    18    20   ar
    21    44    38    1
    22    14     7    1
    23    39    37    1
    24     8     6    1
    25    38    37   ar
    26    38    35   ar
    27     7     6   ar
    28     7     4   ar
    29    37    34   ar
    30     6     3   ar
    31    49    35    1
    32    49    52   ar
    33    35    33   ar
    34    19     4    1
    35    19    22   ar
    36     4     2   ar
    37    50    55    1
    38    50    53   ar
    39    34    20    1
    40    34    32   ar
    41    12    10    1
    42    20    23   ar
    43     3     9    1
    44     3     1   ar
    45    42    40    1
    46    33    32   ar
    47    33    36    1
    48     2     1   ar
    49     2     5    1
    50    32    40    1
    51     1    10    1
    52    10    13    1
    53    10    11    1
    54    40    43    1
    55    40    41    1
    56    52    53   ar
    57    52    54    1
    58    22    23   ar
    59    22    24    1
    60    53    60    1
    61    23    29    1
    62    60    61    3
    63    29    30    3
    64    61    62    1
    65    30    31    1
