@<TRIPOS>MOLECULE
mol_data/opt/b3lyp/geoms/mol2/4ie4ie-4ie4ie.out
 62 65 0 0 0
SMALL
GASTEIGER

@<TRIPOS>ATOM
      1 C          -0.2074    0.3741   -0.9154 C.ar    1  LIG1       -0.0498
      2 C           1.1907    0.4037   -0.8607 C.ar    1  LIG1       -0.0499
      3 C          -0.9177    1.2272   -0.0606 C.ar    1  LIG1       -0.0576
      4 C           1.8919    1.2547    0.0014 C.ar    1  LIG1       -0.0020
      5 H           1.7615   -0.2525   -1.5128 H       1  LIG1        0.0627
      6 C          -0.2496    2.0760    0.8128 C.ar    1  LIG1       -0.0455
      7 C           1.1566    2.1056    0.8619 C.ar    1  LIG1        0.0324
      8 H          -0.8082    2.7236    1.4806 H       1  LIG1        0.0630
      9 H          -2.0044    1.2221   -0.0758 H       1  LIG1        0.0621
     10 C          -0.9270   -0.5315   -1.8851 C.3     1  LIG1       -0.0397
     11 H          -0.3119   -1.3926   -2.1610 H       1  LIG1        0.0278
     12 H          -1.1777    0.0011   -2.8110 H       1  LIG1        0.0278
     13 H          -1.8652   -0.9044   -1.4630 H       1  LIG1        0.0278
     14 C           1.8033    2.9698    1.7999 C.1     1  LIG1       -0.0691
     15 C           2.3189    3.7119    2.6054 C.1     1  LIG1       -0.1139
     16 H           2.7835    4.3532    3.3181 H       1  LIG1        0.1232
     17 C           4.1776    2.2576   -0.5038 C.ar    1  LIG1       -0.0421
     18 C           5.5688    2.1133   -0.4755 C.ar    1  LIG1       -0.0494
     19 C           3.3866    1.2091    0.0145 C.ar    1  LIG1       -0.0126
     20 C           6.2116    0.9809    0.0359 C.ar    1  LIG1       -0.0019
     21 H           6.1845    2.9111   -0.8820 H       1  LIG1        0.0627
     22 C           4.0132    0.0705    0.5242 C.ar    1  LIG1       -0.0377
     23 C           5.4123   -0.0646    0.5525 C.ar    1  LIG1        0.0330
     24 H           3.4061   -0.7324    0.9294 H       1  LIG1        0.0636
     25 C           3.5627    3.5033   -1.0934 C.3     1  LIG1       -0.0391
     26 H           3.1376    4.1395   -0.3099 H       1  LIG1        0.0278
     27 H           2.7508    3.2603   -1.7861 H       1  LIG1        0.0278
     28 H           4.3109    4.0883   -1.6344 H       1  LIG1        0.0278
     29 C           5.9833   -1.2425    1.1282 C.1     1  LIG1       -0.0690
     30 C           6.4342   -2.2512    1.6231 C.1     1  LIG1       -0.1139
     31 H           6.8404   -3.1299    2.0676 H       1  LIG1        0.1232
     32 C           8.4369    0.0677   -0.8019 C.ar    1  LIG1       -0.0421
     33 C           9.8339    0.1097   -0.7420 C.ar    1  LIG1       -0.0494
     34 C           7.7053    0.9289    0.0449 C.ar    1  LIG1       -0.0126
     35 C          10.5394    0.9601    0.1156 C.ar    1  LIG1       -0.0019
     36 H          10.4039   -0.5488   -1.3920 H       1  LIG1        0.0627
     37 C           8.3957    1.8021    0.8880 C.ar    1  LIG1       -0.0377
     38 C           9.7999    1.8363    0.9430 C.ar    1  LIG1        0.0330
     39 H           7.8348    2.4775    1.5256 H       1  LIG1        0.0636
     40 C           7.7555   -0.8711   -1.7674 C.3     1  LIG1       -0.0391
     41 H           8.4698   -1.2669   -2.4941 H       1  LIG1        0.0278
     42 H           6.9522   -0.3684   -2.3150 H       1  LIG1        0.0278
     43 H           7.3046   -1.7185   -1.2402 H       1  LIG1        0.0278
     44 C          10.4372    2.7784    1.8097 C.1     1  LIG1       -0.0690
     45 C          10.9459    3.5892    2.5509 C.1     1  LIG1       -0.1139
     46 H          11.4051    4.3056    3.1917 H       1  LIG1        0.1232
     47 C          12.7931    0.4319    1.1718 C.ar    1  LIG1       -0.0426
     48 C          14.1891    0.4281    1.0554 C.ar    1  LIG1       -0.0571
     49 C          12.0343    0.9448    0.0953 C.ar    1  LIG1       -0.0126
     50 C          14.8365    0.9084   -0.0774 C.ar    1  LIG1       -0.0461
     51 H          14.7816    0.0298    1.8748 H       1  LIG1        0.0621
     52 C          12.6854    1.4144   -1.0492 C.ar    1  LIG1       -0.0383
     53 C          14.0868    1.4090   -1.1544 C.ar    1  LIG1        0.0253
     54 H          12.0964    1.8021   -1.8739 H       1  LIG1        0.0636
     55 H          15.9196    0.8933   -0.1407 H       1  LIG1        0.0630
     56 C          12.1401   -0.1178    2.4166 C.3     1  LIG1       -0.0391
     57 H          12.8586   -0.6875    3.0122 H       1  LIG1        0.0278
     58 H          11.2992   -0.7745    2.1734 H       1  LIG1        0.0278
     59 H          11.7462    0.6889    3.0441 H       1  LIG1        0.0278
     60 C          14.7301    1.8997   -2.3328 C.1     1  LIG1       -0.0696
     61 C          15.2762    2.3140   -3.3305 C.1     1  LIG1       -0.1139
     62 H          15.7560    2.6802   -4.2081 H       1  LIG1        0.1232
@<TRIPOS>BOND
     1    62    61    1
     2    61    60    3
     3    12    10    1
     4    41    40    1
     5    60    53    1
     6    42    40    1
     7    11    10    1
     8    10    13    1
     9    10     1    1
    10    54    52    1
    11    27    25    1
    12    40    43    1
    13    40    32    1
    14    28    25    1
    15     5     2    1
    16    36    33    1
    17    53    52   ar
    18    53    50   ar
    19    25    17    1
    20    25    26    1
    21    52    49   ar
    22     1     2   ar
    23     1     3   ar
    24    21    18    1
    25     2     4   ar
    26    32    33   ar
    27    32    34   ar
    28    33    35   ar
    29    17    18   ar
    30    17    19   ar
    31    18    20   ar
    32    55    50    1
    33    50    48   ar
    34     9     3    1
    35     3     6   ar
    36     4    19    1
    37     4     7   ar
    38    19    22   ar
    39    20    34    1
    40    20    23   ar
    41    34    37   ar
    42    49    35    1
    43    49    47   ar
    44    35    38   ar
    45    22    23   ar
    46    22    24    1
    47    23    29    1
    48     6     7   ar
    49     6     8    1
    50     7    14    1
    51    37    38   ar
    52    37    39    1
    53    38    44    1
    54    48    47   ar
    55    48    51    1
    56    29    30    3
    57    47    56    1
    58    30    31    1
    59    14    15    3
    60    44    45    3
    61    58    56    1
    62    56    57    1
    63    56    59    1
    64    45    46    1
    65    15    16    1
