@<TRIPOS>MOLECULE
mol_data/opt/b3lyp/geoms/mol2/4ie4ie-4ie.out
 47 49 0 0 0
SMALL
GASTEIGER

@<TRIPOS>ATOM
      1 C          -0.1014    0.4432   -0.9455 C.ar    1  LIG1       -0.0498
      2 C           1.2959    0.4625   -0.9022 C.ar    1  LIG1       -0.0499
      3 C          -0.7996    1.2461   -0.0319 C.ar    1  LIG1       -0.0576
      4 C           2.0090    1.2489    0.0109 C.ar    1  LIG1       -0.0020
      5 H           1.8557   -0.1652   -1.5908 H       1  LIG1        0.0627
      6 C          -0.1199    2.0370    0.8841 C.ar    1  LIG1       -0.0455
      7 C           1.2882    2.0546    0.9233 C.ar    1  LIG1        0.0324
      8 H          -0.6685    2.6555    1.5870 H       1  LIG1        0.0630
      9 H          -1.8866    1.2485   -0.0383 H       1  LIG1        0.0621
     10 C          -0.8403   -0.4077   -1.9500 C.3     1  LIG1       -0.0397
     11 H          -0.1710   -1.1177   -2.4432 H       1  LIG1        0.0278
     12 H          -1.3007    0.2106   -2.7303 H       1  LIG1        0.0278
     13 H          -1.6462   -0.9769   -1.4749 H       1  LIG1        0.0278
     14 C           1.9529    2.8906    1.8745 C.1     1  LIG1       -0.0691
     15 C           2.4839    3.6122    2.6881 C.1     1  LIG1       -0.1139
     16 H           2.9672    4.2393    3.4009 H       1  LIG1        0.1232
     17 C           4.2689    1.8001   -1.0034 C.ar    1  LIG1       -0.0421
     18 C           5.6624    1.6890   -0.9421 C.ar    1  LIG1       -0.0494
     19 C           3.5038    1.2020    0.0203 C.ar    1  LIG1       -0.0126
     20 C           6.3301    1.0105    0.0824 C.ar    1  LIG1       -0.0019
     21 H           6.2589    2.1484   -1.7258 H       1  LIG1        0.0627
     22 C           4.1562    0.5394    1.0610 C.ar    1  LIG1       -0.0377
     23 C           5.5563    0.4307    1.1144 C.ar    1  LIG1        0.0330
     24 H           3.5699    0.0962    1.8589 H       1  LIG1        0.0636
     25 C           3.6230    2.5630   -2.1359 C.3     1  LIG1       -0.0391
     26 H           4.3745    3.0985   -2.7217 H       1  LIG1        0.0278
     27 H           2.8972    3.2917   -1.7614 H       1  LIG1        0.0278
     28 H           3.0797    1.8993   -2.8177 H       1  LIG1        0.0278
     29 C           6.1583   -0.2402    2.2247 C.1     1  LIG1       -0.0690
     30 C           6.6382   -0.8129    3.1771 C.1     1  LIG1       -0.1139
     31 H           7.0712   -1.3041    4.0174 H       1  LIG1        0.1232
     32 C           8.5310   -0.2355   -0.1949 C.ar    1  LIG1       -0.0426
     33 C           9.9309   -0.1874   -0.2124 C.ar    1  LIG1       -0.0571
     34 C           7.8245    0.9584    0.0744 C.ar    1  LIG1       -0.0126
     35 C          10.6315    0.9900    0.0242 C.ar    1  LIG1       -0.0461
     36 H          10.4835   -1.0988   -0.4248 H       1  LIG1        0.0621
     37 C           8.5291    2.1447    0.2989 C.ar    1  LIG1       -0.0383
     38 C           9.9340    2.1814    0.2822 C.ar    1  LIG1        0.0253
     39 H           7.9800    3.0585    0.5008 H       1  LIG1        0.0636
     40 H          11.7163    0.9987    0.0046 H       1  LIG1        0.0630
     41 C           7.8184   -1.5364   -0.4749 C.3     1  LIG1       -0.0391
     42 H           6.9934   -1.3987   -1.1806 H       1  LIG1        0.0278
     43 H           7.3908   -1.9565    0.4418 H       1  LIG1        0.0278
     44 H           8.5077   -2.2741   -0.8942 H       1  LIG1        0.0278
     45 C          10.6326    3.4056    0.5201 C.1     1  LIG1       -0.0696
     46 C          11.2252    4.4418    0.7206 C.1     1  LIG1       -0.1139
     47 H          11.7458    5.3538    0.8987 H       1  LIG1        0.1232
@<TRIPOS>BOND
     1    28    25    1
     2    12    10    1
     3    26    25    1
     4    11    10    1
     5    25    27    1
     6    25    17    1
     7    10    13    1
     8    10     1    1
     9    21    18    1
    10     5     2    1
    11    42    41    1
    12    17    18   ar
    13    17    19   ar
    14     1     2   ar
    15     1     3   ar
    16    18    20   ar
    17     2     4   ar
    18    44    41    1
    19    41    32    1
    20    41    43    1
    21    36    33    1
    22    33    32   ar
    23    33    35   ar
    24    32    34   ar
    25     9     3    1
    26     3     6   ar
    27    40    35    1
    28     4    19    1
    29     4     7   ar
    30    19    22   ar
    31    35    38   ar
    32    34    20    1
    33    34    37   ar
    34    20    23   ar
    35    38    37   ar
    36    38    45    1
    37    37    39    1
    38    45    46    3
    39    46    47    1
    40     6     7   ar
    41     6     8    1
    42     7    14    1
    43    22    23   ar
    44    22    24    1
    45    23    29    1
    46    14    15    3
    47    29    30    3
    48    15    16    1
    49    30    31    1
