@<TRIPOS>MOLECULE
mol_data/opt/b3lyp/geoms/mol2/4ie4ie-4ie-4ie-.out
 62 65 0 0 0
SMALL
GASTEIGER

@<TRIPOS>ATOM
      1 C          -0.1211    2.3255    0.9059 C.ar    1  LIG1       -0.0498
      2 C           1.2702    2.1944    0.8295 C.ar    1  LIG1       -0.0499
      3 C          -0.9052    1.5144    0.0752 C.ar    1  LIG1       -0.0576
      4 C           1.8940    1.2899   -0.0377 C.ar    1  LIG1       -0.0020
      5 H           1.8978    2.8204    1.4585 H       1  LIG1        0.0627
      6 C          -0.3149    0.6005   -0.7885 C.ar    1  LIG1       -0.0455
      7 C           1.0845    0.4688   -0.8594 C.ar    1  LIG1        0.0324
      8 H          -0.9306   -0.0306   -1.4211 H       1  LIG1        0.0630
      9 H          -1.9883    1.5979    0.1076 H       1  LIG1        0.0621
     10 C          -0.7571    3.2939    1.8735 C.3     1  LIG1       -0.0397
     11 H          -0.0763    4.1107    2.1290 H       1  LIG1        0.0278
     12 H          -1.0317    2.7922    2.8098 H       1  LIG1        0.0278
     13 H          -1.6720    3.7296    1.4605 H       1  LIG1        0.0278
     14 C           1.6491   -0.5051   -1.7413 C.1     1  LIG1       -0.0691
     15 C           2.0942   -1.3399   -2.4966 C.1     1  LIG1       -0.1139
     16 H           2.4972   -2.0788   -3.1498 H       1  LIG1        0.1232
     17 C           4.1677    1.6688   -1.1214 C.ar    1  LIG1       -0.0421
     18 C           5.5595    1.5667   -1.0243 C.ar    1  LIG1       -0.0494
     19 C           3.3865    1.1973   -0.0437 C.ar    1  LIG1       -0.0126
     20 C           6.2126    1.0259    0.0884 C.ar    1  LIG1       -0.0019
     21 H           6.1684    1.9367   -1.8448 H       1  LIG1        0.0627
     22 C           4.0239    0.6592    1.0758 C.ar    1  LIG1       -0.0377
     23 C           5.4232    0.5568    1.1634 C.ar    1  LIG1        0.0330
     24 H           3.4239    0.2901    1.9011 H       1  LIG1        0.0636
     25 C           3.5427    2.2862   -2.3484 C.3     1  LIG1       -0.0391
     26 H           2.7802    3.0246   -2.0815 H       1  LIG1        0.0278
     27 H           3.0517    1.5248   -2.9637 H       1  LIG1        0.0278
     28 H           4.2987    2.7813   -2.9633 H       1  LIG1        0.0278
     29 C           6.0028   -0.0438    2.3246 C.1     1  LIG1       -0.0690
     30 C           6.4609   -0.5579    3.3203 C.1     1  LIG1       -0.1139
     31 H           6.8728   -1.0198    4.1874 H       1  LIG1        0.1232
     32 C           8.5089    1.7475    0.9209 C.ar    1  LIG1       -0.0421
     33 C           9.8985    1.6118    0.8335 C.ar    1  LIG1       -0.0494
     34 C           7.7046    0.9371    0.0902 C.ar    1  LIG1       -0.0126
     35 C          10.5282    0.7128   -0.0336 C.ar    1  LIG1       -0.0019
     36 H          10.5243    2.2334    1.4685 H       1  LIG1        0.0627
     37 C           8.3191    0.0535   -0.7995 C.ar    1  LIG1       -0.0377
     38 C           9.7164   -0.0777   -0.8793 C.ar    1  LIG1        0.0330
     39 H           7.7025   -0.5564   -1.4515 H       1  LIG1        0.0636
     40 C           7.9122    2.7529    1.8753 C.3     1  LIG1       -0.0391
     41 H           7.4648    2.2550    2.7422 H       1  LIG1        0.0278
     42 H           7.1212    3.3385    1.3968 H       1  LIG1        0.0278
     43 H           8.6768    3.4437    2.2403 H       1  LIG1        0.0278
     44 C          10.2742   -0.9828   -1.8357 C.1     1  LIG1       -0.0690
     45 C          10.7147   -1.7550   -2.6573 C.1     1  LIG1       -0.1139
     46 H          11.1145   -2.4239   -3.3837 H       1  LIG1        0.1232
     47 C          12.7373   -0.4615    0.4285 C.ar    1  LIG1       -0.0426
     48 C          14.1370   -0.4214    0.3860 C.ar    1  LIG1       -0.0571
     49 C          12.0217    0.6520   -0.0672 C.ar    1  LIG1       -0.0126
     50 C          14.8288    0.6718   -0.1235 C.ar    1  LIG1       -0.0461
     51 H          14.6969   -1.2697    0.7708 H       1  LIG1        0.0621
     52 C          12.7181    1.7567   -0.5660 C.ar    1  LIG1       -0.0383
     53 C          14.1226    1.7853   -0.6071 C.ar    1  LIG1        0.0253
     54 H          12.1623    2.6101   -0.9404 H       1  LIG1        0.0636
     55 H          15.9136    0.6760   -0.1441 H       1  LIG1        0.0630
     56 C          12.0359   -1.6656    1.0085 C.3     1  LIG1       -0.0391
     57 H          11.5784   -2.2726    0.2200 H       1  LIG1        0.0278
     58 H          11.2342   -1.3729    1.6936 H       1  LIG1        0.0278
     59 H          12.7399   -2.2986    1.5554 H       1  LIG1        0.0278
     60 C          14.8124    2.9241   -1.1273 C.1     1  LIG1       -0.0696
     61 C          15.3980    3.8881   -1.5665 C.1     1  LIG1       -0.1139
     62 H          15.9125    4.7362   -1.9547 H       1  LIG1        0.1232
@<TRIPOS>BOND
     1    46    45    1
     2    16    15    1
     3    27    25    1
     4    28    25    1
     5    45    44    3
     6    15    14    3
     7    25    26    1
     8    25    17    1
     9    62    61    1
    10    21    18    1
    11    44    38    1
    12    14     7    1
    13    61    60    3
    14    39    37    1
    15     8     6    1
    16    60    53    1
    17    17    18   ar
    18    17    19   ar
    19    18    20   ar
    20    54    52    1
    21    38    37   ar
    22    38    35   ar
    23     7     6   ar
    24     7     4   ar
    25    37    34   ar
    26     6     3   ar
    27    53    52   ar
    28    53    50   ar
    29    52    49   ar
    30    55    50    1
    31    50    48   ar
    32    49    35    1
    33    49    47   ar
    34    19     4    1
    35    19    22   ar
    36     4     2   ar
    37    35    33   ar
    38     3     9    1
    39     3     1   ar
    40    20    34    1
    41    20    23   ar
    42    34    32   ar
    43    57    56    1
    44    48    47   ar
    45    48    51    1
    46    47    56    1
    47     2     1   ar
    48     2     5    1
    49    33    32   ar
    50    33    36    1
    51     1    10    1
    52    32    40    1
    53    56    59    1
    54    56    58    1
    55    22    23   ar
    56    22    24    1
    57    23    29    1
    58    42    40    1
    59    13    10    1
    60    10    11    1
    61    10    12    1
    62    40    43    1
    63    40    41    1
    64    29    30    3
    65    30    31    1
