@<TRIPOS>MOLECULE
mol_data/opt/b3lyp/geoms/mol2/4ie4ie4ie-4ie-.out
 62 65 0 0 0
SMALL
GASTEIGER

@<TRIPOS>ATOM
      1 C          -0.1878    0.0852   -0.4263 C.ar    1  LIG1       -0.0498
      2 C           1.2083    0.1525   -0.3791 C.ar    1  LIG1       -0.0499
      3 C          -0.9158    1.2051   -0.0003 C.ar    1  LIG1       -0.0576
      4 C           1.8927    1.2871    0.0755 C.ar    1  LIG1       -0.0020
      5 H           1.7925   -0.7064   -0.6984 H       1  LIG1        0.0627
      6 C          -0.2654    2.3474    0.4460 C.ar    1  LIG1       -0.0455
      7 C           1.1408    2.4119    0.4901 C.ar    1  LIG1        0.0324
      8 H          -0.8368    3.2136    0.7635 H       1  LIG1        0.0630
      9 H          -2.0023    1.1820   -0.0220 H       1  LIG1        0.0621
     10 C          -0.8936   -1.1504   -0.9299 C.3     1  LIG1       -0.0397
     11 H          -0.1940   -1.9751   -1.0882 H       1  LIG1        0.0278
     12 H          -1.3997   -0.9559   -1.8831 H       1  LIG1        0.0278
     13 H          -1.6597   -1.4878   -0.2234 H       1  LIG1        0.0278
     14 C           1.7683    3.6203    0.9271 C.1     1  LIG1       -0.0691
     15 C           2.2652    4.6592    1.3006 C.1     1  LIG1       -0.1139
     16 H           2.7127    5.5724    1.6179 H       1  LIG1        0.1232
     17 C           4.1434    1.2345    1.2666 C.ar    1  LIG1       -0.0421
     18 C           5.5383    1.2033    1.1650 C.ar    1  LIG1       -0.0494
     19 C           3.3878    1.2830    0.0747 C.ar    1  LIG1       -0.0126
     20 C           6.2188    1.2201   -0.0569 C.ar    1  LIG1       -0.0019
     21 H           6.1268    1.1637    2.0778 H       1  LIG1        0.0627
     22 C           4.0521    1.2751   -1.1533 C.ar    1  LIG1       -0.0377
     23 C           5.4544    1.2456   -1.2462 C.ar    1  LIG1        0.0330
     24 H           3.4720    1.2938   -2.0702 H       1  LIG1        0.0636
     25 C           3.4889    1.2004    2.6261 C.3     1  LIG1       -0.0391
     26 H           4.2112    0.9233    3.3984 H       1  LIG1        0.0278
     27 H           2.6632    0.4827    2.6553 H       1  LIG1        0.0278
     28 H           3.0736    2.1796    2.8872 H       1  LIG1        0.0278
     29 C           6.0629    1.2080   -2.5397 C.1     1  LIG1       -0.0690
     30 C           6.5468    1.1732   -3.6488 C.1     1  LIG1       -0.1139
     31 H           6.9833    1.1325   -4.6197 H       1  LIG1        0.1232
     32 C           8.5070    2.2649   -0.4543 C.ar    1  LIG1       -0.0421
     33 C           9.8984    2.1284   -0.4005 C.ar    1  LIG1       -0.0494
     34 C           7.7124    1.1646   -0.0643 C.ar    1  LIG1       -0.0126
     35 C          10.5384    0.9599    0.0255 C.ar    1  LIG1       -0.0019
     36 H          10.5170    2.9738   -0.6897 H       1  LIG1        0.0627
     37 C           8.3368   -0.0069    0.3686 C.ar    1  LIG1       -0.0377
     38 C           9.7356   -0.1363    0.4165 C.ar    1  LIG1        0.0330
     39 H           7.7270   -0.8552    0.6621 H       1  LIG1        0.0636
     40 C           7.8977    3.5707   -0.9028 C.3     1  LIG1       -0.0391
     41 H           7.0897    3.8865   -0.2355 H       1  LIG1        0.0278
     42 H           7.4681    3.4793   -1.9060 H       1  LIG1        0.0278
     43 H           8.6508    4.3626   -0.9288 H       1  LIG1        0.0278
     44 C          10.3037   -1.3811    0.8321 C.1     1  LIG1       -0.0690
     45 C          10.7533   -2.4473    1.1877 C.1     1  LIG1       -0.1139
     46 H          11.1607   -3.3853    1.4860 H       1  LIG1        0.1232
     47 C          12.7839    0.8956    1.2218 C.ar    1  LIG1       -0.0426
     48 C          14.1813    0.8699    1.1268 C.ar    1  LIG1       -0.0571
     49 C          12.0325    0.9013    0.0249 C.ar    1  LIG1       -0.0126
     50 C          14.8372    0.8514   -0.0989 C.ar    1  LIG1       -0.0461
     51 H          14.7684    0.8721    2.0415 H       1  LIG1        0.0621
     52 C          12.6929    0.8971   -1.2073 C.ar    1  LIG1       -0.0383
     53 C          14.0955    0.8681   -1.2914 C.ar    1  LIG1        0.0253
     54 H          12.1097    0.9067   -2.1222 H       1  LIG1        0.0636
     55 H          15.9212    0.8317   -0.1433 H       1  LIG1        0.0630
     56 C          12.1222    0.9328    2.5779 C.3     1  LIG1       -0.0391
     57 H          11.6638   -0.0323    2.8195 H       1  LIG1        0.0278
     58 H          11.3283    1.6850    2.6172 H       1  LIG1        0.0278
     59 H          12.8513    1.1642    3.3591 H       1  LIG1        0.0278
     60 C          14.7480    0.8589   -2.5632 C.1     1  LIG1       -0.0696
     61 C          15.3015    0.8520   -3.6397 C.1     1  LIG1       -0.1139
     62 H          15.7878    0.8444   -4.5873 H       1  LIG1        0.1232
@<TRIPOS>BOND
     1    31    30    1
     2    62    61    1
     3    30    29    3
     4    61    60    3
     5    60    53    1
     6    29    23    1
     7    54    52    1
     8    24    22    1
     9    42    40    1
    10    12    10    1
    11    53    52   ar
    12    53    50   ar
    13    23    22   ar
    14    23    20   ar
    15    52    49   ar
    16    22    19   ar
    17    11    10    1
    18    10     1    1
    19    10    13    1
    20    43    40    1
    21    40    32    1
    22    40    41    1
    23     5     2    1
    24    36    33    1
    25    32    33   ar
    26    32    34   ar
    27     1     2   ar
    28     1     3   ar
    29    33    35   ar
    30     2     4   ar
    31    55    50    1
    32    50    48   ar
    33    34    20    1
    34    34    37   ar
    35    20    18   ar
    36     9     3    1
    37     3     6   ar
    38    49    35    1
    39    49    47   ar
    40    35    38   ar
    41    19     4    1
    42    19    17   ar
    43     4     7   ar
    44    37    38   ar
    45    37    39    1
    46    38    44    1
    47     6     7   ar
    48     6     8    1
    49     7    14    1
    50    44    45    3
    51    14    15    3
    52    48    47   ar
    53    48    51    1
    54    18    17   ar
    55    18    21    1
    56    45    46    1
    57    47    56    1
    58    17    25    1
    59    15    16    1
    60    56    58    1
    61    56    57    1
    62    56    59    1
    63    25    27    1
    64    25    28    1
    65    25    26    1
