@<TRIPOS>MOLECULE
mol_data/opt/b3lyp/geoms/mol2/4ie4ie-4ie4ie-.out
 62 65 0 0 0
SMALL
GASTEIGER

@<TRIPOS>ATOM
      1 C          -0.2118    0.2482   -0.7173 C.ar    1  LIG1       -0.0498
      2 C           1.1867    0.2874   -0.6787 C.ar    1  LIG1       -0.0499
      3 C          -0.9170    1.2521   -0.0410 C.ar    1  LIG1       -0.0576
      4 C           1.8927    1.2900   -0.0038 C.ar    1  LIG1       -0.0020
      5 H           1.7542   -0.4832   -1.1940 H       1  LIG1        0.0627
      6 C          -0.2439    2.2546    0.6460 C.ar    1  LIG1       -0.0455
      7 C           1.1626    2.2926    0.6794 C.ar    1  LIG1        0.0324
      8 H          -0.7989    3.0200    1.1786 H       1  LIG1        0.0630
      9 H          -2.0038    1.2448   -0.0477 H       1  LIG1        0.0621
     10 C          -0.9369   -0.8295   -1.4864 C.3     1  LIG1       -0.0397
     11 H          -0.3261   -1.7312   -1.5849 H       1  LIG1        0.0278
     12 H          -1.1863   -0.4914   -2.5000 H       1  LIG1        0.0278
     13 H          -1.8760   -1.1058   -0.9977 H       1  LIG1        0.0278
     14 C           1.8148    3.3213    1.4284 C.1     1  LIG1       -0.0691
     15 C           2.3349    4.2044    2.0728 C.1     1  LIG1       -0.1139
     16 H           2.8040    4.9700    2.6462 H       1  LIG1        0.1232
     17 C           4.1736    2.1742   -0.7111 C.ar    1  LIG1       -0.0421
     18 C           5.5650    2.0332   -0.6710 C.ar    1  LIG1       -0.0494
     19 C           3.3874    1.2463    0.0061 C.ar    1  LIG1       -0.0126
     20 C           6.2120    1.0170    0.0396 C.ar    1  LIG1       -0.0019
     21 H           6.1769    2.7369   -1.2290 H       1  LIG1        0.0627
     22 C           4.0186    0.2242    0.7176 C.ar    1  LIG1       -0.0377
     23 C           5.4176    0.0922    0.7555 C.ar    1  LIG1        0.0330
     24 H           3.4154   -0.4848    1.2752 H       1  LIG1        0.0636
     25 C           3.5545    3.2874   -1.5206 C.3     1  LIG1       -0.0391
     26 H           3.1596    4.0739   -0.8685 H       1  LIG1        0.0278
     27 H           2.7198    2.9251   -2.1285 H       1  LIG1        0.0278
     28 H           4.2927    3.7408   -2.1872 H       1  LIG1        0.0278
     29 C           5.9953   -0.9571    1.5365 C.1     1  LIG1       -0.0690
     30 C           6.4537   -1.8550    2.2068 C.1     1  LIG1       -0.1139
     31 H           6.8685   -2.6334    2.8043 H       1  LIG1        0.1232
     32 C           8.4226   -0.0450   -0.6457 C.ar    1  LIG1       -0.0421
     33 C           9.8205   -0.0003   -0.6132 C.ar    1  LIG1       -0.0494
     34 C           7.7058    0.9594    0.0407 C.ar    1  LIG1       -0.0126
     35 C          10.5400    0.9923    0.0604 C.ar    1  LIG1       -0.0019
     36 H          10.3799   -0.7640   -1.1467 H       1  LIG1        0.0627
     37 C           8.4098    1.9598    0.7136 C.ar    1  LIG1       -0.0377
     38 C           9.8149    1.9950    0.7440 C.ar    1  LIG1        0.0330
     39 H           7.8594    2.7281    1.2467 H       1  LIG1        0.0636
     40 C           7.7232   -1.1386   -1.4157 C.3     1  LIG1       -0.0391
     41 H           8.4251   -1.6669   -2.0662 H       1  LIG1        0.0278
     42 H           6.9155   -0.7377   -2.0358 H       1  LIG1        0.0278
     43 H           7.2742   -1.8713   -0.7366 H       1  LIG1        0.0278
     44 C          10.4673    3.0280    1.4872 C.1     1  LIG1       -0.0690
     45 C          10.9891    3.9146    2.1254 C.1     1  LIG1       -0.1139
     46 H          11.4597    4.6819    2.6950 H       1  LIG1        0.1232
     47 C          12.8155    1.8693   -0.6677 C.ar    1  LIG1       -0.0426
     48 C          14.2089    1.7281   -0.6386 C.ar    1  LIG1       -0.0571
     49 C          12.0345    0.9419    0.0583 C.ar    1  LIG1       -0.0126
     50 C          14.8326    0.7118    0.0763 C.ar    1  LIG1       -0.0461
     51 H          14.8184    2.4322   -1.1990 H       1  LIG1        0.0621
     52 C          12.6615   -0.0879    0.7657 C.ar    1  LIG1       -0.0383
     53 C          14.0607   -0.2185    0.7912 C.ar    1  LIG1        0.0253
     54 H          12.0552   -0.7991    1.3170 H       1  LIG1        0.0636
     55 H          15.9142    0.6259    0.0814 H       1  LIG1        0.0630
     56 C          12.1877    2.9810   -1.4728 C.3     1  LIG1       -0.0391
     57 H          11.7976    3.7687   -0.8192 H       1  LIG1        0.0278
     58 H          11.3485    2.6175   -2.0739 H       1  LIG1        0.0278
     59 H          12.9201    3.4339   -2.1464 H       1  LIG1        0.0278
     60 C          14.6795   -1.2771    1.5259 C.1     1  LIG1       -0.0696
     61 C          15.2050   -2.1736    2.1467 C.1     1  LIG1       -0.1139
     62 H          15.6664   -2.9617    2.6948 H       1  LIG1        0.1232
@<TRIPOS>BOND
     1    12    10    1
     2    28    25    1
     3    59    56    1
     4    27    25    1
     5    58    56    1
     6    41    40    1
     7    42    40    1
     8    11    10    1
     9    25    26    1
    10    25    17    1
    11    10    13    1
    12    10     1    1
    13    56    57    1
    14    56    47    1
    15    40    43    1
    16    40    32    1
    17    21    18    1
    18    51    48    1
    19     5     2    1
    20    36    33    1
    21     1     2   ar
    22     1     3   ar
    23    17    18   ar
    24    17    19   ar
    25     2     4   ar
    26    18    20   ar
    27    47    48   ar
    28    47    49   ar
    29    32    33   ar
    30    32    34   ar
    31    48    50   ar
    32    33    35   ar
    33     9     3    1
    34     3     6   ar
    35     4    19    1
    36     4     7   ar
    37    19    22   ar
    38    20    34    1
    39    20    23   ar
    40    34    37   ar
    41    49    35    1
    42    49    52   ar
    43    35    38   ar
    44    50    55    1
    45    50    53   ar
    46     6     7   ar
    47     6     8    1
    48     7    14    1
    49    37    38   ar
    50    37    39    1
    51    22    23   ar
    52    22    24    1
    53    38    44    1
    54    23    29    1
    55    52    53   ar
    56    52    54    1
    57    53    60    1
    58    14    15    3
    59    44    45    3
    60    60    61    3
    61    29    30    3
    62    15    16    1
    63    45    46    1
    64    61    62    1
    65    30    31    1
