@<TRIPOS>MOLECULE
mol_data/opt/b3lyp/geoms/mol2/4ie4ie4ie4ie.out
 62 65 0 0 0
SMALL
GASTEIGER

@<TRIPOS>ATOM
      1 C          -0.1992    2.1373   -0.3467 C.ar    1  LIG1       -0.0498
      2 C           1.1983    2.0777   -0.3197 C.ar    1  LIG1       -0.0499
      3 C          -0.9135    0.9636   -0.0705 C.ar    1  LIG1       -0.0576
      4 C           1.8958    0.8990   -0.0288 C.ar    1  LIG1       -0.0020
      5 H           1.7725    2.9739   -0.5394 H       1  LIG1        0.0627
      6 C          -0.2495   -0.2184    0.2305 C.ar    1  LIG1       -0.0455
      7 C           1.1570   -0.2734    0.2600 C.ar    1  LIG1        0.0324
      8 H          -0.8110   -1.1200    0.4524 H       1  LIG1        0.0630
      9 H          -2.0002    0.9771   -0.0893 H       1  LIG1        0.0621
     10 C          -0.9175    3.4314   -0.6430 C.3     1  LIG1       -0.0397
     11 H          -0.2600    4.1506   -1.1388 H       1  LIG1        0.0278
     12 H          -1.2818    3.9005    0.2793 H       1  LIG1        0.0278
     13 H          -1.7881    3.2670   -1.2859 H       1  LIG1        0.0278
     14 C           1.7989   -1.5042    0.6031 C.1     1  LIG1       -0.0691
     15 C           2.3096   -2.5613    0.8989 C.1     1  LIG1       -0.1139
     16 H           2.7689   -3.4842    1.1675 H       1  LIG1        0.1232
     17 C           4.1752    0.3024   -0.9956 C.ar    1  LIG1       -0.0421
     18 C           5.5671    0.4077   -0.9032 C.ar    1  LIG1       -0.0494
     19 C           3.3906    0.9264   -0.0013 C.ar    1  LIG1       -0.0126
     20 C           6.2170    1.0968    0.1261 C.ar    1  LIG1       -0.0019
     21 H           6.1780   -0.0683   -1.6656 H       1  LIG1        0.0627
     22 C           4.0241    1.6388    1.0187 C.ar    1  LIG1       -0.0377
     23 C           5.4238    1.7370    1.1056 C.ar    1  LIG1        0.0330
     24 H           3.4215    2.1330    1.7737 H       1  LIG1        0.0636
     25 C           3.5542   -0.4521   -2.1458 C.3     1  LIG1       -0.0391
     26 H           4.2972   -0.6617   -2.9196 H       1  LIG1        0.0278
     27 H           2.7353    0.1136   -2.6009 H       1  LIG1        0.0278
     28 H           3.1373   -1.4076   -1.8099 H       1  LIG1        0.0278
     29 C           6.0011    2.5073    2.1632 C.1     1  LIG1       -0.0690
     30 C           6.4582    3.1689    3.0681 C.1     1  LIG1       -0.1139
     31 H           6.8697    3.7558    3.8562 H       1  LIG1        0.1232
     32 C           8.4946    0.4815    1.0833 C.ar    1  LIG1       -0.0421
     33 C           9.8870    0.5803    0.9883 C.ar    1  LIG1       -0.0494
     34 C           7.7100    1.1670    0.1303 C.ar    1  LIG1       -0.0126
     35 C          10.5371    1.3258   -0.0007 C.ar    1  LIG1       -0.0019
     36 H          10.4983    0.0532    1.7159 H       1  LIG1        0.0627
     37 C           8.3449    1.8958   -0.8774 C.ar    1  LIG1       -0.0377
     38 C           9.7446    1.9921   -0.9634 C.ar    1  LIG1        0.0330
     39 H           7.7429    2.4087   -1.6204 H       1  LIG1        0.0636
     40 C           7.8735   -0.3548    2.1753 C.3     1  LIG1       -0.0391
     41 H           8.6204   -1.0025    2.6417 H       1  LIG1        0.0278
     42 H           7.0665   -0.9837    1.7876 H       1  LIG1        0.0278
     43 H           7.4398    0.2784    2.9568 H       1  LIG1        0.0278
     44 C          10.3242    2.7347   -2.0393 C.1     1  LIG1       -0.0690
     45 C          10.7839    3.3684   -2.9627 C.1     1  LIG1       -0.1139
     46 H          11.2003    3.9145   -3.7770 H       1  LIG1        0.1232
     47 C          12.7676    2.5126    0.3017 C.ar    1  LIG1       -0.0426
     48 C          14.1663    2.4400    0.2750 C.ar    1  LIG1       -0.0571
     49 C          12.0318    1.3534   -0.0332 C.ar    1  LIG1       -0.0126
     50 C          14.8381    1.2719   -0.0676 C.ar    1  LIG1       -0.0461
     51 H          14.7415    3.3240    0.5377 H       1  LIG1        0.0621
     52 C          12.7078    0.1755   -0.3642 C.ar    1  LIG1       -0.0383
     53 C          14.1116    0.1144   -0.3916 C.ar    1  LIG1        0.0253
     54 H          12.1366   -0.7121   -0.6155 H       1  LIG1        0.0636
     55 H          15.9227    1.2440   -0.0802 H       1  LIG1        0.0630
     56 C          12.0870    3.8010    0.6958 C.3     1  LIG1       -0.0391
     57 H          12.8009    4.4944    1.1484 H       1  LIG1        0.0278
     58 H          11.2779    3.6258    1.4115 H       1  LIG1        0.0278
     59 H          11.6434    4.2945   -0.1757 H       1  LIG1        0.0278
     60 C          14.7805   -1.1003   -0.7388 C.1     1  LIG1       -0.0696
     61 C          15.3480   -2.1285   -1.0317 C.1     1  LIG1       -0.1139
     62 H          15.8466   -3.0333   -1.2910 H       1  LIG1        0.1232
@<TRIPOS>BOND
     1    46    45    1
     2    45    44    3
     3    26    25    1
     4    27    25    1
     5    25    28    1
     6    25    17    1
     7    44    38    1
     8    21    18    1
     9    39    37    1
    10    62    61    1
    11    13    10    1
    12    11    10    1
    13    61    60    3
    14    17    18   ar
    15    17    19   ar
    16    38    37   ar
    17    38    35   ar
    18    18    20   ar
    19    37    34   ar
    20    60    53    1
    21    10     1    1
    22    10    12    1
    23    54    52    1
    24     5     2    1
    25    53    52   ar
    26    53    50   ar
    27    52    49   ar
    28     1     2   ar
    29     1     3   ar
    30     2     4   ar
    31    59    56    1
    32     9     3    1
    33    55    50    1
    34     3     6   ar
    35    50    48   ar
    36    49    35    1
    37    49    47   ar
    38     4    19    1
    39     4     7   ar
    40    19    22   ar
    41    35    33   ar
    42    20    34    1
    43    20    23   ar
    44    34    32   ar
    45     6     7   ar
    46     6     8    1
    47     7    14    1
    48    48    47   ar
    49    48    51    1
    50    47    56    1
    51    14    15    3
    52    56    57    1
    53    56    58    1
    54    15    16    1
    55    33    32   ar
    56    33    36    1
    57    22    23   ar
    58    22    24    1
    59    32    40    1
    60    23    29    1
    61    42    40    1
    62    29    30    3
    63    40    41    1
    64    40    43    1
    65    30    31    1
