@<TRIPOS>MOLECULE
mol_data/opt/b3lyp/geoms/mol2/4ie4ie4ie4ie-.out
 62 65 0 0 0
SMALL
GASTEIGER

@<TRIPOS>ATOM
      1 C          -0.1875    1.6420   -1.0193 C.ar    1  LIG1       -0.0498
      2 C           1.2087    1.6096   -0.9468 C.ar    1  LIG1       -0.0499
      3 C          -0.9147    1.0237    0.0078 C.ar    1  LIG1       -0.0576
      4 C           1.8940    0.9820    0.1014 C.ar    1  LIG1       -0.0020
      5 H           1.7925    2.0813   -1.7328 H       1  LIG1        0.0627
      6 C          -0.2635    0.4015    1.0641 C.ar    1  LIG1       -0.0455
      7 C           1.1429    0.3698    1.1326 C.ar    1  LIG1        0.0324
      8 H          -0.8344   -0.0646    1.8605 H       1  LIG1        0.0630
      9 H          -2.0013    1.0342   -0.0193 H       1  LIG1        0.0621
     10 C          -0.8949    2.3134   -2.1713 C.3     1  LIG1       -0.0397
     11 H          -0.1904    2.8319   -2.8267 H       1  LIG1        0.0278
     12 H          -1.6271    3.0466   -1.8156 H       1  LIG1        0.0278
     13 H          -1.4418    1.5837   -2.7802 H       1  LIG1        0.0278
     14 C           1.7712   -0.2542    2.2554 C.1     1  LIG1       -0.0691
     15 C           2.2699   -0.7896    3.2199 C.1     1  LIG1       -0.1139
     16 H           2.7188   -1.2497    4.0694 H       1  LIG1        0.1232
     17 C           4.1686   -0.1392   -0.1320 C.ar    1  LIG1       -0.0421
     18 C           5.5614   -0.0081   -0.1291 C.ar    1  LIG1       -0.0494
     19 C           3.3888    1.0118    0.1142 C.ar    1  LIG1       -0.0126
     20 C           6.2167    1.2045    0.1090 C.ar    1  LIG1       -0.0019
     21 H           6.1686   -0.8890   -0.3195 H       1  LIG1        0.0627
     22 C           4.0280    2.2345    0.3286 C.ar    1  LIG1       -0.0377
     23 C           5.4285    2.3566    0.3330 C.ar    1  LIG1        0.0330
     24 H           3.4293    3.1229    0.5010 H       1  LIG1        0.0636
     25 C           3.5420   -1.4843   -0.4073 C.3     1  LIG1       -0.0391
     26 H           4.2831   -2.1854   -0.8000 H       1  LIG1        0.0278
     27 H           2.7262   -1.4058   -1.1325 H       1  LIG1        0.0278
     28 H           3.1197   -1.9156    0.5066 H       1  LIG1        0.0278
     29 C           6.0120    3.6468    0.5325 C.1     1  LIG1       -0.0690
     30 C           6.4745    4.7528    0.7012 C.1     1  LIG1       -0.1139
     31 H           6.8905    5.7235    0.8407 H       1  LIG1        0.1232
     32 C           8.4849    1.4392    1.2417 C.ar    1  LIG1       -0.0421
     33 C           9.8785    1.4316    1.1185 C.ar    1  LIG1       -0.0494
     34 C           7.7104    1.2473    0.0767 C.ar    1  LIG1       -0.0126
     35 C          10.5395    1.2466   -0.1002 C.ar    1  LIG1       -0.0019
     36 H          10.4819    1.5751    2.0108 H       1  LIG1        0.0627
     37 C           8.3561    1.0378   -1.1435 C.ar    1  LIG1       -0.0377
     38 C           9.7570    1.0349   -1.2585 C.ar    1  LIG1        0.0330
     39 H           7.7619    0.8733   -2.0364 H       1  LIG1        0.0636
     40 C           7.8516    1.6337    2.5977 C.3     1  LIG1       -0.0391
     41 H           8.5898    1.5062    3.3938 H       1  LIG1        0.0278
     42 H           7.0382    0.9212    2.7654 H       1  LIG1        0.0278
     43 H           7.4234    2.6375    2.6913 H       1  LIG1        0.0278
     44 C          10.3478    0.7871   -2.5370 C.1     1  LIG1       -0.0690
     45 C          10.8170    0.5723   -3.6321 C.1     1  LIG1       -0.1139
     46 H          11.2417    0.3741   -4.5888 H       1  LIG1        0.1232
     47 C          12.7837    2.2805   -0.7083 C.ar    1  LIG1       -0.0426
     48 C          14.1814    2.2006   -0.6612 C.ar    1  LIG1       -0.0571
     49 C          12.0345    1.2323   -0.1276 C.ar    1  LIG1       -0.0126
     50 C          14.8396    1.1306   -0.0654 C.ar    1  LIG1       -0.0461
     51 H          14.7669    3.0050   -1.0987 H       1  LIG1        0.0621
     52 C          12.6967    0.1636    0.4834 C.ar    1  LIG1       -0.0383
     53 C          14.0998    0.0912    0.5218 C.ar    1  LIG1        0.0253
     54 H          12.1152   -0.6354    0.9315 H       1  LIG1        0.0636
     55 H          15.9238    1.0943   -0.0433 H       1  LIG1        0.0630
     56 C          12.1179    3.4718   -1.3532 C.3     1  LIG1       -0.0391
     57 H          11.3075    3.8648   -0.7316 H       1  LIG1        0.0278
     58 H          11.6792    3.2021   -2.3199 H       1  LIG1        0.0278
     59 H          12.8398    4.2750   -1.5234 H       1  LIG1        0.0278
     60 C          14.7544   -1.0148    1.1475 C.1     1  LIG1       -0.0696
     61 C          15.3099   -1.9504    1.6779 C.1     1  LIG1       -0.1139
     62 H          15.7978   -2.7748    2.1436 H       1  LIG1        0.1232
@<TRIPOS>BOND
     1    46    45    1
     2    45    44    3
     3    11    10    1
     4    13    10    1
     5    44    38    1
     6    58    56    1
     7    10    12    1
     8    10     1    1
     9    39    37    1
    10     5     2    1
    11    59    56    1
    12    56    57    1
    13    56    47    1
    14    38    37   ar
    15    38    35   ar
    16    37    34   ar
    17    27    25    1
    18    51    48    1
    19     1     2   ar
    20     1     3   ar
    21     2     4   ar
    22    26    25    1
    23    47    48   ar
    24    47    49   ar
    25    48    50   ar
    26    25    17    1
    27    25    28    1
    28    21    18    1
    29    17    18   ar
    30    17    19   ar
    31    18    20   ar
    32    49    35    1
    33    49    52   ar
    34    35    33   ar
    35    50    55    1
    36    50    53   ar
    37     9     3    1
    38     3     6   ar
    39    34    20    1
    40    34    32   ar
    41     4    19    1
    42     4     7   ar
    43    20    23   ar
    44    19    22   ar
    45    22    23   ar
    46    22    24    1
    47    23    29    1
    48    52    53   ar
    49    52    54    1
    50    53    60    1
    51    29    30    3
    52    30    31    1
    53     6     7   ar
    54     6     8    1
    55    33    32   ar
    56    33    36    1
    57     7    14    1
    58    60    61    3
    59    32    40    1
    60    61    62    1
    61    14    15    3
    62    40    43    1
    63    40    42    1
    64    40    41    1
    65    15    16    1
