@<TRIPOS>MOLECULE
mol_data/opt/b3lyp/geoms/mol2/4ie4ie4ie-4ie.out
 62 65 0 0 0
SMALL
GASTEIGER

@<TRIPOS>ATOM
      1 C          -0.1727    1.4171   -1.2633 C.ar    1  LIG1       -0.0498
      2 C           1.2230    1.3698   -1.1707 C.ar    1  LIG1       -0.0499
      3 C          -0.9173    1.1883   -0.0989 C.ar    1  LIG1       -0.0576
      4 C           1.8884    1.1051    0.0319 C.ar    1  LIG1       -0.0020
      5 H           1.8207    1.5355   -2.0633 H       1  LIG1        0.0627
      6 C          -0.2847    0.9332    1.1113 C.ar    1  LIG1       -0.0455
      7 C           1.1192    0.8893    1.2008 C.ar    1  LIG1        0.0324
      8 H          -0.8699    0.7667    2.0098 H       1  LIG1        0.0630
      9 H          -2.0031    1.2125   -0.1404 H       1  LIG1        0.0621
     10 C          -0.8536    1.7290   -2.5740 C.3     1  LIG1       -0.0397
     11 H          -0.2221    1.4643   -3.4266 H       1  LIG1        0.0278
     12 H          -1.0810    2.7993   -2.6555 H       1  LIG1        0.0278
     13 H          -1.8004    1.1892   -2.6707 H       1  LIG1        0.0278
     14 C           1.7301    0.6509    2.4714 C.1     1  LIG1       -0.0691
     15 C           2.2150    0.4487    3.5621 C.1     1  LIG1       -0.1139
     16 H           2.6537    0.2831    4.5187 H       1  LIG1        0.1232
     17 C           4.1230   -0.1049    0.1944 C.ar    1  LIG1       -0.0421
     18 C           5.5195   -0.0268    0.1622 C.ar    1  LIG1       -0.0494
     19 C           3.3837    1.0891    0.0480 C.ar    1  LIG1       -0.0126
     20 C           6.2159    1.1737   -0.0119 C.ar    1  LIG1       -0.0019
     21 H           6.0956   -0.9426    0.2632 H       1  LIG1        0.0627
     22 C           4.0645    2.2950   -0.1297 C.ar    1  LIG1       -0.0377
     23 C           5.4683    2.3649   -0.1563 C.ar    1  LIG1        0.0330
     24 H           3.4973    3.2140   -0.2344 H       1  LIG1        0.0636
     25 C           3.4490   -1.4442    0.3662 C.3     1  LIG1       -0.0391
     26 H           4.1624   -2.2602    0.2244 H       1  LIG1        0.0278
     27 H           2.6303   -1.5760   -0.3480 H       1  LIG1        0.0278
     28 H           3.0193   -1.5413    1.3691 H       1  LIG1        0.0278
     29 C           6.0973    3.6408   -0.3027 C.1     1  LIG1       -0.0690
     30 C           6.5994    4.7352   -0.4271 C.1     1  LIG1       -0.1139
     31 H           7.0525    5.6947   -0.5228 H       1  LIG1        0.1232
     32 C           8.4679    1.3864   -1.1817 C.ar    1  LIG1       -0.0421
     33 C           9.8625    1.3246   -1.0900 C.ar    1  LIG1       -0.0494
     34 C           7.7107    1.1607   -0.0113 C.ar    1  LIG1       -0.0126
     35 C          10.5406    1.0449    0.1009 C.ar    1  LIG1       -0.0019
     36 H          10.4525    1.4880   -1.9879 H       1  LIG1        0.0627
     37 C           8.3731    0.8751    1.1841 C.ar    1  LIG1       -0.0377
     38 C           9.7752    0.8181    1.2677 C.ar    1  LIG1        0.0330
     39 H           7.7919    0.7077    2.0850 H       1  LIG1        0.0636
     40 C           7.8141    1.6712   -2.5118 C.3     1  LIG1       -0.0391
     41 H           7.4056    2.6871   -2.5390 H       1  LIG1        0.0278
     42 H           6.9833    0.9852   -2.7043 H       1  LIG1        0.0278
     43 H           8.5345    1.5750   -3.3283 H       1  LIG1        0.0278
     44 C          10.3852    0.5583    2.5348 C.1     1  LIG1       -0.0690
     45 C          10.8709    0.3369    3.6213 C.1     1  LIG1       -0.1139
     46 H          11.3105    0.1564    4.5747 H       1  LIG1        0.1232
     47 C          12.7692   -0.1766    0.2363 C.ar    1  LIG1       -0.0426
     48 C          14.1677   -0.1065    0.1976 C.ar    1  LIG1       -0.0571
     49 C          12.0358    1.0242    0.1047 C.ar    1  LIG1       -0.0126
     50 C          14.8415    1.0987    0.0346 C.ar    1  LIG1       -0.0461
     51 H          14.7409   -1.0251    0.2913 H       1  LIG1        0.0621
     52 C          12.7135    2.2339   -0.0730 C.ar    1  LIG1       -0.0383
     53 C          14.1173    2.2937   -0.1067 C.ar    1  LIG1        0.0253
     54 H          12.1437    3.1513   -0.1781 H       1  LIG1        0.0636
     55 H          15.9260    1.1240    0.0082 H       1  LIG1        0.0630
     56 C          12.0860   -1.5126    0.3999 C.3     1  LIG1       -0.0391
     57 H          12.7929   -2.3319    0.2439 H       1  LIG1        0.0278
     58 H          11.2615   -1.6320   -0.3098 H       1  LIG1        0.0278
     59 H          11.6631   -1.6181    1.4049 H       1  LIG1        0.0278
     60 C          14.7884    3.5432   -0.2843 C.1     1  LIG1       -0.0696
     61 C          15.3582    4.6004   -0.4356 C.1     1  LIG1       -0.1139
     62 H          15.8587    5.5314   -0.5670 H       1  LIG1        0.1232
@<TRIPOS>BOND
     1    11    10    1
     2    43    40    1
     3    42    40    1
     4    13    10    1
     5    12    10    1
     6    10     1    1
     7    41    40    1
     8    40    32    1
     9     5     2    1
    10    36    33    1
    11     1     2   ar
    12     1     3   ar
    13    32    33   ar
    14    32    34   ar
    15     2     4   ar
    16    33    35   ar
    17    62    61    1
    18    31    30    1
    19    61    60    3
    20    30    29    3
    21    27    25    1
    22    58    56    1
    23    29    23    1
    24    60    53    1
    25    24    22    1
    26    54    52    1
    27    23    22   ar
    28    23    20   ar
    29     9     3    1
    30    22    19   ar
    31    53    52   ar
    32    53    50   ar
    33     3     6   ar
    34    52    49   ar
    35    20    34    1
    36    20    18   ar
    37    34    37   ar
    38    55    50    1
    39     4    19    1
    40     4     7   ar
    41    50    48   ar
    42    19    17   ar
    43    35    49    1
    44    35    38   ar
    45    49    47   ar
    46    18    17   ar
    47    18    21    1
    48    17    25    1
    49    48    47   ar
    50    48    51    1
    51    26    25    1
    52    47    56    1
    53    57    56    1
    54    25    28    1
    55    56    59    1
    56     6     7   ar
    57     6     8    1
    58    37    38   ar
    59    37    39    1
    60     7    14    1
    61    38    44    1
    62    14    15    3
    63    44    45    3
    64    15    16    1
    65    45    46    1
