@<TRIPOS>MOLECULE
mol_data/opt/b3lyp/geoms/mol2/4ie4ie4ie.out
 47 49 0 0 0
SMALL
GASTEIGER

@<TRIPOS>ATOM
      1 C          -0.0634    1.2737   -1.2160 C.ar    1  LIG1       -0.0498
      2 C           1.3318    1.3077   -1.1189 C.ar    1  LIG1       -0.0499
      3 C          -0.7906    0.8373   -0.1003 C.ar    1  LIG1       -0.0576
      4 C           2.0150    0.9251    0.0420 C.ar    1  LIG1       -0.0020
      5 H           1.9160    1.6344   -1.9752 H       1  LIG1        0.0627
      6 C          -0.1416    0.4611    1.0682 C.ar    1  LIG1       -0.0455
      7 C           1.2627    0.4998    1.1630 C.ar    1  LIG1        0.0324
      8 H          -0.7133    0.1341    1.9306 H       1  LIG1        0.0630
      9 H          -1.8757    0.7946   -0.1473 H       1  LIG1        0.0621
     10 C          -0.7672    1.7130   -2.4771 C.3     1  LIG1       -0.0397
     11 H          -0.0825    1.7421   -3.3290 H       1  LIG1        0.0278
     12 H          -1.1925    2.7176   -2.3620 H       1  LIG1        0.0278
     13 H          -1.5940    1.0408   -2.7282 H       1  LIG1        0.0278
     14 C           1.8872    0.1315    2.3956 C.1     1  LIG1       -0.0691
     15 C           2.3811   -0.1855    3.4545 C.1     1  LIG1       -0.1139
     16 H           2.8262   -0.4527    4.3848 H       1  LIG1        0.1232
     17 C           4.3282   -0.1397    0.0683 C.ar    1  LIG1       -0.0421
     18 C           5.7159    0.0380    0.0665 C.ar    1  LIG1       -0.0494
     19 C           3.5075    1.0093    0.0697 C.ar    1  LIG1       -0.0126
     20 C           6.3277    1.2958    0.0695 C.ar    1  LIG1       -0.0019
     21 H           6.3545   -0.8413    0.0626 H       1  LIG1        0.0627
     22 C           4.1033    2.2718    0.0470 C.ar    1  LIG1       -0.0377
     23 C           5.4988    2.4411    0.0489 C.ar    1  LIG1        0.0330
     24 H           3.4736    3.1553    0.0306 H       1  LIG1        0.0636
     25 C           3.7499   -1.5336    0.0552 C.3     1  LIG1       -0.0391
     26 H           4.5185   -2.2711   -0.1900 H       1  LIG1        0.0278
     27 H           2.9409   -1.6251   -0.6760 H       1  LIG1        0.0278
     28 H           3.3308   -1.7946    1.0329 H       1  LIG1        0.0278
     29 C           6.0371    3.7650   -0.0010 C.1     1  LIG1       -0.0690
     30 C           6.4611    4.8980   -0.0465 C.1     1  LIG1       -0.1139
     31 H           6.8462    5.8900   -0.0963 H       1  LIG1        0.1232
     32 C           8.5571    1.8277    1.1728 C.ar    1  LIG1       -0.0426
     33 C           9.9546    1.8521    1.0795 C.ar    1  LIG1       -0.0571
     34 C           7.8201    1.3853    0.0509 C.ar    1  LIG1       -0.0126
     35 C          10.6240    1.4565   -0.0732 C.ar    1  LIG1       -0.0461
     36 H          10.5309    2.1844    1.9390 H       1  LIG1        0.0621
     37 C           8.4942    0.9743   -1.1026 C.ar    1  LIG1       -0.0383
     38 C           9.8967    1.0061   -1.1870 C.ar    1  LIG1        0.0253
     39 H           7.9222    0.6310   -1.9584 H       1  LIG1        0.0636
     40 H          11.7077    1.4858   -0.1181 H       1  LIG1        0.0630
     41 C           7.8797    2.2520    2.4532 C.3     1  LIG1       -0.0391
     42 H           8.6040    2.3281    3.2686 H       1  LIG1        0.0278
     43 H           7.1016    1.5422    2.7509 H       1  LIG1        0.0278
     44 H           7.3967    3.2282    2.3385 H       1  LIG1        0.0278
     45 C          10.5636    0.5865   -2.3798 C.1     1  LIG1       -0.0696
     46 C          11.1297    0.2306   -3.3887 C.1     1  LIG1       -0.1139
     47 H          11.6273   -0.0811   -4.2774 H       1  LIG1        0.1232
@<TRIPOS>BOND
     1    47    46    1
     2    46    45    3
     3    11    10    1
     4    13    10    1
     5    10    12    1
     6    10     1    1
     7    45    38    1
     8     5     2    1
     9    39    37    1
    10     1     2   ar
    11     1     3   ar
    12    38    37   ar
    13    38    35   ar
    14     2     4   ar
    15    37    34   ar
    16    27    25    1
    17    26    25    1
    18     9     3    1
    19    40    35    1
    20     3     6   ar
    21    31    30    1
    22    35    33   ar
    23    30    29    3
    24    29    23    1
    25    24    22    1
    26     4    19    1
    27     4     7   ar
    28    22    23   ar
    29    22    19   ar
    30    23    20   ar
    31    34    20    1
    32    34    32   ar
    33    25    17    1
    34    25    28    1
    35    21    18    1
    36    18    17   ar
    37    18    20   ar
    38    17    19   ar
    39     6     7   ar
    40     6     8    1
    41    33    32   ar
    42    33    36    1
    43     7    14    1
    44    32    41    1
    45    44    41    1
    46    14    15    3
    47    41    43    1
    48    41    42    1
    49    15    16    1
