@<TRIPOS>MOLECULE
mol_data/opt/b3lyp/geoms/mol2/4ie6fd-6hd-13fh-.out
 51 54 0 0 0
SMALL
GASTEIGER

@<TRIPOS>ATOM
      1 C          -0.1659    0.0847   -0.4614 C.ar    1  LIG1       -0.0498
      2 C           1.2258    0.1919   -0.4073 C.ar    1  LIG1       -0.0498
      3 C          -0.9291    1.1798   -0.0279 C.ar    1  LIG1       -0.0576
      4 C           1.8776    1.3415    0.0646 C.ar    1  LIG1        0.0029
      5 H           1.8345   -0.6383   -0.7547 H       1  LIG1        0.0627
      6 C          -0.3163    2.3293    0.4480 C.ar    1  LIG1       -0.0455
      7 C           1.0879    2.4315    0.5110 C.ar    1  LIG1        0.0326
      8 H          -0.9140    3.1660    0.7941 H       1  LIG1        0.0630
      9 H          -2.0140    1.1269   -0.0612 H       1  LIG1        0.0621
     10 C          -0.8339   -1.1639   -0.9825 C.3     1  LIG1       -0.0397
     11 H          -0.1039   -1.9443   -1.2106 H       1  LIG1        0.0278
     12 H          -1.4002   -0.9565   -1.8977 H       1  LIG1        0.0278
     13 H          -1.5423   -1.5674   -0.2508 H       1  LIG1        0.0278
     14 C           1.6764    3.6193    1.0482 C.1     1  LIG1       -0.0691
     15 C           2.1580    4.6394    1.4876 C.1     1  LIG1       -0.1139
     16 H           2.5936    5.5280    1.8835 H       1  LIG1        0.1232
     17 C           4.1772    2.2908   -0.5753 C.ar    1  LIG1        0.2209
     18 C           3.3653    1.3492    0.1067 C.ar    1  LIG1        0.0459
     19 C           4.0586    0.3590    0.7937 C.ar    1  LIG1       -0.0294
     20 C           5.4609    0.2943    0.7941 C.ar    1  LIG1        0.0786
     21 C           6.1829    1.2486    0.0223 C.ar    1  LIG1        0.0954
     22 N           5.4996    2.2197   -0.6142 N.ar    1  LIG1       -0.2111
     23 H           3.5028   -0.3733    1.3702 H       1  LIG1        0.0639
     24 O           3.6760    3.3230   -1.2819 O.3     1  LIG1       -0.4920
     25 H           2.7266    3.4080   -1.1127 H       1  LIG1        0.2937
     26 N           6.4840   -1.5111    2.3480 N.1     1  LIG1       -0.1908
     27 C           6.0628   -0.6938    1.6333 C.1     1  LIG1        0.1013
     28 C           8.4017    2.4403   -0.4426 C.ar    1  LIG1        0.1262
     29 C           7.6472    1.2529   -0.1269 C.ar    1  LIG1        0.0425
     30 C           8.3967    0.0791   -0.0337 C.ar    1  LIG1       -0.0297
     31 C           9.7915    0.0639   -0.1394 C.ar    1  LIG1        0.0800
     32 C          10.4543    1.3167   -0.2888 C.ar    1  LIG1        0.1102
     33 N           9.7415    2.4435   -0.4767 N.ar    1  LIG1       -0.2289
     34 H           7.8972   -0.8734    0.0885 H       1  LIG1        0.0639
     35 N           7.8072    3.6338   -0.6792 N.pl3   1  LIG1       -0.3426
     36 H           8.4123    4.3836   -0.9740 H       1  LIG1        0.1437
     37 H           6.8173    3.6317   -0.8977 H       1  LIG1        0.1437
     38 N          10.8832   -2.2752   -0.3472 N.1     1  LIG1       -0.1908
     39 C          10.4374   -1.2067   -0.2241 C.1     1  LIG1        0.1014
     40 C          11.8850    1.5110   -0.2973 C.ar    1  LIG1        0.1101
     41 C          13.0043    0.8015    0.1563 C.ar    1  LIG1        0.1644
     42 C          14.1599    1.5931   -0.0719 C.ar    1  LIG1        0.0849
     43 C          13.7314    2.7838   -0.6456 C.ar    1  LIG1        0.0267
     44 N          12.3824    2.7244   -0.7689 N.ar    1  LIG1       -0.3549
     45 H          11.7489    3.4450   -1.0792 H       1  LIG1        0.1655
     46 H          14.2939    3.6478   -0.9695 H       1  LIG1        0.0827
     47 O          13.0422   -0.3951    0.7672 O.3     1  LIG1       -0.5031
     48 H          13.9861   -0.5471    0.9614 H       1  LIG1        0.2923
     49 N          15.4438    1.1033    0.3072 N.pl3   1  LIG1       -0.3540
     50 H          16.0473    0.9279   -0.4912 H       1  LIG1        0.1425
     51 H          15.9317    1.7321    0.9379 H       1  LIG1        0.1425
@<TRIPOS>BOND
     1    12    10    1
     2    24    25    1
     3    24    17    1
     4    11    10    1
     5    45    44    1
     6    10     1    1
     7    10    13    1
     8    36    35    1
     9    46    43    1
    10    37    35    1
    11    44    43   ar
    12    44    40   ar
    13     5     2    1
    14    35    28    1
    15    43    42   ar
    16    22    17   ar
    17    22    21   ar
    18    17    18   ar
    19    50    49    1
    20    33    28   ar
    21    33    32   ar
    22     1     2   ar
    23     1     3   ar
    24    28    29   ar
    25     2     4   ar
    26    38    39    3
    27    40    32    1
    28    40    41   ar
    29    32    31   ar
    30    39    31    1
    31    31    30   ar
    32    29    30   ar
    33    29    21    1
    34    42    41   ar
    35    42    49    1
    36     9     3    1
    37    30    34    1
    38     3     6   ar
    39    21    20   ar
    40     4    18    1
    41     4     7   ar
    42    18    19   ar
    43    41    47    1
    44    49    51    1
    45     6     7   ar
    46     6     8    1
    47     7    14    1
    48    47    48    1
    49    19    20   ar
    50    19    23    1
    51    20    27    1
    52    14    15    3
    53    15    16    1
    54    27    26    3
