@<TRIPOS>MOLECULE
mol_data/opt/b3lyp/geoms/mol2/4if.out
 16 16 0 0 0
SMALL
GASTEIGER

@<TRIPOS>ATOM
      1 C           0.0974    0.0631    0.0154 C.ar    1  LIG1       -0.0502
      2 C           1.4997    0.0843    0.0112 C.ar    1  LIG1       -0.0554
      3 C          -0.5686    1.2935    0.0132 C.ar    1  LIG1       -0.0554
      4 C           2.2138    1.2789   -0.0006 C.ar    1  LIG1       -0.0199
      5 H           2.0462   -0.8556    0.0191 H       1  LIG1        0.0621
      6 C           0.1300    2.5011    0.0014 C.ar    1  LIG1       -0.0199
      7 C           1.5274    2.4969   -0.0066 C.ar    1  LIG1        0.1169
      8 H          -0.4121    3.4448    0.0035 H       1  LIG1        0.0654
      9 H           3.2987    1.2876   -0.0006 H       1  LIG1        0.0654
     10 H          -1.6557    1.3140    0.0226 H       1  LIG1        0.0621
     11 C          -0.6655   -1.2410   -0.0053 C.3     1  LIG1       -0.0397
     12 H          -0.1094   -2.0378    0.4981 H       1  LIG1        0.0278
     13 H          -0.8582   -1.5792   -1.0314 H       1  LIG1        0.0278
     14 H          -1.6361   -1.1451    0.4911 H       1  LIG1        0.0278
     15 O           2.2736    3.6451   -0.0148 O.3     1  LIG1       -0.5068
     16 H           1.6779    4.4056   -0.0163 H       1  LIG1        0.2921
@<TRIPOS>BOND
     1    13    11    1
     2    16    15    1
     3    15     7    1
     4     7     4   ar
     5     7     6   ar
     6    11     1    1
     7    11    14    1
     8    11    12    1
     9     4     9    1
    10     4     2   ar
    11     6     8    1
    12     6     3   ar
    13     2     1   ar
    14     2     5    1
    15     3     1   ar
    16     3    10    1
