@<TRIPOS>MOLECULE
mol_data/opt/b3lyp/geoms/mol2/4if12fh13fa12fl.out
 47 50 0 0 0
SMALL
GASTEIGER

@<TRIPOS>ATOM
      1 C          -0.1178    0.0964   -0.1045 C.ar    1  LIG1       -0.0495
      2 C           1.2754    0.1083   -0.0646 C.ar    1  LIG1       -0.0445
      3 C          -0.7878    1.3251   -0.1577 C.ar    1  LIG1       -0.0554
      4 C           2.0382    1.2972   -0.0793 C.ar    1  LIG1        0.0626
      5 H           1.8082   -0.8348   -0.0178 H       1  LIG1        0.0628
      6 C          -0.0677    2.5155   -0.1759 C.ar    1  LIG1       -0.0192
      7 C           1.3285    2.5208   -0.1400 C.ar    1  LIG1        0.1276
      8 H          -0.5946    3.4678   -0.2171 H       1  LIG1        0.0654
      9 H          -1.8738    1.3555   -0.1850 H       1  LIG1        0.0621
     10 C          -0.8836   -1.2067   -0.1097 C.3     1  LIG1       -0.0397
     11 H          -0.2453   -2.0442    0.1849 H       1  LIG1        0.0278
     12 H          -1.2844   -1.4339   -1.1055 H       1  LIG1        0.0278
     13 H          -1.7348   -1.1749    0.5792 H       1  LIG1        0.0278
     14 O           2.0211    3.7068   -0.1630 O.3     1  LIG1       -0.5061
     15 H           1.3745    4.4238   -0.2005 H       1  LIG1        0.2922
     16 C           3.4839    1.1987   -0.0307 C.ar    1  LIG1        0.1824
     17 C           4.3586    0.1316   -0.0068 C.ar    1  LIG1        0.1846
     18 C           5.6899    0.6363    0.0265 C.ar    1  LIG1        0.1153
     19 C           5.5742    2.0096    0.0462 C.ar    1  LIG1        0.1796
     20 O           4.2510    2.3497    0.0125 O.2     1  LIG1       -0.4474
     21 O           4.0773   -1.1975   -0.0063 O.3     1  LIG1       -0.5020
     22 H           4.9301   -1.6314    0.1782 H       1  LIG1        0.2924
     23 N           6.8026   -0.2467    0.0546 N.pl3   1  LIG1       -0.3521
     24 H           7.1174   -0.4591   -0.8910 H       1  LIG1        0.1425
     25 H           7.5904    0.1857    0.5304 H       1  LIG1        0.1425
     26 C           6.4837    3.1146    0.1116 C.ar    1  LIG1        0.1265
     27 C           7.8609    3.2082    0.3164 C.ar    1  LIG1        0.1458
     28 C           8.2315    4.5687    0.2967 C.ar    1  LIG1        0.0091
     29 C           7.0622    5.3024    0.0854 C.ar    1  LIG1        0.0900
     30 N           6.0266    4.4135   -0.0278 N.ar    1  LIG1       -0.3463
     31 H           5.0543    4.6488   -0.1605 H       1  LIG1        0.1662
     32 O           8.6726    2.1155    0.5095 O.3     1  LIG1       -0.5045
     33 H           9.5481    2.4293    0.7668 H       1  LIG1        0.2922
     34 H           9.2195    4.9877    0.4214 H       1  LIG1        0.0677
     35 C           6.8672    6.7189   -0.0154 C.ar    1  LIG1        0.1960
     36 C           7.7201    7.7908    0.0648 C.ar    1  LIG1        0.2068
     37 C           6.9247    8.9651   -0.1170 C.ar    1  LIG1        0.2002
     38 C           5.6350    8.5519   -0.2975 C.ar    1  LIG1        0.1380
     39 O           5.5885    7.1811   -0.2373 O.2     1  LIG1       -0.4539
     40 H           4.7004    9.0577   -0.4688 H       1  LIG1        0.1069
     41 O           9.0648    7.7507    0.2766 O.3     1  LIG1       -0.5008
     42 H           9.3838    8.6646    0.2807 H       1  LIG1        0.2924
     43 O           7.4981   10.1970   -0.0888 O.3     1  LIG1       -0.4888
     44 C           6.6040   11.2868   -0.2837 C.3     1  LIG1        0.0791
     45 H           7.2028   12.1967   -0.2345 H       1  LIG1        0.0660
     46 H           6.1153   11.2203   -1.2641 H       1  LIG1        0.0660
     47 H           5.8372   11.3078    0.5011 H       1  LIG1        0.0660
@<TRIPOS>BOND
     1    46    44    1
     2    12    10    1
     3    24    23    1
     4    40    38    1
     5    38    39   ar
     6    38    37   ar
     7    44    45    1
     8    44    43    1
     9    44    47    1
    10    39    35   ar
    11     8     6    1
    12    15    14    1
    13     9     3    1
    14     6     3   ar
    15     6     7   ar
    16    14     7    1
    17    31    30    1
    18     3     1   ar
    19     7     4   ar
    20    37    43    1
    21    37    36   ar
    22    10     1    1
    23    10    11    1
    24    10    13    1
    25     1     2   ar
    26     4     2   ar
    27     4    16    1
    28     2     5    1
    29    16    17   ar
    30    16    20   ar
    31    30    29   ar
    32    30    26   ar
    33    35    36   ar
    34    35    29    1
    35    17    21    1
    36    17    18   ar
    37    21    22    1
    38    20    19   ar
    39    18    19   ar
    40    18    23    1
    41    19    26    1
    42    23    25    1
    43    36    41    1
    44    29    28   ar
    45    26    27   ar
    46    41    42    1
    47    28    27   ar
    48    28    34    1
    49    27    32    1
    50    32    33    1
