@<TRIPOS>MOLECULE
mol_data/opt/b3lyp/geoms/mol2/4if12hf6ai-13fe-4hi12al6ai13lf-.out
 100 107 0 0 0
SMALL
GASTEIGER

@<TRIPOS>ATOM
      1 C          -0.2114    0.3050   -0.5118 C.ar    1  LIG1       -0.0495
      2 C           1.1763    0.3197   -0.3531 C.ar    1  LIG1       -0.0446
      3 C          -0.8148    1.4293   -1.0859 C.ar    1  LIG1       -0.0554
      4 C           1.9842    1.4003   -0.7595 C.ar    1  LIG1        0.0608
      5 H           1.6597   -0.5233    0.1322 H       1  LIG1        0.0628
      6 C          -0.0474    2.5192   -1.4912 C.ar    1  LIG1       -0.0192
      7 C           1.3407    2.5179   -1.3427 C.ar    1  LIG1        0.1276
      8 H          -0.5306    3.3872   -1.9363 H       1  LIG1        0.0654
      9 H          -1.8934    1.4604   -1.2151 H       1  LIG1        0.0621
     10 C          -1.0312   -0.8897   -0.0825 C.3     1  LIG1       -0.0397
     11 H          -0.5237   -1.4616    0.6998 H       1  LIG1        0.0278
     12 H          -1.2148   -1.5746   -0.9203 H       1  LIG1        0.0278
     13 H          -2.0087   -0.5856    0.3047 H       1  LIG1        0.0278
     14 O           2.1045    3.5712   -1.7621 O.3     1  LIG1       -0.5061
     15 H           1.5209    4.2386   -2.1462 H       1  LIG1        0.2922
     16 C           3.4253    1.3154   -0.5805 C.ar    1  LIG1        0.1635
     17 C           4.2816    0.2298   -0.5444 C.ar    1  LIG1        0.1139
     18 C           5.5814    0.7633   -0.3129 C.ar    1  LIG1        0.1845
     19 C           5.4645    2.1316   -0.2100 C.ar    1  LIG1        0.1802
     20 O           4.1509    2.4683   -0.3884 O.2     1  LIG1       -0.4490
     21 N           4.0057   -1.1347   -0.6746 N.pl3   1  LIG1       -0.3522
     22 H           3.2529   -1.3310   -1.3245 H       1  LIG1        0.1425
     23 H           4.8391   -1.6568   -0.9224 H       1  LIG1        0.1425
     24 O           6.6938   -0.0348   -0.2596 O.3     1  LIG1       -0.5020
     25 H           7.4579    0.4738   -0.5640 H       1  LIG1        0.2924
     26 C           6.1059    4.5307   -0.3472 C.ar    1  LIG1        0.0391
     27 C           6.4212    3.1983   -0.0216 C.ar    1  LIG1        0.0394
     28 C           7.7011    2.9809    0.5180 C.ar    1  LIG1       -0.0445
     29 C           8.6227    4.0153    0.6684 C.ar    1  LIG1       -0.0222
     30 C           8.2226    5.3038    0.2317 C.ar    1  LIG1        0.0936
     31 N           6.9662    5.5323   -0.2260 N.ar    1  LIG1       -0.2524
     32 H           7.9666    1.9947    0.8908 H       1  LIG1        0.0628
     33 H           5.1144    4.7741   -0.7200 H       1  LIG1        0.0837
     34 C           9.9411    3.7365    1.3439 C.3     1  LIG1       -0.0376
     35 H          10.1551    4.4833    2.1139 H       1  LIG1        0.0278
     36 H          10.7792    3.7687    0.6443 H       1  LIG1        0.0278
     37 H           9.9215    2.7512    1.8182 H       1  LIG1        0.0278
     38 C           9.0388    6.5191    0.2699 C.ar    1  LIG1        0.1089
     39 C          10.3897    6.8564    0.2761 C.ar    1  LIG1        0.1595
     40 C          10.5071    8.2811    0.1958 C.ar    1  LIG1        0.0920
     41 C           9.1986    8.8023    0.1214 C.ar    1  LIG1        0.0680
     42 N           8.3634    7.7308    0.1758 N.ar    1  LIG1       -0.3490
     43 H           7.3676    7.7308   -0.0029 H       1  LIG1        0.1661
     44 O          11.4559    6.0161    0.3171 O.3     1  LIG1       -0.5034
     45 H          12.2514    6.5728    0.3364 H       1  LIG1        0.2923
     46 C          11.7633    8.9246    0.2924 C.1     1  LIG1       -0.0638
     47 C          12.8956    9.3540    0.3739 C.1     1  LIG1       -0.1137
     48 H          13.8649    9.7867    0.4615 H       1  LIG1        0.1232
     49 C           9.1878   11.1645   -0.7956 C.ar    1  LIG1        0.0345
     50 C           8.5636   12.4171   -0.8098 C.ar    1  LIG1       -0.0295
     51 C           8.6645   10.1663    0.0655 C.ar    1  LIG1        0.0205
     52 C           7.4493   12.7260   -0.0153 C.ar    1  LIG1        0.0221
     53 H           8.9432   13.1706   -1.4942 H       1  LIG1        0.0643
     54 C           7.5406   10.4886    0.8459 C.ar    1  LIG1       -0.0472
     55 C           6.9098   11.7306    0.8401 C.ar    1  LIG1       -0.0391
     56 H           7.1617    9.7258    1.5210 H       1  LIG1        0.0627
     57 N          10.2890   10.9375   -1.6086 N.pl3   1  LIG1       -0.3574
     58 H          10.5257    9.9706   -1.7797 H       1  LIG1        0.1423
     59 H          10.3465   11.5158   -2.4343 H       1  LIG1        0.1423
     60 C           5.7286   11.9593    1.7549 C.3     1  LIG1       -0.0390
     61 H           5.6305   11.1271    2.4574 H       1  LIG1        0.0278
     62 H           4.7894   12.0402    1.1978 H       1  LIG1        0.0278
     63 H           5.8301   12.8818    2.3340 H       1  LIG1        0.0278
     64 C           6.9323   14.0886   -0.1006 C.ar    1  LIG1        0.1396
     65 C           7.5438   15.2712   -0.4523 C.ar    1  LIG1        0.0267
     66 C           6.5430   16.2795   -0.3789 C.ar    1  LIG1        0.1663
     67 C           5.3649   15.6712    0.0170 C.ar    1  LIG1        0.1785
     68 O           5.6196   14.3288    0.1845 O.2     1  LIG1       -0.4510
     69 H           8.5866   15.3967   -0.6975 H       1  LIG1        0.0692
     70 O           6.6515   17.6116   -0.6244 O.3     1  LIG1       -0.4913
     71 C           7.9350   18.0781   -1.0200 C.3     1  LIG1        0.0790
     72 H           7.8334   19.1526   -1.1770 H       1  LIG1        0.0660
     73 H           8.6849   17.8951   -0.2404 H       1  LIG1        0.0660
     74 H           8.2618   17.6046   -1.9542 H       1  LIG1        0.0660
     75 C           2.9938   15.2678    0.6609 C.ar    1  LIG1        0.0391
     76 C           4.0213   16.1439    0.2645 C.ar    1  LIG1        0.0393
     77 C           3.6682   17.5002    0.1551 C.ar    1  LIG1       -0.0445
     78 C           2.3654   17.9379    0.3858 C.ar    1  LIG1       -0.0222
     79 C           1.3950   16.9531    0.6997 C.ar    1  LIG1        0.0937
     80 N           1.7410   15.6532    0.8645 N.ar    1  LIG1       -0.2524
     81 H           4.4331   18.2288   -0.0897 H       1  LIG1        0.0628
     82 H           3.2058   14.2130    0.8144 H       1  LIG1        0.0837
     83 C           2.0747   19.4174    0.3581 C.3     1  LIG1       -0.0376
     84 H           1.4223   19.7069    1.1866 H       1  LIG1        0.0278
     85 H           1.5570   19.7203   -0.5545 H       1  LIG1        0.0278
     86 H           3.0072   19.9838    0.4348 H       1  LIG1        0.0278
     87 C          -0.0285   17.2002    0.9522 C.ar    1  LIG1        0.1112
     88 C          -0.9866   18.1340    0.5379 C.ar    1  LIG1        0.1882
     89 C          -2.2339   17.7499    1.1056 C.ar    1  LIG1        0.1769
     90 C          -2.0285   16.5907    1.8308 C.ar    1  LIG1        0.0480
     91 N          -0.6960   16.2871    1.7393 N.ar    1  LIG1       -0.3534
     92 H          -0.2313   15.4391    2.0288 H       1  LIG1        0.1656
     93 H          -2.7146   15.9944    2.4139 H       1  LIG1        0.0845
     94 O          -0.7793   19.2169   -0.2739 O.3     1  LIG1       -0.4895
     95 C          -1.5364   19.2002   -1.4876 C.3     1  LIG1        0.0791
     96 H          -2.6117   19.2245   -1.2863 H       1  LIG1        0.0660
     97 H          -1.2476   20.0972   -2.0401 H       1  LIG1        0.0660
     98 H          -1.2981   18.3111   -2.0853 H       1  LIG1        0.0660
     99 O          -3.3903   18.4649    0.9183 O.3     1  LIG1       -0.5023
    100 H          -4.1228   17.9756    1.3132 H       1  LIG1        0.2923
@<TRIPOS>BOND
     1    59    57    1
     2    15    14    1
     3    98    95    1
     4    97    95    1
     5    74    71    1
     6     8     6    1
     7    58    57    1
     8    14     7    1
     9    57    49    1
    10    53    50    1
    11     6     7   ar
    12     6     3   ar
    13    95    96    1
    14    95    94    1
    15     7     4   ar
    16    22    21    1
    17     9     3    1
    18    72    71    1
    19     3     1   ar
    20    71    70    1
    21    71    73    1
    22    23    21    1
    23    12    10    1
    24    50    49   ar
    25    50    52   ar
    26    49    51   ar
    27     4    16    1
    28     4     2   ar
    29    33    26    1
    30    69    65    1
    31    21    17    1
    32    70    66    1
    33    16    17   ar
    34    16    20   ar
    35    25    24    1
    36    85    83    1
    37    17    18   ar
    38     1     2   ar
    39     1    10    1
    40    65    66   ar
    41    65    64   ar
    42    20    19   ar
    43    66    67   ar
    44     2     5    1
    45    26    31   ar
    46    26    27   ar
    47    18    24    1
    48    18    19   ar
    49    94    88    1
    50    31    30   ar
    51    19    27    1
    52    64    52    1
    53    64    68   ar
    54    81    77    1
    55    10    13    1
    56    10    11    1
    57    27    28   ar
    58    52    55   ar
    59    43    42    1
    60    67    68   ar
    61    67    76    1
    62    51    41    1
    63    51    54   ar
    64    41    42   ar
    65    41    40   ar
    66    77    76   ar
    67    77    78   ar
    68    42    38   ar
    69    40    39   ar
    70    40    46    1
    71    30    38    1
    72    30    29   ar
    73    76    75   ar
    74    38    39   ar
    75    39    44    1
    76    46    47    3
    77    44    45    1
    78    83    78    1
    79    83    86    1
    80    83    84    1
    81    47    48    1
    82    78    79   ar
    83    28    29   ar
    84    28    32    1
    85    88    87   ar
    86    88    89   ar
    87    36    34    1
    88    75    82    1
    89    75    80   ar
    90    29    34    1
    91    79    80   ar
    92    79    87    1
    93    55    54   ar
    94    55    60    1
    95    54    56    1
    96    99    89    1
    97    99   100    1
    98    87    91   ar
    99    89    90   ar
   100    62    60    1
   101    34    37    1
   102    34    35    1
   103    91    90   ar
   104    91    92    1
   105    60    63    1
   106    60    61    1
   107    90    93    1
