@<TRIPOS>MOLECULE
mol_data/opt/b3lyp/geoms/mol2/4if4if-4if4if-.out
 58 61 0 0 0
SMALL
GASTEIGER

@<TRIPOS>ATOM
      1 C          -0.2201    0.1288    0.3130 C.ar    1  LIG1       -0.0496
      2 C           1.1783    0.2096    0.3202 C.ar    1  LIG1       -0.0476
      3 C          -0.9257    1.1699   -0.2955 C.ar    1  LIG1       -0.0554
      4 C           1.8842    1.2778   -0.2474 C.ar    1  LIG1        0.0242
      5 H           1.7541   -0.5811    0.7947 H       1  LIG1        0.0627
      6 C          -0.2557    2.2435   -0.8807 C.ar    1  LIG1       -0.0193
      7 C           1.1391    2.3008   -0.8657 C.ar    1  LIG1        0.1246
      8 H          -0.8205    3.0416   -1.3591 H       1  LIG1        0.0654
      9 H          -2.0122    1.1469   -0.3170 H       1  LIG1        0.0621
     10 C          -0.9317   -1.0545    0.9269 C.3     1  LIG1       -0.0397
     11 H          -0.4833   -1.3404    1.8840 H       1  LIG1        0.0278
     12 H          -0.8850   -1.9350    0.2739 H       1  LIG1        0.0278
     13 H          -1.9886   -0.8355    1.1045 H       1  LIG1        0.0278
     14 O           1.8249    3.3305   -1.4563 O.3     1  LIG1       -0.5062
     15 H           1.1881    3.9380   -1.8549 H       1  LIG1        0.2922
     16 C           4.1227    2.2587    0.4746 C.ar    1  LIG1       -0.0418
     17 C           5.5151    2.1460    0.4727 C.ar    1  LIG1       -0.0470
     18 C           3.3776    1.2790   -0.2207 C.ar    1  LIG1       -0.0080
     19 C           6.2007    1.1074   -0.1724 C.ar    1  LIG1        0.0242
     20 H           6.1020    2.8820    1.0167 H       1  LIG1        0.0628
     21 C           4.0462    0.2379   -0.8734 C.ar    1  LIG1       -0.0115
     22 C           5.4383    0.1497   -0.8619 C.ar    1  LIG1        0.1251
     23 H           3.4865   -0.5096   -1.4256 H       1  LIG1        0.0660
     24 C           3.4596    3.3875    1.2274 C.3     1  LIG1       -0.0391
     25 H           2.6317    3.0253    1.8460 H       1  LIG1        0.0278
     26 H           3.0439    4.1304    0.5390 H       1  LIG1        0.0278
     27 H           4.1755    3.8914    1.8828 H       1  LIG1        0.0278
     28 O           6.0085   -0.8874   -1.5502 O.3     1  LIG1       -0.5061
     29 H           6.9693   -0.7594   -1.5474 H       1  LIG1        0.2922
     30 C           8.3945   -0.0057    0.4814 C.ar    1  LIG1       -0.0418
     31 C           9.7941    0.0220    0.4402 C.ar    1  LIG1       -0.0470
     32 C           7.6925    1.0407   -0.1595 C.ar    1  LIG1       -0.0080
     33 C          10.5338    1.0334   -0.1845 C.ar    1  LIG1        0.0242
     34 H          10.3466   -0.7701    0.9386 H       1  LIG1        0.0628
     35 C           8.4180    2.0593   -0.7937 C.ar    1  LIG1       -0.0115
     36 C           9.8129    2.0647   -0.8132 C.ar    1  LIG1        0.1251
     37 H           7.8719    2.8537   -1.2983 H       1  LIG1        0.0660
     38 C           7.6804   -1.1016    1.2423 C.3     1  LIG1       -0.0391
     39 H           8.3966   -1.7227    1.7863 H       1  LIG1        0.0278
     40 H           7.1028   -1.7564    0.5810 H       1  LIG1        0.0278
     41 H           6.9737   -0.6834    1.9666 H       1  LIG1        0.0278
     42 O          10.5172    3.0450   -1.4593 O.3     1  LIG1       -0.5061
     43 H           9.8930    3.6658   -1.8580 H       1  LIG1        0.2922
     44 C          12.8315    1.9362    0.4400 C.ar    1  LIG1       -0.0424
     45 C          14.2180    1.7633    0.3984 C.ar    1  LIG1       -0.0548
     46 C          12.0258    0.9667   -0.2017 C.ar    1  LIG1       -0.0080
     47 C          14.8156    0.6801   -0.2457 C.ar    1  LIG1       -0.0199
     48 H          14.8531    2.4940    0.8927 H       1  LIG1        0.0622
     49 C          12.6220   -0.1280   -0.8375 C.ar    1  LIG1       -0.0121
     50 C          14.0104   -0.2749   -0.8663 C.ar    1  LIG1        0.1175
     51 H          12.0091   -0.8740   -1.3323 H       1  LIG1        0.0660
     52 H          15.8989    0.5783   -0.2572 H       1  LIG1        0.0654
     53 C          12.2384    3.1159    1.1728 C.3     1  LIG1       -0.0391
     54 H          11.4185    2.8101    1.8313 H       1  LIG1        0.0278
     55 H          11.8308    3.8521    0.4726 H       1  LIG1        0.0278
     56 H          12.9957    3.6118    1.7865 H       1  LIG1        0.0278
     57 O          14.5155   -1.3702   -1.5153 O.3     1  LIG1       -0.5067
     58 H          15.4800   -1.3440   -1.4673 H       1  LIG1        0.2921
@<TRIPOS>BOND
     1    43    42    1
     2    15    14    1
     3    28    29    1
     4    28    22    1
     5    57    58    1
     6    57    50    1
     7    42    36    1
     8    14     7    1
     9    23    21    1
    10     8     6    1
    11    51    49    1
    12    37    35    1
    13     6     7   ar
    14     6     3   ar
    15    21    22   ar
    16    21    18   ar
    17    50    49   ar
    18    50    47   ar
    19     7     4   ar
    20    22    19   ar
    21    49    46   ar
    22    36    35   ar
    23    36    33   ar
    24    35    32   ar
    25     9     3    1
    26     3     1   ar
    27    52    47    1
    28     4    18    1
    29     4     2   ar
    30    47    45   ar
    31    18    16   ar
    32    46    33    1
    33    46    44   ar
    34    33    31   ar
    35    19    32    1
    36    19    17   ar
    37    32    30   ar
    38    12    10    1
    39     1     2   ar
    40     1    10    1
    41     2     5    1
    42    45    44   ar
    43    45    48    1
    44    44    53    1
    45    31    30   ar
    46    31    34    1
    47    55    53    1
    48    17    16   ar
    49    17    20    1
    50    16    24    1
    51    30    38    1
    52    26    24    1
    53    40    38    1
    54    10    13    1
    55    10    11    1
    56    53    56    1
    57    53    54    1
    58    24    25    1
    59    24    27    1
    60    38    39    1
    61    38    41    1
