@<TRIPOS>MOLECULE
mol_data/opt/b3lyp/geoms/mol2/4if4if4if-4if-.out
 58 61 0 0 0
SMALL
GASTEIGER

@<TRIPOS>ATOM
      1 C          -0.2066   -0.1449   -0.1333 C.ar    1  LIG1       -0.0496
      2 C           1.1903   -0.0543   -0.1172 C.ar    1  LIG1       -0.0476
      3 C          -0.9338    1.0488   -0.0990 C.ar    1  LIG1       -0.0554
      4 C           1.8758    1.1662   -0.0759 C.ar    1  LIG1        0.0242
      5 H           1.7788   -0.9678   -0.1499 H       1  LIG1        0.0627
      6 C          -0.2854    2.2816   -0.0607 C.ar    1  LIG1       -0.0193
      7 C           1.1101    2.3486   -0.0528 C.ar    1  LIG1        0.1246
      8 H          -0.8669    3.2013   -0.0301 H       1  LIG1        0.0654
      9 H          -2.0204    1.0202   -0.1026 H       1  LIG1        0.0621
     10 C          -0.8988   -1.4855   -0.2159 C.3     1  LIG1       -0.0397
     11 H          -0.3404   -2.2585    0.3211 H       1  LIG1        0.0278
     12 H          -1.0003   -1.8233   -1.2551 H       1  LIG1        0.0278
     13 H          -1.9055   -1.4418    0.2107 H       1  LIG1        0.0278
     14 O           1.7746    3.5460   -0.0109 O.3     1  LIG1       -0.5062
     15 H           1.1239    4.2585    0.0360 H       1  LIG1        0.2922
     16 C           4.1318    0.6381    0.9667 C.ar    1  LIG1       -0.0418
     17 C           5.5267    0.6991    0.8668 C.ar    1  LIG1       -0.0470
     18 C           3.3690    1.2046   -0.0749 C.ar    1  LIG1       -0.0080
     19 C           6.2045    1.2954   -0.2033 C.ar    1  LIG1        0.0242
     20 H           6.1264    0.2784    1.6697 H       1  LIG1        0.0628
     21 C           4.0295    1.8035   -1.1547 C.ar    1  LIG1       -0.0115
     22 C           5.4204    1.8481   -1.2311 C.ar    1  LIG1        0.1251
     23 H           3.4385    2.2394   -1.9570 H       1  LIG1        0.0660
     24 C           3.4999    0.0001    2.1843 C.3     1  LIG1       -0.0391
     25 H           4.2181   -0.0476    3.0077 H       1  LIG1        0.0278
     26 H           3.1633   -1.0251    1.9884 H       1  LIG1        0.0278
     27 H           2.6252    0.5600    2.5270 H       1  LIG1        0.0278
     28 O           6.0612    2.4056   -2.3076 O.3     1  LIG1       -0.5061
     29 H           5.3952    2.7352   -2.9251 H       1  LIG1        0.2922
     30 C           8.4570    2.4864   -0.2011 C.ar    1  LIG1       -0.0418
     31 C           9.8486    2.3748   -0.1952 C.ar    1  LIG1       -0.0470
     32 C           7.6969    1.2943   -0.2376 C.ar    1  LIG1       -0.0080
     33 C          10.5228    1.1464   -0.2266 C.ar    1  LIG1        0.0242
     34 H          10.4437    3.2843   -0.1731 H       1  LIG1        0.0628
     35 C           8.3528    0.0596   -0.2551 C.ar    1  LIG1       -0.0115
     36 C           9.7464   -0.0259   -0.2571 C.ar    1  LIG1        0.1251
     37 H           7.7814   -0.8622   -0.2828 H       1  LIG1        0.0660
     38 C           7.8106    3.8503   -0.1474 C.3     1  LIG1       -0.0391
     39 H           7.0101    3.8853    0.5991 H       1  LIG1        0.0278
     40 H           7.3618    4.1134   -1.1105 H       1  LIG1        0.0278
     41 H           8.5456    4.6188    0.1087 H       1  LIG1        0.0278
     42 O          10.2946   -1.2779   -0.2776 O.3     1  LIG1       -0.5061
     43 H          11.2596   -1.1881   -0.2871 H       1  LIG1        0.2922
     44 C          12.7950    1.5227    0.8551 C.ar    1  LIG1       -0.0424
     45 C          14.1855    1.4065    0.7600 C.ar    1  LIG1       -0.0548
     46 C          12.0150    1.0686   -0.2358 C.ar    1  LIG1       -0.0080
     47 C          14.8145    0.8572   -0.3568 C.ar    1  LIG1       -0.0199
     48 H          14.7991    1.7463    1.5905 H       1  LIG1        0.0622
     49 C          12.6467    0.5069   -1.3562 C.ar    1  LIG1       -0.0121
     50 C          14.0390    0.4013   -1.4234 C.ar    1  LIG1        0.1175
     51 H          12.0587    0.1741   -2.2060 H       1  LIG1        0.0660
     52 H          15.8991    0.7800   -0.3925 H       1  LIG1        0.0654
     53 C          12.1716    2.1027    2.1045 C.3     1  LIG1       -0.0391
     54 H          11.2900    1.5350    2.4153 H       1  LIG1        0.0278
     55 H          11.8430    3.1382    1.9591 H       1  LIG1        0.0278
     56 H          12.8899    2.1007    2.9293 H       1  LIG1        0.0278
     57 O          14.5746   -0.1512   -2.5538 O.3     1  LIG1       -0.5067
     58 H          15.5377   -0.1527   -2.4776 H       1  LIG1        0.2921
@<TRIPOS>BOND
     1    29    28    1
     2    57    58    1
     3    57    50    1
     4    28    22    1
     5    51    49    1
     6    23    21    1
     7    50    49   ar
     8    50    47   ar
     9    49    46   ar
    10    12    10    1
    11    22    21   ar
    12    22    19   ar
    13    21    18   ar
    14    40    38    1
    15    52    47    1
    16    47    45   ar
    17    43    42    1
    18    37    35    1
    19    42    36    1
    20    36    35   ar
    21    36    33   ar
    22    35    32   ar
    23    32    19    1
    24    32    30   ar
    25    46    33    1
    26    46    44   ar
    27    33    31   ar
    28    10     1    1
    29    10    13    1
    30    10    11    1
    31    19    17   ar
    32    30    31   ar
    33    30    38    1
    34    31    34    1
    35     5     2    1
    36    38    41    1
    37    38    39    1
    38     1     2   ar
    39     1     3   ar
    40     2     4   ar
    41     9     3    1
    42     3     6   ar
    43     4    18    1
    44     4     7   ar
    45    18    16   ar
    46     6     7   ar
    47     6     8    1
    48     7    14    1
    49    14    15    1
    50    45    44   ar
    51    45    48    1
    52    44    53    1
    53    17    16   ar
    54    17    20    1
    55    16    24    1
    56    55    53    1
    57    26    24    1
    58    53    54    1
    59    53    56    1
    60    24    27    1
    61    24    25    1
