@<TRIPOS>MOLECULE
mol_data/opt/b3lyp/geoms/mol2/4if4if-.out
 30 31 0 0 0
SMALL
GASTEIGER

@<TRIPOS>ATOM
      1 C          -0.0038    0.1974    0.3495 C.ar    1  LIG1       -0.0496
      2 C           1.3949    0.2536    0.3759 C.ar    1  LIG1       -0.0476
      3 C          -0.6809    1.2225   -0.3178 C.ar    1  LIG1       -0.0554
      4 C           2.1295    1.2818   -0.2293 C.ar    1  LIG1        0.0242
      5 H           1.9483   -0.5240    0.8964 H       1  LIG1        0.0627
      6 C           0.0177    2.2550   -0.9404 C.ar    1  LIG1       -0.0193
      7 C           1.4137    2.2879   -0.9055 C.ar    1  LIG1        0.1246
      8 H          -0.5244    3.0412   -1.4628 H       1  LIG1        0.0654
      9 H          -1.7673    1.2186   -0.3550 H       1  LIG1        0.0621
     10 C          -0.7501   -0.9448    0.9990 C.3     1  LIG1       -0.0397
     11 H          -0.2126   -1.3296    1.8710 H       1  LIG1        0.0278
     12 H          -0.8840   -1.7844    0.3050 H       1  LIG1        0.0278
     13 H          -1.7466   -0.6353    1.3287 H       1  LIG1        0.0278
     14 O           2.1272    3.2779   -1.5292 O.3     1  LIG1       -0.5062
     15 H           1.5087    3.8791   -1.9644 H       1  LIG1        0.2922
     16 C           4.3685    2.2561    0.4946 C.ar    1  LIG1       -0.0424
     17 C           5.7599    2.1256    0.5190 C.ar    1  LIG1       -0.0548
     18 C           3.6227    1.2600   -0.1781 C.ar    1  LIG1       -0.0080
     19 C           6.4193    1.0579   -0.0900 C.ar    1  LIG1       -0.0199
     20 H           6.3491    2.8776    1.0376 H       1  LIG1        0.0622
     21 C           4.2808    0.1815   -0.7793 C.ar    1  LIG1       -0.0121
     22 C           5.6730    0.0765   -0.7421 C.ar    1  LIG1        0.1175
     23 H           3.7141   -0.5844   -1.2981 H       1  LIG1        0.0660
     24 H           7.5046    0.9888   -0.0504 H       1  LIG1        0.0654
     25 C           3.7060    3.4211    1.1907 C.3     1  LIG1       -0.0391
     26 H           2.8628    3.0938    1.8079 H       1  LIG1        0.0278
     27 H           3.3130    4.1420    0.4665 H       1  LIG1        0.0278
     28 H           4.4170    3.9416    1.8386 H       1  LIG1        0.0278
     29 O           6.2412   -1.0061   -1.3605 O.3     1  LIG1       -0.5067
     30 H           7.2011   -0.9485   -1.2685 H       1  LIG1        0.2921
@<TRIPOS>BOND
     1    15    14    1
     2    14     7    1
     3     8     6    1
     4    29    30    1
     5    29    22    1
     6    23    21    1
     7     6     7   ar
     8     6     3   ar
     9     7     4   ar
    10    21    22   ar
    11    21    18   ar
    12    22    19   ar
    13     9     3    1
    14     3     1   ar
    15     4    18    1
    16     4     2   ar
    17    18    16   ar
    18    19    24    1
    19    19    17   ar
    20    12    10    1
    21     1     2   ar
    22     1    10    1
    23     2     5    1
    24    27    25    1
    25    16    17   ar
    26    16    25    1
    27    17    20    1
    28    10    13    1
    29    10    11    1
    30    25    26    1
    31    25    28    1
