@<TRIPOS>MOLECULE
mol_data/opt/b3lyp/geoms/mol2/4if4if-4if-4if.out
 58 61 0 0 0
SMALL
GASTEIGER

@<TRIPOS>ATOM
      1 C          -0.2107    0.5449    0.7511 C.ar    1  LIG1       -0.0496
      2 C           1.1871    0.6283    0.7200 C.ar    1  LIG1       -0.0476
      3 C          -0.9156    1.0822   -0.3293 C.ar    1  LIG1       -0.0554
      4 C           1.8932    1.2216   -0.3340 C.ar    1  LIG1        0.0242
      5 H           1.7620    0.2272    1.5510 H       1  LIG1        0.0627
      6 C          -0.2453    1.6708   -1.4006 C.ar    1  LIG1       -0.0193
      7 C           1.1492    1.7384   -1.4124 C.ar    1  LIG1        0.1246
      8 H          -0.8094    2.0767   -2.2384 H       1  LIG1        0.0654
      9 H          -2.0018    1.0422   -0.3401 H       1  LIG1        0.0621
     10 C          -0.9235   -0.1235    1.9037 C.3     1  LIG1       -0.0397
     11 H          -0.4493    0.1143    2.8613 H       1  LIG1        0.0278
     12 H          -0.9151   -1.2161    1.8026 H       1  LIG1        0.0278
     13 H          -1.9700    0.1901    1.9611 H       1  LIG1        0.0278
     14 O           1.8363    2.2885   -2.4631 O.3     1  LIG1       -0.5062
     15 H           1.2014    2.5780   -3.1313 H       1  LIG1        0.2922
     16 C           4.1227    2.4532   -0.2424 C.ar    1  LIG1       -0.0418
     17 C           5.5146    2.3662   -0.1763 C.ar    1  LIG1       -0.0470
     18 C           3.3865    1.2478   -0.3070 C.ar    1  LIG1       -0.0080
     19 C           6.2112    1.1498   -0.1755 C.ar    1  LIG1        0.0242
     20 H           6.0921    3.2860   -0.1313 H       1  LIG1        0.0628
     21 C           4.0636    0.0249   -0.2952 C.ar    1  LIG1       -0.0115
     22 C           5.4574   -0.0362   -0.2393 C.ar    1  LIG1        0.1251
     23 H           3.5100   -0.9068   -0.3454 H       1  LIG1        0.0660
     24 C           3.4500    3.8052   -0.2238 C.3     1  LIG1       -0.0391
     25 H           2.6268    3.8344    0.4980 H       1  LIG1        0.0278
     26 H           3.0271    4.0500   -1.2034 H       1  LIG1        0.0278
     27 H           4.1626    4.5899    0.0456 H       1  LIG1        0.0278
     28 O           6.0271   -1.2782   -0.2367 O.3     1  LIG1       -0.5061
     29 H           6.9903   -1.1722   -0.2122 H       1  LIG1        0.2922
     30 C           8.4310    1.5754    0.9957 C.ar    1  LIG1       -0.0418
     31 C           9.8247    1.4713    0.9643 C.ar    1  LIG1       -0.0470
     32 C           7.7027    1.0968   -0.1190 C.ar    1  LIG1       -0.0080
     33 C          10.5301    0.9033   -0.1049 C.ar    1  LIG1        0.0242
     34 H          10.3965    1.8216    1.8201 H       1  LIG1        0.0628
     35 C           8.3955    0.5333   -1.2015 C.ar    1  LIG1       -0.0115
     36 C           9.7887    0.4417   -1.2059 C.ar    1  LIG1        0.1251
     37 H           7.8551    0.1954   -2.0805 H       1  LIG1        0.0660
     38 C           7.7500    2.1645    2.2106 C.3     1  LIG1       -0.0391
     39 H           6.8771    1.5758    2.5072 H       1  LIG1        0.0278
     40 H           7.3930    3.1848    2.0300 H       1  LIG1        0.0278
     41 H           8.4407    2.2043    3.0575 H       1  LIG1        0.0278
     42 O          10.3786   -0.0974   -2.3144 O.3     1  LIG1       -0.5061
     43 H          11.3395   -0.0049   -2.2231 H       1  LIG1        0.2922
     44 C          12.7008   -0.4174   -0.0528 C.ar    1  LIG1       -0.0424
     45 C          14.1036   -0.3963   -0.0441 C.ar    1  LIG1       -0.0548
     46 C          12.0220    0.8227   -0.0942 C.ar    1  LIG1       -0.0080
     47 C          14.8317    0.7881   -0.0671 C.ar    1  LIG1       -0.0199
     48 H          14.6403   -1.3406   -0.0051 H       1  LIG1        0.0622
     49 C          12.7567    2.0190   -0.1121 C.ar    1  LIG1       -0.0121
     50 C          14.1523    2.0088   -0.0952 C.ar    1  LIG1        0.1175
     51 H          12.2203    2.9648   -0.1484 H       1  LIG1        0.0660
     52 H          15.9164    0.7857   -0.0575 H       1  LIG1        0.0654
     53 C          11.9601   -1.7343    0.0338 C.3     1  LIG1       -0.0391
     54 H          12.6600   -2.5600    0.1853 H       1  LIG1        0.0278
     55 H          11.3842   -1.9471   -0.8732 H       1  LIG1        0.0278
     56 H          11.2501   -1.7365    0.8675 H       1  LIG1        0.0278
     57 O          14.9011    3.1518   -0.1127 O.3     1  LIG1       -0.5067
     58 H          14.3110    3.9169   -0.1279 H       1  LIG1        0.2921
@<TRIPOS>BOND
     1    15    14    1
     2    14     7    1
     3    42    43    1
     4    42    36    1
     5     8     6    1
     6    37    35    1
     7     7     6   ar
     8     7     4   ar
     9     6     3   ar
    10    36    35   ar
    11    36    33   ar
    12    26    24    1
    13    35    32   ar
    14    55    53    1
    15    23    21    1
    16     9     3    1
    17     4    18    1
    18     4     2   ar
    19     3     1   ar
    20    18    21   ar
    21    18    16   ar
    22    21    22   ar
    23    16    24    1
    24    16    17   ar
    25    22    28    1
    26    22    19   ar
    27    28    29    1
    28    24    27    1
    29    24    25    1
    30    17    19   ar
    31    17    20    1
    32    19    32    1
    33    51    49    1
    34    58    57    1
    35    32    30   ar
    36    57    50    1
    37    49    50   ar
    38    49    46   ar
    39    33    46    1
    40    33    31   ar
    41    50    47   ar
    42    46    44   ar
    43    47    52    1
    44    47    45   ar
    45    44    45   ar
    46    44    53    1
    47    45    48    1
    48    53    54    1
    49    53    56    1
    50     2     1   ar
    51     2     5    1
    52     1    10    1
    53    31    30   ar
    54    31    34    1
    55    30    38    1
    56    12    10    1
    57    10    13    1
    58    10    11    1
    59    40    38    1
    60    38    39    1
    61    38    41    1
