@<TRIPOS>MOLECULE
mol_data/opt/b3lyp/geoms/mol2/4if4if-4if-4if-.out
 58 61 0 0 0
SMALL
GASTEIGER

@<TRIPOS>ATOM
      1 C          -0.1819    0.9953    1.0423 C.ar    1  LIG1       -0.0496
      2 C           1.2135    1.0732    0.9455 C.ar    1  LIG1       -0.0476
      3 C          -0.9110    0.9280   -0.1476 C.ar    1  LIG1       -0.0554
      4 C           1.8939    1.0886   -0.2782 C.ar    1  LIG1        0.0242
      5 H           1.8068    1.1350    1.8545 H       1  LIG1        0.0627
      6 C          -0.2663    0.9303   -1.3840 C.ar    1  LIG1       -0.0193
      7 C           1.1258    1.0039   -1.4561 C.ar    1  LIG1        0.1246
      8 H          -0.8486    0.8677   -2.3015 H       1  LIG1        0.0654
      9 H          -1.9960    0.8717   -0.1145 H       1  LIG1        0.0621
     10 C          -0.8650    0.9678    2.3900 C.3     1  LIG1       -0.0397
     11 H          -0.4448    1.7171    3.0691 H       1  LIG1        0.0278
     12 H          -0.7518   -0.0080    2.8786 H       1  LIG1        0.0278
     13 H          -1.9370    1.1644    2.2971 H       1  LIG1        0.0278
     14 O           1.7887    0.9810   -2.6555 O.3     1  LIG1       -0.5062
     15 H           1.1405    0.8957   -3.3668 H       1  LIG1        0.2922
     16 C           4.0942    2.2391   -0.8522 C.ar    1  LIG1       -0.0418
     17 C           5.4885    2.2144   -0.7867 C.ar    1  LIG1       -0.0470
     18 C           3.3863    1.1467   -0.3002 C.ar    1  LIG1       -0.0080
     19 C           6.2144    1.1642   -0.2078 C.ar    1  LIG1        0.0242
     20 H           6.0445    3.0453   -1.2132 H       1  LIG1        0.0628
     21 C           4.0928    0.0967    0.2938 C.ar    1  LIG1       -0.0115
     22 C           5.4883    0.0903    0.3387 C.ar    1  LIG1        0.1251
     23 H           3.5610   -0.7471    0.7207 H       1  LIG1        0.0660
     24 C           3.3895    3.4171   -1.4821 C.3     1  LIG1       -0.0391
     25 H           2.5691    3.7774   -0.8524 H       1  LIG1        0.0278
     26 H           2.9560    3.1466   -2.4503 H       1  LIG1        0.0278
     27 H           4.0842    4.2470   -1.6392 H       1  LIG1        0.0278
     28 O           6.0876   -0.9814    0.9383 O.3     1  LIG1       -0.5061
     29 H           7.0482   -0.8616    0.8862 H       1  LIG1        0.2922
     30 C           8.4428    2.1547    0.5244 C.ar    1  LIG1       -0.0418
     31 C           9.8374    2.0726    0.5017 C.ar    1  LIG1       -0.0470
     32 C           7.7075    1.1674   -0.1740 C.ar    1  LIG1       -0.0080
     33 C          10.5405    1.0638   -0.1697 C.ar    1  LIG1        0.0242
     34 H          10.4121    2.8313    1.0266 H       1  LIG1        0.0628
     35 C           8.3959    0.1449   -0.8433 C.ar    1  LIG1       -0.0115
     36 C           9.7923    0.0874   -0.8527 C.ar    1  LIG1        0.1251
     37 H           7.8493   -0.6088   -1.4019 H       1  LIG1        0.0660
     38 C           7.7707    3.2692    1.2946 C.3     1  LIG1       -0.0391
     39 H           6.8994    2.9068    1.8474 H       1  LIG1        0.0278
     40 H           7.4150    4.0707    0.6369 H       1  LIG1        0.0278
     41 H           8.4676    3.7186    2.0078 H       1  LIG1        0.0278
     42 O          10.3679   -0.9436   -1.5352 O.3     1  LIG1       -0.5061
     43 H          11.3314   -0.8537   -1.4733 H       1  LIG1        0.2922
     44 C          12.7849    0.8219    1.0040 C.ar    1  LIG1       -0.0424
     45 C          14.1792    0.7907    0.8969 C.ar    1  LIG1       -0.0548
     46 C          12.0342    1.0186   -0.1799 C.ar    1  LIG1       -0.0080
     47 C          14.8383    0.9360   -0.3232 C.ar    1  LIG1       -0.0199
     48 H          14.7715    0.6366    1.7951 H       1  LIG1        0.0622
     49 C          12.6956    1.1550   -1.4103 C.ar    1  LIG1       -0.0121
     50 C          14.0911    1.1174   -1.4876 C.ar    1  LIG1        0.1175
     51 H          12.1303    1.3266   -2.3211 H       1  LIG1        0.0660
     52 H          15.9247    0.9022   -0.3664 H       1  LIG1        0.0654
     53 C          12.1296    0.6296    2.3529 C.3     1  LIG1       -0.0391
     54 H          11.2648   -0.0372    2.2905 H       1  LIG1        0.0278
     55 H          11.7694    1.5741    2.7765 H       1  LIG1        0.0278
     56 H          12.8391    0.2021    3.0669 H       1  LIG1        0.0278
     57 O          14.6557    1.2659   -2.7230 O.3     1  LIG1       -0.5067
     58 H          15.6176    1.2322   -2.6379 H       1  LIG1        0.2921
@<TRIPOS>BOND
     1    15    14    1
     2    57    58    1
     3    57    50    1
     4    14     7    1
     5    26    24    1
     6    51    49    1
     7     8     6    1
     8    27    24    1
     9    42    43    1
    10    42    36    1
    11    50    49   ar
    12    50    47   ar
    13    24    25    1
    14    24    16    1
    15     7     6   ar
    16     7     4   ar
    17    49    46   ar
    18    37    35    1
    19     6     3   ar
    20    20    17    1
    21    36    35   ar
    22    36    33   ar
    23    16    17   ar
    24    16    18   ar
    25    35    32   ar
    26    17    19   ar
    27    52    47    1
    28    47    45   ar
    29    18     4    1
    30    18    21   ar
    31     4     2   ar
    32    19    32    1
    33    19    22   ar
    34    46    33    1
    35    46    44   ar
    36    32    30   ar
    37    33    31   ar
    38     3     9    1
    39     3     1   ar
    40    21    22   ar
    41    21    23    1
    42    22    28    1
    43    31    30   ar
    44    31    34    1
    45    30    38    1
    46    40    38    1
    47    29    28    1
    48    45    44   ar
    49    45    48    1
    50     2     1   ar
    51     2     5    1
    52    44    53    1
    53     1    10    1
    54    38    39    1
    55    38    41    1
    56    54    53    1
    57    13    10    1
    58    53    55    1
    59    53    56    1
    60    10    12    1
    61    10    11    1
