@<TRIPOS>MOLECULE
mol_data/opt/b3lyp/geoms/mol2/4if4if.out
 30 31 0 0 0
SMALL
GASTEIGER

@<TRIPOS>ATOM
      1 C          -0.0557    0.1873   -0.5116 C.ar    1  LIG1       -0.0496
      2 C           1.3430    0.2099   -0.5657 C.ar    1  LIG1       -0.0476
      3 C          -0.6916    1.1859    0.2326 C.ar    1  LIG1       -0.0554
      4 C           2.1153    1.1829    0.0803 C.ar    1  LIG1        0.0242
      5 H           1.8623   -0.5519   -1.1419 H       1  LIG1        0.0627
      6 C           0.0453    2.1715    0.8861 C.ar    1  LIG1       -0.0193
      7 C           1.4408    2.1789    0.8122 C.ar    1  LIG1        0.1246
      8 H          -0.4656    2.9394    1.4643 H       1  LIG1        0.0654
      9 H          -1.7761    1.1983    0.3052 H       1  LIG1        0.0621
     10 C          -0.8478   -0.8609   -1.2580 C.3     1  LIG1       -0.0397
     11 H          -0.3050   -1.8096   -1.3129 H       1  LIG1        0.0278
     12 H          -1.0581   -0.5488   -2.2889 H       1  LIG1        0.0278
     13 H          -1.8108   -1.0531   -0.7751 H       1  LIG1        0.0278
     14 O           2.1937    3.1313    1.4465 O.3     1  LIG1       -0.5062
     15 H           1.6009    3.7243    1.9266 H       1  LIG1        0.2922
     16 C           4.3755    0.1266    0.5389 C.ar    1  LIG1       -0.0424
     17 C           5.7660    0.1705    0.3662 C.ar    1  LIG1       -0.0548
     18 C           3.6065    1.1667   -0.0238 C.ar    1  LIG1       -0.0080
     19 C           6.3989    1.1940   -0.3314 C.ar    1  LIG1       -0.0199
     20 H           6.3722   -0.6210    0.7997 H       1  LIG1        0.0622
     21 C           4.2426    2.2043   -0.7184 C.ar    1  LIG1       -0.0121
     22 C           5.6285    2.2238   -0.8751 C.ar    1  LIG1        0.1175
     23 H           3.6399    3.0064   -1.1387 H       1  LIG1        0.0660
     24 H           7.4766    1.2146   -0.4542 H       1  LIG1        0.0654
     25 C           3.7511   -1.0019    1.3295 C.3     1  LIG1       -0.0391
     26 H           4.5159   -1.5434    1.8934 H       1  LIG1        0.0278
     27 H           3.2433   -1.7301    0.6865 H       1  LIG1        0.0278
     28 H           3.0038   -0.6339    2.0392 H       1  LIG1        0.0278
     29 O           6.2807    3.2207   -1.5510 O.3     1  LIG1       -0.5067
     30 H           5.6306    3.8691   -1.8513 H       1  LIG1        0.2921
@<TRIPOS>BOND
     1    12    10    1
     2    30    29    1
     3    29    22    1
     4    11    10    1
     5    10    13    1
     6    10     1    1
     7     5     2    1
     8    23    21    1
     9    22    21   ar
    10    22    19   ar
    11    21    18   ar
    12     2     1   ar
    13     2     4   ar
    14     1     3   ar
    15    24    19    1
    16    19    17   ar
    17    18     4    1
    18    18    16   ar
    19     4     7   ar
    20     3     9    1
    21     3     6   ar
    22    17    16   ar
    23    17    20    1
    24    16    25    1
    25    27    25    1
    26     7     6   ar
    27     7    14    1
    28     6     8    1
    29    25    26    1
    30    25    28    1
    31    14    15    1
