@<TRIPOS>MOLECULE
mol_data/opt/b3lyp/geoms/mol2/4if4if4if-4if.out
 58 61 0 0 0
SMALL
GASTEIGER

@<TRIPOS>ATOM
      1 C          -0.2315    0.1296   -0.6645 C.ar    1  LIG1       -0.0496
      2 C           1.1661    0.1707   -0.6060 C.ar    1  LIG1       -0.0476
      3 C          -0.9366    1.1647   -0.0423 C.ar    1  LIG1       -0.0554
      4 C           1.8745    1.1950    0.0355 C.ar    1  LIG1        0.0242
      5 H           1.7378   -0.6182   -1.0879 H       1  LIG1        0.0627
      6 C          -0.2657    2.2018    0.6018 C.ar    1  LIG1       -0.0193
      7 C           1.1310    2.2266    0.6415 C.ar    1  LIG1        0.1246
      8 H          -0.8301    2.9974    1.0848 H       1  LIG1        0.0654
      9 H          -2.0235    1.1650   -0.0590 H       1  LIG1        0.0621
     10 C          -0.9490   -0.9776   -1.4011 C.3     1  LIG1       -0.0397
     11 H          -0.3793   -1.9114   -1.3735 H       1  LIG1        0.0278
     12 H          -1.1043   -0.7243   -2.4575 H       1  LIG1        0.0278
     13 H          -1.9344   -1.1731   -0.9671 H       1  LIG1        0.0278
     14 O           1.8165    3.2319    1.2715 O.3     1  LIG1       -0.5062
     15 H           1.1783    3.8385    1.6692 H       1  LIG1        0.2922
     16 C           4.1090    0.1518    0.6481 C.ar    1  LIG1       -0.0418
     17 C           5.5055    0.2189    0.5818 C.ar    1  LIG1       -0.0470
     18 C           3.3678    1.1933    0.0523 C.ar    1  LIG1       -0.0080
     19 C           6.2058    1.2637   -0.0332 C.ar    1  LIG1        0.0242
     20 H           6.0887   -0.5711    1.0476 H       1  LIG1        0.0628
     21 C           4.0514    2.2471   -0.5671 C.ar    1  LIG1       -0.0115
     22 C           5.4433    2.2890   -0.6197 C.ar    1  LIG1        0.1251
     23 H           3.4773    3.0495   -1.0247 H       1  LIG1        0.0660
     24 C           3.4537   -1.0050    1.3706 C.3     1  LIG1       -0.0391
     25 H           4.1605   -1.4746    2.0606 H       1  LIG1        0.0278
     26 H           3.1085   -1.7846    0.6809 H       1  LIG1        0.0278
     27 H           2.5812   -0.6810    1.9446 H       1  LIG1        0.0278
     28 O           6.1055    3.3063   -1.2583 O.3     1  LIG1       -0.5061
     29 H           5.4519    3.9251   -1.6095 H       1  LIG1        0.2922
     30 C           8.4922    2.2221    0.5543 C.ar    1  LIG1       -0.0418
     31 C           9.8809    2.0887    0.4816 C.ar    1  LIG1       -0.0470
     32 C           7.6975    1.2397   -0.0800 C.ar    1  LIG1       -0.0080
     33 C          10.5170    1.0266   -0.1757 C.ar    1  LIG1        0.0242
     34 H          10.5058    2.8276    0.9773 H       1  LIG1        0.0628
     35 C           8.3168    0.1739   -0.7420 C.ar    1  LIG1       -0.0115
     36 C           9.7060    0.0648   -0.8009 C.ar    1  LIG1        0.1251
     37 H           7.7183   -0.5770   -1.2470 H       1  LIG1        0.0660
     38 C           7.8859    3.3762    1.3166 C.3     1  LIG1       -0.0391
     39 H           7.0763    3.0418    1.9735 H       1  LIG1        0.0278
     40 H           7.4581    4.1181    0.6347 H       1  LIG1        0.0278
     41 H           8.6396    3.8728    1.9344 H       1  LIG1        0.0278
     42 O          10.2258   -0.9969   -1.4929 O.3     1  LIG1       -0.5061
     43 H          11.1870   -0.8822   -1.5428 H       1  LIG1        0.2922
     44 C          12.7235   -0.1012    0.3940 C.ar    1  LIG1       -0.0424
     45 C          14.1216   -0.1014    0.2777 C.ar    1  LIG1       -0.0548
     46 C          12.0069    0.9392   -0.2423 C.ar    1  LIG1       -0.0080
     47 C          14.8116    0.8798   -0.4261 C.ar    1  LIG1       -0.0199
     48 H          14.6870   -0.8903    0.7670 H       1  LIG1        0.0622
     49 C          12.7042    1.9327   -0.9479 C.ar    1  LIG1       -0.0121
     50 C          14.0965    1.9111   -1.0401 C.ar    1  LIG1        0.1175
     51 H          12.1386    2.7242   -1.4350 H       1  LIG1        0.0660
     52 H          15.8936    0.8656   -0.5037 H       1  LIG1        0.0654
     53 C          12.0289   -1.1609    1.2215 C.3     1  LIG1       -0.0391
     54 H          12.7601   -1.7716    1.7576 H       1  LIG1        0.0278
     55 H          11.4180   -1.8317    0.6077 H       1  LIG1        0.0278
     56 H          11.3568   -0.7097    1.9584 H       1  LIG1        0.0278
     57 O          14.8075    2.8612   -1.7199 O.3     1  LIG1       -0.5067
     58 H          14.1933    3.5088   -2.0901 H       1  LIG1        0.2921
@<TRIPOS>BOND
     1    12    10    1
     2    58    57    1
     3    57    50    1
     4    29    28    1
     5    43    42    1
     6    42    36    1
     7    51    49    1
     8    10    11    1
     9    10    13    1
    10    10     1    1
    11    28    22    1
    12    37    35    1
    13     5     2    1
    14    50    49   ar
    15    50    47   ar
    16    23    21    1
    17    49    46   ar
    18    36    35   ar
    19    36    33   ar
    20    35    32   ar
    21     1     2   ar
    22     1     3   ar
    23    22    21   ar
    24    22    19   ar
    25     2     4   ar
    26    21    18   ar
    27    52    47    1
    28    47    45   ar
    29    46    33    1
    30    46    44   ar
    31    33    31   ar
    32    32    19    1
    33    32    30   ar
    34     9     3    1
    35     3     6   ar
    36    19    17   ar
    37     4    18    1
    38     4     7   ar
    39    18    16   ar
    40    45    44   ar
    41    45    48    1
    42    44    53    1
    43    31    30   ar
    44    31    34    1
    45    30    38    1
    46    17    16   ar
    47    17    20    1
    48     6     7   ar
    49     6     8    1
    50    55    53    1
    51    40    38    1
    52     7    14    1
    53    16    24    1
    54    26    24    1
    55    53    54    1
    56    53    56    1
    57    14    15    1
    58    38    41    1
    59    38    39    1
    60    24    27    1
    61    24    25    1
