@<TRIPOS>MOLECULE
mol_data/opt/b3lyp/geoms/mol2/4if4if4if.out
 44 46 0 0 0
SMALL
GASTEIGER

@<TRIPOS>ATOM
      1 C          -0.1841    0.5558   -0.8209 C.ar    1  LIG1       -0.0496
      2 C           1.2152    0.5340   -0.8239 C.ar    1  LIG1       -0.0476
      3 C          -0.8207    1.1429    0.2772 C.ar    1  LIG1       -0.0554
      4 C           1.9909    1.0743    0.2101 C.ar    1  LIG1        0.0242
      5 H           1.7333    0.0897   -1.6696 H       1  LIG1        0.0627
      6 C          -0.0820    1.6940    1.3218 C.ar    1  LIG1       -0.0193
      7 C           1.3149    1.6677    1.2946 C.ar    1  LIG1        0.1246
      8 H          -0.5931    2.1437    2.1712 H       1  LIG1        0.0654
      9 H          -1.9064    1.1726    0.3209 H       1  LIG1        0.0621
     10 C          -0.9751   -0.0073   -1.9788 C.3     1  LIG1       -0.0397
     11 H          -0.4449   -0.8341   -2.4610 H       1  LIG1        0.0278
     12 H          -1.1590    0.7527   -2.7488 H       1  LIG1        0.0278
     13 H          -1.9510   -0.3797   -1.6525 H       1  LIG1        0.0278
     14 O           2.0649    2.1986    2.3109 O.3     1  LIG1       -0.5062
     15 H           1.4680    2.5278    2.9956 H       1  LIG1        0.2922
     16 C           4.1986   -0.1780    0.0708 C.ar    1  LIG1       -0.0418
     17 C           5.5937   -0.1118   -0.0194 C.ar    1  LIG1       -0.0470
     18 C           3.4824    1.0349    0.1457 C.ar    1  LIG1       -0.0080
     19 C           6.3173    1.0858   -0.0397 C.ar    1  LIG1        0.0242
     20 H           6.1527   -1.0415   -0.0832 H       1  LIG1        0.0628
     21 C           4.1898    2.2435    0.1350 C.ar    1  LIG1       -0.0115
     22 C           5.5802    2.2815    0.0406 C.ar    1  LIG1        0.1251
     23 H           3.6366    3.1770    0.2088 H       1  LIG1        0.0660
     24 C           3.5218   -1.5309    0.1062 C.3     1  LIG1       -0.0391
     25 H           4.2303   -2.3045    0.4159 H       1  LIG1        0.0278
     26 H           3.1296   -1.8268   -0.8743 H       1  LIG1        0.0278
     27 H           2.6783   -1.5438    0.8019 H       1  LIG1        0.0278
     28 O           6.2648    3.4689    0.0277 O.3     1  LIG1       -0.5061
     29 H           5.6308    4.1886    0.1438 H       1  LIG1        0.2922
     30 C           8.6282    0.4554    0.8036 C.ar    1  LIG1       -0.0424
     31 C          10.0145    0.4723    0.5933 C.ar    1  LIG1       -0.0548
     32 C           7.8059    1.0829   -0.1570 C.ar    1  LIG1       -0.0080
     33 C          10.5951    1.0799   -0.5145 C.ar    1  LIG1       -0.0199
     34 H          10.6600   -0.0004    1.3295 H       1  LIG1        0.0622
     35 C           8.3913    1.7069   -1.2684 C.ar    1  LIG1       -0.0121
     36 C           9.7732    1.7087   -1.4521 C.ar    1  LIG1        0.1175
     37 H           7.7496    2.2008   -1.9941 H       1  LIG1        0.0660
     38 H          11.6701    1.0862   -0.6600 H       1  LIG1        0.0654
     39 C           8.0726   -0.2025    2.0479 C.3     1  LIG1       -0.0391
     40 H           8.8474   -0.2807    2.8163 H       1  LIG1        0.0278
     41 H           7.7059   -1.2181    1.8550 H       1  LIG1        0.0278
     42 H           7.2346    0.3619    2.4658 H       1  LIG1        0.0278
     43 O          10.3738    2.3063   -2.5288 O.3     1  LIG1       -0.5067
     44 H           9.6911    2.7151   -3.0768 H       1  LIG1        0.2921
@<TRIPOS>BOND
     1    44    43    1
     2    12    10    1
     3    43    36    1
     4    11    10    1
     5    37    35    1
     6    10    13    1
     7    10     1    1
     8     5     2    1
     9    36    35   ar
    10    36    33   ar
    11    35    32   ar
    12    26    24    1
    13     2     1   ar
    14     2     4   ar
    15     1     3   ar
    16    38    33    1
    17    33    31   ar
    18    32    19    1
    19    32    30   ar
    20    20    17    1
    21    19    17   ar
    22    19    22   ar
    23    17    16   ar
    24    28    22    1
    25    28    29    1
    26    22    21   ar
    27    16    24    1
    28    16    18   ar
    29    24    25    1
    30    24    27    1
    31    21    18   ar
    32    21    23    1
    33    18     4    1
    34     4     7   ar
    35     3     9    1
    36     3     6   ar
    37    31    30   ar
    38    31    34    1
    39    30    39    1
    40     7     6   ar
    41     7    14    1
    42     6     8    1
    43    41    39    1
    44    39    42    1
    45    39    40    1
    46    14    15    1
