@<TRIPOS>MOLECULE
mol_data/opt/b3lyp/geoms/mol2/4if4if4if4if.out
 58 61 0 0 0
SMALL
GASTEIGER

@<TRIPOS>ATOM
      1 C          -0.2854    1.1348   -0.8886 C.ar    1  LIG1       -0.0496
      2 C           1.1131    1.0698   -0.8844 C.ar    1  LIG1       -0.0476
      3 C          -0.9416    1.0544    0.3432 C.ar    1  LIG1       -0.0554
      4 C           1.8675    0.9365    0.2879 C.ar    1  LIG1        0.0242
      5 H           1.6471    1.1366   -1.8289 H       1  LIG1        0.0627
      6 C          -0.2234    0.9247    1.5304 C.ar    1  LIG1       -0.0193
      7 C           1.1724    0.8690    1.5118 C.ar    1  LIG1        0.1246
      8 H          -0.7503    0.8593    2.4805 H       1  LIG1        0.0654
      9 H          -2.0271    1.0936    0.3810 H       1  LIG1        0.0621
     10 C          -1.0518    1.3151   -2.1783 C.3     1  LIG1       -0.0397
     11 H          -0.5807    0.7727   -3.0041 H       1  LIG1        0.0278
     12 H          -1.1024    2.3710   -2.4728 H       1  LIG1        0.0278
     13 H          -2.0805    0.9546   -2.0846 H       1  LIG1        0.0278
     14 O           1.9048    0.7369    2.6620 O.3     1  LIG1       -0.5062
     15 H           1.2966    0.6655    3.4093 H       1  LIG1        0.2922
     16 C           4.0515   -0.1376   -0.4434 C.ar    1  LIG1       -0.0418
     17 C           5.4498   -0.0841   -0.4611 C.ar    1  LIG1       -0.0470
     18 C           3.3593    0.8863    0.2357 C.ar    1  LIG1       -0.0080
     19 C           6.1982    0.9257    0.1543 C.ar    1  LIG1        0.0242
     20 H           5.9911   -0.8663   -0.9866 H       1  LIG1        0.0628
     21 C           4.0910    1.9020    0.8634 C.ar    1  LIG1       -0.0115
     22 C           5.4842    1.9344    0.8271 C.ar    1  LIG1        0.1251
     23 H           3.5547    2.6820    1.3990 H       1  LIG1        0.0660
     24 C           3.3430   -1.2870   -1.1260 C.3     1  LIG1       -0.0391
     25 H           4.0233   -2.1336   -1.2548 H       1  LIG1        0.0278
     26 H           2.9732   -1.0152   -2.1220 H       1  LIG1        0.0278
     27 H           2.4789   -1.6291   -0.5499 H       1  LIG1        0.0278
     28 O           6.1943    2.9329    1.4415 O.3     1  LIG1       -0.5061
     29 H           5.5730    3.5099    1.9048 H       1  LIG1        0.2922
     30 C           8.4681   -0.1325    0.5881 C.ar    1  LIG1       -0.0418
     31 C           9.8580   -0.0532    0.4440 C.ar    1  LIG1       -0.0470
     32 C           7.6890    0.9295    0.0822 C.ar    1  LIG1       -0.0080
     33 C          10.5169    1.0166   -0.1719 C.ar    1  LIG1        0.0242
     34 H          10.4659   -0.8693    0.8258 H       1  LIG1        0.0628
     35 C           8.3321    2.0137   -0.5282 C.ar    1  LIG1       -0.0115
     36 C           9.7188    2.0659   -0.6622 C.ar    1  LIG1        0.1251
     37 H           7.7303    2.8389   -0.9017 H       1  LIG1        0.0660
     38 C           7.8618   -1.3269    1.2919 C.3     1  LIG1       -0.0391
     39 H           8.6064   -1.8144    1.9279 H       1  LIG1        0.0278
     40 H           7.4938   -2.0833    0.5881 H       1  LIG1        0.0278
     41 H           7.0137   -1.0387    1.9187 H       1  LIG1        0.0278
     42 O          10.3418    3.1283   -1.2642 O.3     1  LIG1       -0.5061
     43 H           9.6711    3.7838   -1.4965 H       1  LIG1        0.2922
     44 C          12.8560    1.0204    0.8153 C.ar    1  LIG1       -0.0424
     45 C          14.2400    0.9940    0.5917 C.ar    1  LIG1       -0.0548
     46 C          12.0041    1.0267   -0.3098 C.ar    1  LIG1       -0.0080
     47 C          14.7899    0.9760   -0.6856 C.ar    1  LIG1       -0.0199
     48 H          14.9080    0.9964    1.4495 H       1  LIG1        0.0622
     49 C          12.5575    1.0209   -1.5983 C.ar    1  LIG1       -0.0121
     50 C          13.9380    0.9953   -1.7917 C.ar    1  LIG1        0.1175
     51 H          11.8919    1.0399   -2.4581 H       1  LIG1        0.0660
     52 H          15.8635    0.9587   -0.8409 H       1  LIG1        0.0654
     53 C          12.3301    1.0662    2.2332 C.3     1  LIG1       -0.0391
     54 H          13.1078    1.4174    2.9179 H       1  LIG1        0.0278
     55 H          12.0058    0.0812    2.5901 H       1  LIG1        0.0278
     56 H          11.4692    1.7342    2.3247 H       1  LIG1        0.0278
     57 O          14.5084    0.9850   -3.0376 O.3     1  LIG1       -0.5067
     58 H          13.8060    1.0227   -3.6997 H       1  LIG1        0.2921
@<TRIPOS>BOND
     1    58    57    1
     2    57    50    1
     3    11    10    1
     4    12    10    1
     5    51    49    1
     6    10    13    1
     7    10     1    1
     8    26    24    1
     9     5     2    1
    10    50    49   ar
    11    50    47   ar
    12    49    46   ar
    13    43    42    1
    14    42    36    1
    15    25    24    1
    16    24    27    1
    17    24    16    1
    18    20    17    1
    19    37    35    1
    20     1     2   ar
    21     1     3   ar
    22     2     4   ar
    23    52    47    1
    24    47    45   ar
    25    36    35   ar
    26    36    33   ar
    27    35    32   ar
    28    17    16   ar
    29    17    19   ar
    30    16    18   ar
    31    46    33    1
    32    46    44   ar
    33    33    31   ar
    34    32    19    1
    35    32    30   ar
    36    19    22   ar
    37    18     4    1
    38    18    21   ar
    39     4     7   ar
    40     3     9    1
    41     3     6   ar
    42    31    30   ar
    43    31    34    1
    44    30    38    1
    45    40    38    1
    46    45    44   ar
    47    45    48    1
    48    44    53    1
    49    22    21   ar
    50    22    28    1
    51    21    23    1
    52    38    41    1
    53    38    39    1
    54    28    29    1
    55     7     6   ar
    56     7    14    1
    57     6     8    1
    58    53    56    1
    59    53    55    1
    60    53    54    1
    61    14    15    1
