@<TRIPOS>MOLECULE
mol_data/opt/b3lyp/geoms/mol2/4if4if4if4if-.out
 58 61 0 0 0
SMALL
GASTEIGER

@<TRIPOS>ATOM
      1 C          -0.2543    0.5345   -0.9716 C.ar    1  LIG1       -0.0496
      2 C           1.1443    0.5257   -0.9164 C.ar    1  LIG1       -0.0476
      3 C          -0.9420    1.0886    0.1126 C.ar    1  LIG1       -0.0554
      4 C           1.8689    1.0484    0.1621 C.ar    1  LIG1        0.0242
      5 H           1.7029    0.1062   -1.7493 H       1  LIG1        0.0627
      6 C          -0.2539    1.6208    1.2010 C.ar    1  LIG1       -0.0193
      7 C           1.1431    1.6084    1.2315 C.ar    1  LIG1        0.1246
      8 H          -0.8051    2.0446    2.0385 H       1  LIG1        0.0654
      9 H          -2.0288    1.1071    0.1112 H       1  LIG1        0.0621
     10 C          -0.9902   -0.0073   -2.1751 C.3     1  LIG1       -0.0397
     11 H          -0.4440   -0.8338   -2.6398 H       1  LIG1        0.0278
     12 H          -1.1267    0.7633   -2.9444 H       1  LIG1        0.0278
     13 H          -1.9850   -0.3734   -1.9036 H       1  LIG1        0.0278
     14 O           1.8469    2.1204    2.2893 O.3     1  LIG1       -0.5062
     15 H           1.2203    2.4340    2.9546 H       1  LIG1        0.2922
     16 C           4.0906   -0.1836    0.1529 C.ar    1  LIG1       -0.0418
     17 C           5.4876   -0.1077    0.1265 C.ar    1  LIG1       -0.0470
     18 C           3.3625    1.0240    0.1626 C.ar    1  LIG1       -0.0080
     19 C           6.2009    1.0965    0.1084 C.ar    1  LIG1        0.0242
     20 H           6.0562   -1.0336    0.1133 H       1  LIG1        0.0628
     21 C           4.0581    2.2388    0.1509 C.ar    1  LIG1       -0.0115
     22 C           5.4513    2.2871    0.1203 C.ar    1  LIG1        0.1251
     23 H           3.4940    3.1686    0.1724 H       1  LIG1        0.0660
     24 C           3.4178   -1.5382    0.1911 C.3     1  LIG1       -0.0391
     25 H           4.1275   -2.3093    0.5037 H       1  LIG1        0.0278
     26 H           3.0252   -1.8364   -0.7882 H       1  LIG1        0.0278
     27 H           2.5739   -1.5505    0.8868 H       1  LIG1        0.0278
     28 O           6.1266    3.4799    0.1060 O.3     1  LIG1       -0.5061
     29 H           5.4826    4.1969    0.1744 H       1  LIG1        0.2922
     30 C           8.4781    0.5224    1.0805 C.ar    1  LIG1       -0.0418
     31 C           9.8701    0.5598    0.9375 C.ar    1  LIG1       -0.0470
     32 C           7.6928    1.1078    0.0657 C.ar    1  LIG1       -0.0080
     33 C          10.5252    1.1520   -0.1486 C.ar    1  LIG1        0.0242
     34 H          10.4868    0.1241    1.7195 H       1  LIG1        0.0628
     35 C           8.3316    1.7043   -1.0291 C.ar    1  LIG1       -0.0115
     36 C           9.7198    1.7274   -1.1468 C.ar    1  LIG1        0.1251
     37 H           7.7242    2.1574   -1.8092 H       1  LIG1        0.0660
     38 C           7.8765   -0.1084    2.3173 C.3     1  LIG1       -0.0391
     39 H           8.6125   -0.1414    3.1258 H       1  LIG1        0.0278
     40 H           7.5456   -1.1388    2.1396 H       1  LIG1        0.0278
     41 H           7.0043    0.4475    2.6719 H       1  LIG1        0.0278
     42 O          10.3373    2.2863   -2.2367 O.3     1  LIG1       -0.5061
     43 H           9.6579    2.6376   -2.8271 H       1  LIG1        0.2922
     44 C          12.7933    2.3083   -0.1950 C.ar    1  LIG1       -0.0424
     45 C          14.1843    2.1775   -0.2369 C.ar    1  LIG1       -0.0548
     46 C          12.0161    1.1265   -0.2289 C.ar    1  LIG1       -0.0080
     47 C          14.8146    0.9351   -0.3077 C.ar    1  LIG1       -0.0199
     48 H          14.7974    3.0747   -0.2043 H       1  LIG1        0.0622
     49 C          12.6467   -0.1215   -0.2872 C.ar    1  LIG1       -0.0121
     50 C          14.0387   -0.2236   -0.3297 C.ar    1  LIG1        0.1175
     51 H          12.0559   -1.0310   -0.3150 H       1  LIG1        0.0660
     52 H          15.9006    0.8713   -0.3381 H       1  LIG1        0.0654
     53 C          12.1658    3.6779   -0.0923 C.3     1  LIG1       -0.0391
     54 H          11.3889    3.7068    0.6788 H       1  LIG1        0.0278
     55 H          11.6913    3.9668   -1.0356 H       1  LIG1        0.0278
     56 H          12.9181    4.4319    0.1569 H       1  LIG1        0.0278
     57 O          14.5787   -1.4820   -0.3926 O.3     1  LIG1       -0.5067
     58 H          15.5410   -1.4051   -0.4251 H       1  LIG1        0.2921
@<TRIPOS>BOND
     1    12    10    1
     2    43    42    1
     3    11    10    1
     4    42    36    1
     5    10    13    1
     6    10     1    1
     7    37    35    1
     8     5     2    1
     9    36    35   ar
    10    36    33   ar
    11    55    53    1
    12    35    32   ar
    13     1     2   ar
    14     1     3   ar
    15     2     4   ar
    16    26    24    1
    17    58    57    1
    18    57    50    1
    19    52    47    1
    20    50    47   ar
    21    50    49   ar
    22    51    49    1
    23    47    45   ar
    24    49    46   ar
    25    45    48    1
    26    45    44   ar
    27    46    44   ar
    28    46    33    1
    29    44    53    1
    30    33    31   ar
    31    53    56    1
    32    53    54    1
    33    32    19    1
    34    32    30   ar
    35    28    22    1
    36    28    29    1
    37    19    22   ar
    38    19    17   ar
    39     9     3    1
    40     3     6   ar
    41    20    17    1
    42    22    21   ar
    43    17    16   ar
    44    21    18   ar
    45    21    23    1
    46    16    18   ar
    47    16    24    1
    48     4    18    1
    49     4     7   ar
    50    24    25    1
    51    24    27    1
    52    31    30   ar
    53    31    34    1
    54    30    38    1
    55     6     7   ar
    56     6     8    1
    57     7    14    1
    58    40    38    1
    59    14    15    1
    60    38    41    1
    61    38    39    1
