@<TRIPOS>MOLECULE
mol_data/opt/b3lyp/geoms/mol2/4if4if-4if.out
 44 46 0 0 0
SMALL
GASTEIGER

@<TRIPOS>ATOM
      1 C          -0.1154    0.1434    0.1702 C.ar    1  LIG1       -0.0496
      2 C           1.2833    0.2005    0.1901 C.ar    1  LIG1       -0.0476
      3 C          -0.8040    1.2811   -0.2607 C.ar    1  LIG1       -0.0554
      4 C           2.0074    1.3358   -0.1974 C.ar    1  LIG1        0.0242
      5 H           1.8455   -0.6655    0.5304 H       1  LIG1        0.0627
      6 C          -0.1164    2.4242   -0.6637 C.ar    1  LIG1       -0.0193
      7 C           1.2797    2.4565   -0.6406 C.ar    1  LIG1        0.1246
      8 H          -0.6674    3.2989   -1.0044 H       1  LIG1        0.0654
      9 H          -1.8908    1.2793   -0.2843 H       1  LIG1        0.0621
     10 C          -0.8496   -1.1130    0.5770 C.3     1  LIG1       -0.0397
     11 H          -0.3143   -1.6526    1.3643 H       1  LIG1        0.0278
     12 H          -0.9640   -1.8037   -0.2681 H       1  LIG1        0.0278
     13 H          -1.8536   -0.8863    0.9485 H       1  LIG1        0.0278
     14 O           1.9813    3.5589   -1.0556 O.3     1  LIG1       -0.5062
     15 H           1.3538    4.2335   -1.3465 H       1  LIG1        0.2922
     16 C           4.2615    2.1475    0.6730 C.ar    1  LIG1       -0.0418
     17 C           5.6519    2.0136    0.6503 C.ar    1  LIG1       -0.0470
     18 C           3.5009    1.3078   -0.1725 C.ar    1  LIG1       -0.0080
     19 C           6.3208    1.0839   -0.1576 C.ar    1  LIG1        0.0242
     20 H           6.2503    2.6408    1.3066 H       1  LIG1        0.0628
     21 C           4.1529    0.3771   -0.9882 C.ar    1  LIG1       -0.0115
     22 C           5.5433    0.2652   -0.9935 C.ar    1  LIG1        0.1251
     23 H           3.5816   -0.2602   -1.6549 H       1  LIG1        0.0660
     24 C           3.6167    3.1473    1.6032 C.3     1  LIG1       -0.0391
     25 H           2.8047    2.6932    2.1811 H       1  LIG1        0.0278
     26 H           3.1848    3.9839    1.0448 H       1  LIG1        0.0278
     27 H           4.3489    3.5488    2.3093 H       1  LIG1        0.0278
     28 O           6.0969   -0.6554   -1.8428 O.3     1  LIG1       -0.5061
     29 H           7.0599   -0.5477   -1.8190 H       1  LIG1        0.2922
     30 C           8.4906   -0.1568    0.3090 C.ar    1  LIG1       -0.0424
     31 C           9.8930   -0.1530    0.2682 C.ar    1  LIG1       -0.0548
     32 C           7.8121    0.9924   -0.1597 C.ar    1  LIG1       -0.0080
     33 C          10.6226    0.9328   -0.2036 C.ar    1  LIG1       -0.0199
     34 H          10.4286   -1.0266    0.6307 H       1  LIG1        0.0622
     35 C           8.5490    2.0904   -0.6311 C.ar    1  LIG1       -0.0121
     36 C           9.9443    2.0690   -0.6519 C.ar    1  LIG1        0.1175
     37 H           8.0129    2.9654   -0.9927 H       1  LIG1        0.0660
     38 H          11.7071    0.9196   -0.2257 H       1  LIG1        0.0654
     39 C           7.7504   -1.3420    0.8902 C.3     1  LIG1       -0.0391
     40 H           8.4539   -2.0712    1.3006 H       1  LIG1        0.0278
     41 H           7.1350   -1.8537    0.1426 H       1  LIG1        0.0278
     42 H           7.0755   -1.0320    1.6949 H       1  LIG1        0.0278
     43 O          10.6931    3.1197   -1.1047 O.3     1  LIG1       -0.5067
     44 H          10.1013    3.8325   -1.3794 H       1  LIG1        0.2921
@<TRIPOS>BOND
     1    28    29    1
     2    28    22    1
     3    23    21    1
     4    44    43    1
     5    15    14    1
     6    43    36    1
     7    14     7    1
     8     8     6    1
     9    22    21   ar
    10    22    19   ar
    11    37    35    1
    12    21    18   ar
    13     6     7   ar
    14     6     3   ar
    15    36    35   ar
    16    36    33   ar
    17     7     4   ar
    18    35    32   ar
    19     9     3    1
    20    12    10    1
    21     3     1   ar
    22    38    33    1
    23    33    31   ar
    24     4    18    1
    25     4     2   ar
    26    18    16   ar
    27    32    19    1
    28    32    30   ar
    29    19    17   ar
    30    41    39    1
    31     1     2   ar
    32     1    10    1
    33     2     5    1
    34    31    30   ar
    35    31    34    1
    36    30    39    1
    37    10    13    1
    38    10    11    1
    39    17    16   ar
    40    17    20    1
    41    16    24    1
    42    39    40    1
    43    39    42    1
    44    26    24    1
    45    24    25    1
    46    24    27    1
