@<TRIPOS>MOLECULE
mol_data/opt/b3lyp/geoms/mol2/4if4if-4if4if.out
 58 61 0 0 0
SMALL
GASTEIGER

@<TRIPOS>ATOM
      1 C          -0.2534    0.1905   -0.2175 C.ar    1  LIG1       -0.0496
      2 C           1.1466    0.2121   -0.1711 C.ar    1  LIG1       -0.0476
      3 C          -0.9211    1.4176   -0.1951 C.ar    1  LIG1       -0.0554
      4 C           1.8894    1.3970   -0.1006 C.ar    1  LIG1        0.0242
      5 H           1.6931   -0.7277   -0.1785 H       1  LIG1        0.0627
      6 C          -0.2134    2.6176   -0.1367 C.ar    1  LIG1       -0.0193
      7 C           1.1818    2.6151   -0.0945 C.ar    1  LIG1        0.1246
      8 H          -0.7490    3.5652   -0.1301 H       1  LIG1        0.0654
      9 H          -2.0073    1.4427   -0.2249 H       1  LIG1        0.0621
     10 C          -1.0058   -1.1170   -0.3049 C.3     1  LIG1       -0.0397
     11 H          -0.6115   -1.8556    0.4010 H       1  LIG1        0.0278
     12 H          -0.9312   -1.5581   -1.3066 H       1  LIG1        0.0278
     13 H          -2.0687   -0.9800   -0.0863 H       1  LIG1        0.0278
     14 O           1.9049    3.7794   -0.0622 O.3     1  LIG1       -0.5062
     15 H           1.2913    4.5254   -0.0831 H       1  LIG1        0.2922
     16 C           4.1418    1.7875    1.0248 C.ar    1  LIG1       -0.0418
     17 C           5.5307    1.6527    0.9620 C.ar    1  LIG1       -0.0470
     18 C           3.3818    1.3397   -0.0797 C.ar    1  LIG1       -0.0080
     19 C           6.1987    1.0883   -0.1336 C.ar    1  LIG1        0.0242
     20 H           6.1284    1.9767    1.8104 H       1  LIG1        0.0628
     21 C           4.0327    0.7773   -1.1828 C.ar    1  LIG1       -0.0115
     22 C           5.4219    0.6575   -1.2219 C.ar    1  LIG1        0.1251
     23 H           3.4616    0.4465   -2.0439 H       1  LIG1        0.0660
     24 C           3.4976    2.3726    2.2591 C.3     1  LIG1       -0.0391
     25 H           2.6543    1.7627    2.5995 H       1  LIG1        0.0278
     26 H           3.1087    3.3770    2.0632 H       1  LIG1        0.0278
     27 H           4.2183    2.4393    3.0790 H       1  LIG1        0.0278
     28 O           5.9753    0.1203   -2.3537 O.3     1  LIG1       -0.5061
     29 H           6.9389    0.1990   -2.2853 H       1  LIG1        0.2922
     30 C           8.3566   -0.2621   -0.1578 C.ar    1  LIG1       -0.0418
     31 C           9.7568   -0.2551   -0.1749 C.ar    1  LIG1       -0.0470
     32 C           7.6882    0.9837   -0.1585 C.ar    1  LIG1       -0.0080
     33 C          10.5286    0.9124   -0.1850 C.ar    1  LIG1        0.0242
     34 H          10.2795   -1.2077   -0.1799 H       1  LIG1        0.0628
     35 C           8.4460    2.1632   -0.1672 C.ar    1  LIG1       -0.0115
     36 C           9.8413    2.1405   -0.1796 C.ar    1  LIG1        0.1251
     37 H           7.9254    3.1188   -0.1706 H       1  LIG1        0.0660
     38 C           7.6054   -1.5740   -0.0895 C.3     1  LIG1       -0.0391
     39 H           8.2998   -2.4107    0.0227 H       1  LIG1        0.0278
     40 H           7.0044   -1.7543   -0.9871 H       1  LIG1        0.0278
     41 H           6.9145   -1.5896    0.7599 H       1  LIG1        0.0278
     42 O          10.5780    3.2938   -0.1888 O.3     1  LIG1       -0.5061
     43 H           9.9745    4.0475   -0.1497 H       1  LIG1        0.2922
     44 C          12.7604    0.2545    0.8277 C.ar    1  LIG1       -0.0424
     45 C          14.1560    0.2078    0.6986 C.ar    1  LIG1       -0.0548
     46 C          12.0207    0.8470   -0.2173 C.ar    1  LIG1       -0.0080
     47 C          14.8209    0.7201   -0.4098 C.ar    1  LIG1       -0.0199
     48 H          14.7401   -0.2387    1.4994 H       1  LIG1        0.0622
     49 C          12.6901    1.3753   -1.3306 C.ar    1  LIG1       -0.0121
     50 C          14.0793    1.3150   -1.4328 C.ar    1  LIG1        0.1175
     51 H          12.1101    1.8425   -2.1230 H       1  LIG1        0.0660
     52 H          15.9018    0.6781   -0.4922 H       1  LIG1        0.0654
     53 C          12.1078   -0.3004    2.0748 C.3     1  LIG1       -0.0391
     54 H          12.8372   -0.3744    2.8866 H       1  LIG1        0.0278
     55 H          11.6954   -1.3044    1.9185 H       1  LIG1        0.0278
     56 H          11.2827    0.3306    2.4169 H       1  LIG1        0.0278
     57 O          14.7636    1.8176   -2.5071 O.3     1  LIG1       -0.5067
     58 H          14.1321    2.2154   -3.1205 H       1  LIG1        0.2921
@<TRIPOS>BOND
     1    58    57    1
     2    57    50    1
     3    28    29    1
     4    28    22    1
     5    51    49    1
     6    23    21    1
     7    50    49   ar
     8    50    47   ar
     9    49    46   ar
    10    12    10    1
    11    22    21   ar
    12    22    19   ar
    13    21    18   ar
    14    40    38    1
    15    52    47    1
    16    47    45   ar
    17    10     1    1
    18    10    13    1
    19    10    11    1
    20     9     3    1
    21     1     3   ar
    22     1     2   ar
    23    46    33    1
    24    46    44   ar
    25     3     6   ar
    26    42    36    1
    27    42    43    1
    28    33    36   ar
    29    33    31   ar
    30    34    31    1
    31    36    35   ar
    32     5     2    1
    33    31    30   ar
    34     2     4   ar
    35    37    35    1
    36    35    32   ar
    37    32    30   ar
    38    32    19    1
    39    30    38    1
    40     6     8    1
    41     6     7   ar
    42    19    17   ar
    43     4     7   ar
    44     4    18    1
    45     7    14    1
    46    38    39    1
    47    38    41    1
    48    15    14    1
    49    18    16   ar
    50    45    44   ar
    51    45    48    1
    52    44    53    1
    53    17    16   ar
    54    17    20    1
    55    16    24    1
    56    55    53    1
    57    26    24    1
    58    53    56    1
    59    53    54    1
    60    24    25    1
    61    24    27    1
