@<TRIPOS>MOLECULE
mol_data/opt/b3lyp/geoms/mol2/4ig.out
 16 16 0 0 0
SMALL
GASTEIGER

@<TRIPOS>ATOM
      1 C           0.0836    0.0295    0.0156 C.ar    1  LIG1       -0.0504
      2 C           1.4842    0.0491    0.0114 C.ar    1  LIG1       -0.0578
      3 C          -0.5818    1.2610    0.0138 C.ar    1  LIG1       -0.0578
      4 C           2.1959    1.2462   -0.0003 C.ar    1  LIG1       -0.0483
      5 H           2.0321   -0.8900    0.0192 H       1  LIG1        0.0621
      6 C           0.1160    2.4677    0.0022 C.ar    1  LIG1       -0.0483
      7 C           1.5153    2.4699   -0.0059 C.ar    1  LIG1        0.0048
      8 H          -0.4343    3.4043    0.0039 H       1  LIG1        0.0629
      9 H           3.2815    1.2276   -0.0008 H       1  LIG1        0.0629
     10 H          -1.6694    1.2819    0.0235 H       1  LIG1        0.0621
     11 C          -0.6805   -1.2731   -0.0045 C.3     1  LIG1       -0.0397
     12 H          -0.1240   -2.0714    0.4959 H       1  LIG1        0.0278
     13 H          -0.8736   -1.6071   -1.0319 H       1  LIG1        0.0278
     14 H          -1.6507   -1.1763    0.4921 H       1  LIG1        0.0278
     15 S           2.4885    3.9724   -0.0168 S.3     1  LIG1       -0.1426
     16 H           1.4540    4.8350   -0.0178 H       1  LIG1        0.1071
@<TRIPOS>BOND
     1    13    11    1
     2    16    15    1
     3    15     7    1
     4     7     4   ar
     5     7     6   ar
     6    11     1    1
     7    11    14    1
     8    11    12    1
     9     9     4    1
    10     4     2   ar
    11     6     8    1
    12     6     3   ar
    13     2     1   ar
    14     2     5    1
    15     3     1   ar
    16     3    10    1
