@<TRIPOS>MOLECULE
mol_data/opt/b3lyp/geoms/mol2/4ig4ig4ig-4ig.out
 58 61 0 0 0
SMALL
GASTEIGER

@<TRIPOS>ATOM
      1 C          -0.2264    1.7889   -0.5385 C.ar    1  LIG1       -0.0498
      2 C           1.1701    1.7183   -0.5244 C.ar    1  LIG1       -0.0501
      3 C          -0.9326    0.8070    0.1660 C.ar    1  LIG1       -0.0578
      4 C           1.8667    0.7147    0.1617 C.ar    1  LIG1       -0.0042
      5 H           1.7481    2.4624   -1.0669 H       1  LIG1        0.0627
      6 C          -0.2680   -0.1971    0.8642 C.ar    1  LIG1       -0.0477
      7 C           1.1312   -0.2538    0.8707 C.ar    1  LIG1        0.0125
      8 H          -0.8445   -0.9406    1.4070 H       1  LIG1        0.0629
      9 H          -2.0195    0.8257    0.1731 H       1  LIG1        0.0621
     10 C          -0.9455    2.9004   -1.2652 C.3     1  LIG1       -0.0397
     11 H          -0.3463    3.2911   -2.0928 H       1  LIG1        0.0278
     12 H          -1.1610    3.7413   -0.5940 H       1  LIG1        0.0278
     13 H          -1.9019    2.5585   -1.6724 H       1  LIG1        0.0278
     14 S           2.0266   -1.5190    1.7699 S.3     1  LIG1       -0.1420
     15 H           0.9360   -2.1980    2.1765 H       1  LIG1        0.1071
     16 C           4.0777   -0.0714   -0.8049 C.ar    1  LIG1       -0.0421
     17 C           5.4732   -0.0016   -0.7841 C.ar    1  LIG1       -0.0495
     18 C           3.3643    0.7040    0.1331 C.ar    1  LIG1       -0.0129
     19 C           6.1855    0.7920    0.1238 C.ar    1  LIG1       -0.0042
     20 H           6.0403   -0.5886   -1.5020 H       1  LIG1        0.0627
     21 C           4.0607    1.5115    1.0379 C.ar    1  LIG1       -0.0400
     22 C           5.4587    1.5637    1.0474 C.ar    1  LIG1        0.0130
     23 H           3.4905    2.1083    1.7437 H       1  LIG1        0.0635
     24 C           3.3689   -0.9502   -1.8072 C.3     1  LIG1       -0.0391
     25 H           4.0841   -1.4208   -2.4869 H       1  LIG1        0.0278
     26 H           2.6533   -0.3796   -2.4084 H       1  LIG1        0.0278
     27 H           2.8045   -1.7455   -1.3082 H       1  LIG1        0.0278
     28 S           6.3580    2.6126    2.1881 S.3     1  LIG1       -0.1420
     29 H           5.2788    3.0124    2.8888 H       1  LIG1        0.1071
     30 C           8.4598   -0.0026    0.9221 C.ar    1  LIG1       -0.0421
     31 C           9.8500    0.0634    0.7967 C.ar    1  LIG1       -0.0495
     32 C           7.6820    0.8147    0.0753 C.ar    1  LIG1       -0.0129
     33 C          10.4967    0.9012   -0.1208 C.ar    1  LIG1       -0.0042
     34 H          10.4660   -0.5603    1.4393 H       1  LIG1        0.0627
     35 C           8.3122    1.6451   -0.8570 C.ar    1  LIG1       -0.0400
     36 C           9.7060    1.7005   -0.9646 C.ar    1  LIG1        0.0130
     37 H           7.6933    2.2558   -1.5076 H       1  LIG1        0.0635
     38 C           7.8240   -0.9264    1.9330 C.3     1  LIG1       -0.0391
     39 H           8.5812   -1.5336    2.4357 H       1  LIG1        0.0278
     40 H           7.1026   -1.6027    1.4627 H       1  LIG1        0.0278
     41 H           7.2804   -0.3628    2.6991 H       1  LIG1        0.0278
     42 S          10.5198    2.7456   -2.1715 S.3     1  LIG1       -0.1420
     43 H           9.3977    3.3471   -2.6127 H       1  LIG1        0.1071
     44 C          12.7529    1.8746    0.5040 C.ar    1  LIG1       -0.0426
     45 C          14.1471    1.7993    0.4110 C.ar    1  LIG1       -0.0572
     46 C          11.9928    0.9096   -0.1907 C.ar    1  LIG1       -0.0129
     47 C          14.7867    0.8161   -0.3400 C.ar    1  LIG1       -0.0483
     48 H          14.7503    2.5331    0.9392 H       1  LIG1        0.0621
     49 C          12.6344   -0.0877   -0.9356 C.ar    1  LIG1       -0.0406
     50 C          14.0290   -0.1410   -1.0210 C.ar    1  LIG1        0.0053
     51 H          12.0253   -0.8250   -1.4502 H       1  LIG1        0.0635
     52 H          15.8711    0.7975   -0.3962 H       1  LIG1        0.0629
     53 C          12.0945    2.9552    1.3277 C.3     1  LIG1       -0.0391
     54 H          12.8429    3.5513    1.8565 H       1  LIG1        0.0278
     55 H          11.4087    2.5341    2.0701 H       1  LIG1        0.0278
     56 H          11.5070    3.6331    0.6988 H       1  LIG1        0.0278
     57 S          14.8955   -1.4044   -1.9468 S.3     1  LIG1       -0.1426
     58 H          13.8214   -1.8989   -2.5914 H       1  LIG1        0.1071
@<TRIPOS>BOND
     1    43    42    1
     2    58    57    1
     3    25    24    1
     4    26    24    1
     5    42    36    1
     6    11    10    1
     7    57    50    1
     8    24    27    1
     9    24    16    1
    10    13    10    1
    11    37    35    1
    12    20    17    1
    13    51    49    1
    14    10    12    1
    15    10     1    1
    16     5     2    1
    17    50    49   ar
    18    50    47   ar
    19    36    35   ar
    20    36    33   ar
    21    49    46   ar
    22    35    32   ar
    23    16    17   ar
    24    16    18   ar
    25    17    19   ar
    26     1     2   ar
    27     1     3   ar
    28     2     4   ar
    29    52    47    1
    30    47    45   ar
    31    46    33    1
    32    46    44   ar
    33    33    31   ar
    34    32    19    1
    35    32    30   ar
    36    19    22   ar
    37    18     4    1
    38    18    21   ar
    39     4     7   ar
    40     3     9    1
    41     3     6   ar
    42    45    44   ar
    43    45    48    1
    44    44    53    1
    45    56    53    1
    46    31    30   ar
    47    31    34    1
    48     6     7   ar
    49     6     8    1
    50     7    14    1
    51    30    38    1
    52    21    22   ar
    53    21    23    1
    54    22    28    1
    55    53    54    1
    56    53    55    1
    57    40    38    1
    58    14    15    1
    59    38    39    1
    60    38    41    1
    61    28    29    1
