@<TRIPOS>MOLECULE
mol_data/opt/b3lyp/geoms/mol2/4ig4ig4ig-.out
 44 46 0 0 0
SMALL
GASTEIGER

@<TRIPOS>ATOM
      1 C          -0.1537    1.0240   -1.0068 C.ar    1  LIG1       -0.0498
      2 C           1.2439    1.0195   -0.9885 C.ar    1  LIG1       -0.0501
      3 C          -0.8190    0.8679    0.2155 C.ar    1  LIG1       -0.0578
      4 C           1.9822    0.8672    0.1934 C.ar    1  LIG1       -0.0042
      5 H           1.7907    1.1331   -1.9212 H       1  LIG1        0.0627
      6 C          -0.1135    0.7241    1.4060 C.ar    1  LIG1       -0.0477
      7 C           1.2874    0.7232    1.4087 C.ar    1  LIG1        0.0125
      8 H          -0.6585    0.6133    2.3390 H       1  LIG1        0.0629
      9 H          -1.9059    0.8610    0.2408 H       1  LIG1        0.0621
     10 C          -0.9206    1.2116   -2.2941 C.3     1  LIG1       -0.0397
     11 H          -0.2851    1.0378   -3.1668 H       1  LIG1        0.0278
     12 H          -1.3193    2.2303   -2.3760 H       1  LIG1        0.0278
     13 H          -1.7728    0.5269   -2.3560 H       1  LIG1        0.0278
     14 S           2.2331    0.5643    2.9223 S.3     1  LIG1       -0.1420
     15 H           1.1712    0.3809    3.7314 H       1  LIG1        0.1071
     16 C           4.2226   -0.3204    0.0778 C.ar    1  LIG1       -0.0421
     17 C           5.6140   -0.2219   -0.0061 C.ar    1  LIG1       -0.0495
     18 C           3.4788    0.8769    0.1344 C.ar    1  LIG1       -0.0129
     19 C           6.2941    1.0023   -0.0308 C.ar    1  LIG1       -0.0042
     20 H           6.2041   -1.1334   -0.0548 H       1  LIG1        0.0627
     21 C           4.1424    2.1075    0.0975 C.ar    1  LIG1       -0.0400
     22 C           5.5372    2.1859    0.0191 C.ar    1  LIG1        0.0130
     23 H           3.5488    3.0163    0.1298 H       1  LIG1        0.0635
     24 C           3.5499   -1.6720    0.0996 C.3     1  LIG1       -0.0391
     25 H           4.2821   -2.4732   -0.0309 H       1  LIG1        0.0278
     26 H           2.8022   -1.7619   -0.6954 H       1  LIG1        0.0278
     27 H           3.0298   -1.8418    1.0487 H       1  LIG1        0.0278
     28 S           6.3937    3.7582   -0.0488 S.3     1  LIG1       -0.1420
     29 H           5.2993    4.5203    0.1440 H       1  LIG1        0.1071
     30 C           8.6001    1.1259    1.0184 C.ar    1  LIG1       -0.0426
     31 C           9.9882    1.1031    0.8430 C.ar    1  LIG1       -0.0572
     32 C           7.7885    1.0177   -0.1311 C.ar    1  LIG1       -0.0129
     33 C          10.5735    0.9855   -0.4155 C.ar    1  LIG1       -0.0483
     34 H          10.6305    1.1846    1.7160 H       1  LIG1        0.0621
     35 C           8.3752    0.8853   -1.3957 C.ar    1  LIG1       -0.0406
     36 C           9.7648    0.8738   -1.5500 C.ar    1  LIG1        0.0053
     37 H           7.7275    0.7918   -2.2624 H       1  LIG1        0.0635
     38 H          11.6553    0.9850   -0.5118 H       1  LIG1        0.0629
     39 C           8.0017    1.2635    2.3976 C.3     1  LIG1       -0.0391
     40 H           8.7802    1.2303    3.1644 H       1  LIG1        0.0278
     41 H           7.2829    0.4647    2.6074 H       1  LIG1        0.0278
     42 H           7.4643    2.2124    2.5041 H       1  LIG1        0.0278
     43 S          10.5594    0.6899   -3.1438 S.3     1  LIG1       -0.1426
     44 H           9.4653    0.9147   -3.8963 H       1  LIG1        0.1071
@<TRIPOS>BOND
     1    44    43    1
     2    11    10    1
     3    43    36    1
     4    12    10    1
     5    13    10    1
     6    10     1    1
     7    37    35    1
     8     5     2    1
     9    36    35   ar
    10    36    33   ar
    11    35    32   ar
    12     1     2   ar
    13     1     3   ar
    14     2     4   ar
    15    26    24    1
    16    38    33    1
    17    33    31   ar
    18    32    19    1
    19    32    30   ar
    20    20    17    1
    21    28    22    1
    22    28    29    1
    23    25    24    1
    24    19    17   ar
    25    19    22   ar
    26    17    16   ar
    27    22    21   ar
    28    16    24    1
    29    16    18   ar
    30    21    23    1
    31    21    18   ar
    32    24    27    1
    33    18     4    1
    34     4     7   ar
    35     3     9    1
    36     3     6   ar
    37    31    30   ar
    38    31    34    1
    39    30    39    1
    40     6     7   ar
    41     6     8    1
    42     7    14    1
    43    39    42    1
    44    39    41    1
    45    39    40    1
    46    14    15    1
