@<TRIPOS>MOLECULE
mol_data/opt/b3lyp/geoms/mol2/4ig4ig-4ig-4ig-.out
 58 61 0 0 0
SMALL
GASTEIGER

@<TRIPOS>ATOM
      1 C          -0.2248    1.7685   -0.5846 C.ar    1  LIG1       -0.0498
      2 C           1.1712    1.7001   -0.5634 C.ar    1  LIG1       -0.0501
      3 C          -0.9328    0.8001    0.1376 C.ar    1  LIG1       -0.0578
      4 C           1.8667    0.7111    0.1455 C.ar    1  LIG1       -0.0042
      5 H           1.7504    2.4341   -1.1183 H       1  LIG1        0.0627
      6 C          -0.2698   -0.1886    0.8581 C.ar    1  LIG1       -0.0477
      7 C           1.1298   -0.2436    0.8708 C.ar    1  LIG1        0.0125
      8 H          -0.8473   -0.9214    1.4143 H       1  LIG1        0.0629
      9 H          -2.0198    0.8176    0.1406 H       1  LIG1        0.0621
     10 C          -0.9448    2.8606   -1.3392 C.3     1  LIG1       -0.0397
     11 H          -0.3008    3.3139   -2.0979 H       1  LIG1        0.0278
     12 H          -1.2714    3.6624   -0.6654 H       1  LIG1        0.0278
     13 H          -1.8392    2.4775   -1.8409 H       1  LIG1        0.0278
     14 S           2.0228   -1.4893    1.7992 S.3     1  LIG1       -0.1420
     15 H           0.9313   -2.1623    2.2134 H       1  LIG1        0.1071
     16 C           4.0827   -0.0918   -0.7954 C.ar    1  LIG1       -0.0421
     17 C           5.4780   -0.0195   -0.7705 C.ar    1  LIG1       -0.0495
     18 C           3.3644    0.7022    0.1231 C.ar    1  LIG1       -0.0129
     19 C           6.1854    0.7943    0.1232 C.ar    1  LIG1       -0.0042
     20 H           6.0488   -0.6206   -1.4736 H       1  LIG1        0.0627
     21 C           4.0559    1.5299    1.0133 C.ar    1  LIG1       -0.0400
     22 C           5.4538    1.5842    1.0273 C.ar    1  LIG1        0.0130
     23 H           3.4820    2.1406    1.7041 H       1  LIG1        0.0635
     24 C           3.3792   -0.9930   -1.7815 C.3     1  LIG1       -0.0391
     25 H           4.0971   -1.4702   -2.4537 H       1  LIG1        0.0278
     26 H           2.6587   -0.4382   -2.3916 H       1  LIG1        0.0278
     27 H           2.8212   -1.7836   -1.2679 H       1  LIG1        0.0278
     28 S           6.3473    2.6576    2.1497 S.3     1  LIG1       -0.1420
     29 H           5.2650    3.0695    2.8385 H       1  LIG1        0.1071
     30 C           8.4567    0.0147    0.9432 C.ar    1  LIG1       -0.0421
     31 C           9.8475    0.0806    0.8235 C.ar    1  LIG1       -0.0495
     32 C           7.6820    0.8184    0.0808 C.ar    1  LIG1       -0.0129
     33 C          10.4975    0.9059   -0.1030 C.ar    1  LIG1       -0.0042
     34 H          10.4612   -0.5326    1.4782 H       1  LIG1        0.0627
     35 C           8.3155    1.6362   -0.8603 C.ar    1  LIG1       -0.0400
     36 C           9.7098    1.6919   -0.9621 C.ar    1  LIG1        0.0130
     37 H           7.6990    2.2366   -1.5227 H       1  LIG1        0.0635
     38 C           7.8169   -0.8947    1.9646 C.3     1  LIG1       -0.0391
     39 H           8.5728   -1.4898    2.4837 H       1  LIG1        0.0278
     40 H           7.1025   -1.5823    1.5001 H       1  LIG1        0.0278
     41 H           7.2644   -0.3207    2.7165 H       1  LIG1        0.0278
     42 S          10.5282    2.7205   -2.1800 S.3     1  LIG1       -0.1420
     43 H           9.4077    3.3155   -2.6340 H       1  LIG1        0.1071
     44 C          12.7496    1.8908    0.5189 C.ar    1  LIG1       -0.0426
     45 C          14.1442    1.8160    0.4334 C.ar    1  LIG1       -0.0572
     46 C          11.9938    0.9154   -0.1661 C.ar    1  LIG1       -0.0129
     47 C          14.7885    0.8235   -0.3013 C.ar    1  LIG1       -0.0483
     48 H          14.7441    2.5576    0.9544 H       1  LIG1        0.0621
     49 C          12.6401   -0.0909   -0.8948 C.ar    1  LIG1       -0.0406
     50 C          14.0351   -0.1435   -0.9730 C.ar    1  LIG1        0.0053
     51 H          12.0342   -0.8356   -1.4024 H       1  LIG1        0.0635
     52 H          15.8731    0.8055   -0.3520 H       1  LIG1        0.0629
     53 C          12.0859    2.9815    1.3249 C.3     1  LIG1       -0.0391
     54 H          12.8312    3.5866    1.8480 H       1  LIG1        0.0278
     55 H          11.3982    2.5695    2.0706 H       1  LIG1        0.0278
     56 H          11.4994    3.6493    0.6843 H       1  LIG1        0.0278
     57 S          14.9074   -1.4178   -1.8783 S.3     1  LIG1       -0.1426
     58 H          13.8358   -1.9262   -2.5161 H       1  LIG1        0.1071
@<TRIPOS>BOND
     1    43    42    1
     2    58    57    1
     3    25    24    1
     4    26    24    1
     5    42    36    1
     6    11    10    1
     7    57    50    1
     8    13    10    1
     9    24    27    1
    10    24    16    1
    11    37    35    1
    12    20    17    1
    13    51    49    1
    14    10    12    1
    15    10     1    1
    16     5     2    1
    17    50    49   ar
    18    50    47   ar
    19    36    35   ar
    20    36    33   ar
    21    49    46   ar
    22    35    32   ar
    23    16    17   ar
    24    16    18   ar
    25    17    19   ar
    26     1     2   ar
    27     1     3   ar
    28     2     4   ar
    29    52    47    1
    30    47    45   ar
    31    46    33    1
    32    46    44   ar
    33    33    31   ar
    34    32    19    1
    35    32    30   ar
    36    18     4    1
    37    18    21   ar
    38    19    22   ar
    39     3     9    1
    40     3     6   ar
    41     4     7   ar
    42    45    44   ar
    43    45    48    1
    44    44    53    1
    45    56    53    1
    46    31    30   ar
    47    31    34    1
    48     6     7   ar
    49     6     8    1
    50     7    14    1
    51    30    38    1
    52    21    22   ar
    53    21    23    1
    54    22    28    1
    55    53    54    1
    56    53    55    1
    57    40    38    1
    58    14    15    1
    59    38    39    1
    60    38    41    1
    61    28    29    1
