@<TRIPOS>MOLECULE
mol_data/opt/b3lyp/geoms/mol2/4ig4ig-4ig4ig.out
 58 61 0 0 0
SMALL
GASTEIGER

@<TRIPOS>ATOM
      1 C          -0.2262    1.7924   -0.5292 C.ar    1  LIG1       -0.0498
      2 C           1.1699    1.7214   -0.5168 C.ar    1  LIG1       -0.0501
      3 C          -0.9321    0.8081    0.1732 C.ar    1  LIG1       -0.0578
      4 C           1.8673    0.7144    0.1645 C.ar    1  LIG1       -0.0042
      5 H           1.7474    2.4676   -1.0569 H       1  LIG1        0.0627
      6 C          -0.2671   -0.1987    0.8663 C.ar    1  LIG1       -0.0477
      7 C           1.1325   -0.2562    0.8705 C.ar    1  LIG1        0.0125
      8 H          -0.8430   -0.9437    1.4077 H       1  LIG1        0.0629
      9 H          -2.0191    0.8272    0.1822 H       1  LIG1        0.0621
     10 C          -0.9481    2.9034   -1.2538 C.3     1  LIG1       -0.0397
     11 H          -0.3065    3.3752   -2.0031 H       1  LIG1        0.0278
     12 H          -1.2720    3.6883   -0.5590 H       1  LIG1        0.0278
     13 H          -1.8444    2.5333   -1.7618 H       1  LIG1        0.0278
     14 S           2.0281   -1.5252    1.7642 S.3     1  LIG1       -0.1420
     15 H           0.9376   -2.2070    2.1666 H       1  LIG1        0.1071
     16 C           4.0771   -0.0687   -0.8069 C.ar    1  LIG1       -0.0421
     17 C           5.4727    0.0009   -0.7874 C.ar    1  LIG1       -0.0495
     18 C           3.3648    0.7039    0.1342 C.ar    1  LIG1       -0.0129
     19 C           6.1859    0.7919    0.1221 C.ar    1  LIG1       -0.0042
     20 H           6.0389   -0.5839   -1.5077 H       1  LIG1        0.0627
     21 C           4.0622    1.5089    1.0406 C.ar    1  LIG1       -0.0400
     22 C           5.4603    1.5608    1.0487 C.ar    1  LIG1        0.0130
     23 H           3.4928    2.1036    1.7488 H       1  LIG1        0.0635
     24 C           3.3672   -0.9445   -1.8110 C.3     1  LIG1       -0.0391
     25 H           4.0812   -1.4100   -2.4954 H       1  LIG1        0.0278
     26 H           2.6479   -0.3729   -2.4068 H       1  LIG1        0.0278
     27 H           2.8065   -1.7437   -1.3137 H       1  LIG1        0.0278
     28 S           6.3610    2.6057    2.1919 S.3     1  LIG1       -0.1420
     29 H           5.2829    3.0021    2.8962 H       1  LIG1        0.1071
     30 C           8.4603   -0.0096    0.9121 C.ar    1  LIG1       -0.0421
     31 C           9.8506    0.0572    0.7867 C.ar    1  LIG1       -0.0495
     32 C           7.6823    0.8148    0.0724 C.ar    1  LIG1       -0.0129
     33 C          10.4969    0.9026   -0.1240 C.ar    1  LIG1       -0.0042
     34 H          10.4668   -0.5718    1.4239 H       1  LIG1        0.0627
     35 C           8.3122    1.6531   -0.8530 C.ar    1  LIG1       -0.0400
     36 C           9.7060    1.7092   -0.9607 C.ar    1  LIG1        0.0130
     37 H           7.6931    2.2695   -1.4981 H       1  LIG1        0.0635
     38 C           7.8245   -0.9413    1.9157 C.3     1  LIG1       -0.0391
     39 H           8.5821   -1.5505    2.4156 H       1  LIG1        0.0278
     40 H           7.1052   -1.6158    1.4396 H       1  LIG1        0.0278
     41 H           7.2784   -0.3839    2.6846 H       1  LIG1        0.0278
     42 S          10.5197    2.7646   -2.1586 S.3     1  LIG1       -0.1420
     43 H           9.3975    3.3700   -2.5944 H       1  LIG1        0.1071
     44 C          12.7535    1.8691    0.5101 C.ar    1  LIG1       -0.0426
     45 C          14.1476    1.7948    0.4156 C.ar    1  LIG1       -0.0572
     46 C          11.9929    0.9117   -0.1946 C.ar    1  LIG1       -0.0129
     47 C          14.7867    0.8198   -0.3465 C.ar    1  LIG1       -0.0483
     48 H          14.7512    2.5227    0.9515 H       1  LIG1        0.0621
     49 C          12.6341   -0.0772   -0.9511 C.ar    1  LIG1       -0.0406
     50 C          14.0286   -0.1296   -1.0378 C.ar    1  LIG1        0.0053
     51 H          12.0247   -0.8086   -1.4736 H       1  LIG1        0.0635
     52 H          15.8711    0.8018   -0.4033 H       1  LIG1        0.0629
     53 C          12.0954    2.9406    1.3458 C.3     1  LIG1       -0.0391
     54 H          12.8441    3.5326    1.8789 H       1  LIG1        0.0278
     55 H          11.4118    2.5114    2.0856 H       1  LIG1        0.0278
     56 H          11.5056    3.6239    0.7249 H       1  LIG1        0.0278
     57 S          14.8947   -1.3824   -1.9784 S.3     1  LIG1       -0.1426
     58 H          13.8193   -1.8726   -2.6243 H       1  LIG1        0.1071
@<TRIPOS>BOND
     1    58    57    1
     2    43    42    1
     3    25    24    1
     4    26    24    1
     5    42    36    1
     6    11    10    1
     7    57    50    1
     8    24    27    1
     9    24    16    1
    10    13    10    1
    11    20    17    1
    12    37    35    1
    13    51    49    1
    14    10    12    1
    15    10     1    1
    16     5     2    1
    17    50    49   ar
    18    50    47   ar
    19    36    35   ar
    20    36    33   ar
    21    49    46   ar
    22    35    32   ar
    23    16    17   ar
    24    16    18   ar
    25    17    19   ar
    26     1     2   ar
    27     1     3   ar
    28     2     4   ar
    29    52    47    1
    30    47    45   ar
    31    46    33    1
    32    46    44   ar
    33    33    31   ar
    34    32    19    1
    35    32    30   ar
    36    19    22   ar
    37    18     4    1
    38    18    21   ar
    39     4     7   ar
    40     3     9    1
    41     3     6   ar
    42    45    44   ar
    43    45    48    1
    44    44    53    1
    45    56    53    1
    46    31    30   ar
    47    31    34    1
    48     6     7   ar
    49     6     8    1
    50     7    14    1
    51    30    38    1
    52    21    22   ar
    53    21    23    1
    54    22    28    1
    55    53    54    1
    56    53    55    1
    57    40    38    1
    58    14    15    1
    59    38    39    1
    60    38    41    1
    61    28    29    1
