@<TRIPOS>MOLECULE
mol_data/opt/b3lyp/geoms/mol2/4ig4ig4ig4ig.out
 58 61 0 0 0
SMALL
GASTEIGER

@<TRIPOS>ATOM
      1 C          -0.2244    1.8039   -0.5331 C.ar    1  LIG1       -0.0498
      2 C           1.1715    1.7311   -0.5194 C.ar    1  LIG1       -0.0501
      3 C          -0.9323    0.8165    0.1629 C.ar    1  LIG1       -0.0578
      4 C           1.8669    0.7197    0.1573 C.ar    1  LIG1       -0.0042
      5 H           1.7506    2.4796   -1.0547 H       1  LIG1        0.0627
      6 C          -0.2694   -0.1948    0.8514 C.ar    1  LIG1       -0.0477
      7 C           1.1301   -0.2539    0.8570 C.ar    1  LIG1        0.0125
      8 H          -0.8468   -0.9421    1.3879 H       1  LIG1        0.0629
      9 H          -2.0193    0.8369    0.1707 H       1  LIG1        0.0621
     10 C          -0.9442    2.9197   -1.2524 C.3     1  LIG1       -0.0397
     11 H          -0.3016    3.3938   -1.9995 H       1  LIG1        0.0278
     12 H          -1.2664    3.7019   -0.5539 H       1  LIG1        0.0278
     13 H          -1.8412    2.5538   -1.7621 H       1  LIG1        0.0278
     14 S           2.0231   -1.5289    1.7447 S.3     1  LIG1       -0.1420
     15 H           0.9313   -2.2108    2.1433 H       1  LIG1        0.1071
     16 C           4.0770   -0.0605   -0.8159 C.ar    1  LIG1       -0.0421
     17 C           5.4726    0.0072   -0.7943 C.ar    1  LIG1       -0.0495
     18 C           3.3644    0.7075    0.1288 C.ar    1  LIG1       -0.0129
     19 C           6.1857    0.7920    0.1208 C.ar    1  LIG1       -0.0042
     20 H           6.0390   -0.5740   -1.5173 H       1  LIG1        0.0627
     21 C           4.0617    1.5062    1.0408 C.ar    1  LIG1       -0.0400
     22 C           5.4598    1.5564    1.0510 C.ar    1  LIG1        0.0130
     23 H           3.4922    2.0974    1.7518 H       1  LIG1        0.0635
     24 C           3.3673   -0.9297   -1.8259 C.3     1  LIG1       -0.0391
     25 H           4.0814   -1.3905   -2.5132 H       1  LIG1        0.0278
     26 H           2.6480   -0.3542   -2.4181 H       1  LIG1        0.0278
     27 H           2.8067   -1.7322   -1.3340 H       1  LIG1        0.0278
     28 S           6.3605    2.5933    2.2015 S.3     1  LIG1       -0.1420
     29 H           5.2820    2.9873    2.9064 H       1  LIG1        0.1071
     30 C           8.4581   -0.0169    0.9090 C.ar    1  LIG1       -0.0421
     31 C           9.8486    0.0488    0.7856 C.ar    1  LIG1       -0.0495
     32 C           7.6822    0.8133    0.0731 C.ar    1  LIG1       -0.0129
     33 C          10.4972    0.8985   -0.1196 C.ar    1  LIG1       -0.0042
     34 H          10.4632   -0.5846    1.4200 H       1  LIG1        0.0627
     35 C           8.3143    1.6558   -0.8469 C.ar    1  LIG1       -0.0400
     36 C           9.7083    1.7107   -0.9527 C.ar    1  LIG1        0.0130
     37 H           7.6967    2.2765   -1.4893 H       1  LIG1        0.0635
     38 C           7.8199   -0.9535    1.9066 C.3     1  LIG1       -0.0391
     39 H           8.5761   -1.5660    2.4044 H       1  LIG1        0.0278
     40 H           7.1008   -1.6248    1.4257 H       1  LIG1        0.0278
     41 H           7.2730   -0.3997    2.6776 H       1  LIG1        0.0278
     42 S          10.5247    2.7716   -2.1439 S.3     1  LIG1       -0.1420
     43 H           9.4040    3.3823   -2.5762 H       1  LIG1        0.1071
     44 C          12.7544    1.8588    0.5216 C.ar    1  LIG1       -0.0426
     45 C          14.1485    1.7828    0.4284 C.ar    1  LIG1       -0.0572
     46 C          11.9933    0.9058   -0.1885 C.ar    1  LIG1       -0.0129
     47 C          14.7871    0.8105   -0.3375 C.ar    1  LIG1       -0.0483
     48 H          14.7525    2.5073    0.9683 H       1  LIG1        0.0621
     49 C          12.6338   -0.0806   -0.9487 C.ar    1  LIG1       -0.0406
     50 C          14.0284   -0.1346   -1.0340 C.ar    1  LIG1        0.0053
     51 H          12.0240   -0.8087   -1.4752 H       1  LIG1        0.0635
     52 H          15.8715    0.7911   -0.3932 H       1  LIG1        0.0629
     53 C          12.0970    2.9274    1.3615 C.3     1  LIG1       -0.0391
     54 H          12.8460    3.5151    1.8990 H       1  LIG1        0.0278
     55 H          11.4110    2.4958    2.0978 H       1  LIG1        0.0278
     56 H          11.5098    3.6150    0.7429 H       1  LIG1        0.0278
     57 S          14.8936   -1.3844   -1.9793 S.3     1  LIG1       -0.1426
     58 H          13.8185   -1.8695   -2.6295 H       1  LIG1        0.1071
@<TRIPOS>BOND
     1    58    57    1
     2    43    42    1
     3    25    24    1
     4    26    24    1
     5    42    36    1
     6    11    10    1
     7    57    50    1
     8    24    27    1
     9    24    16    1
    10    13    10    1
    11    20    17    1
    12    37    35    1
    13    51    49    1
    14    10    12    1
    15    10     1    1
    16     5     2    1
    17    50    49   ar
    18    50    47   ar
    19    36    35   ar
    20    36    33   ar
    21    49    46   ar
    22    35    32   ar
    23    16    17   ar
    24    16    18   ar
    25    17    19   ar
    26     1     2   ar
    27     1     3   ar
    28     2     4   ar
    29    52    47    1
    30    47    45   ar
    31    46    33    1
    32    46    44   ar
    33    33    31   ar
    34    32    19    1
    35    32    30   ar
    36    19    22   ar
    37    18     4    1
    38    18    21   ar
    39     4     7   ar
    40     3     9    1
    41     3     6   ar
    42    45    44   ar
    43    45    48    1
    44    44    53    1
    45    56    53    1
    46    31    30   ar
    47    31    34    1
    48     6     7   ar
    49     6     8    1
    50     7    14    1
    51    30    38    1
    52    21    22   ar
    53    21    23    1
    54    22    28    1
    55    53    54    1
    56    53    55    1
    57    40    38    1
    58    14    15    1
    59    38    39    1
    60    38    41    1
    61    28    29    1
