@<TRIPOS>MOLECULE
mol_data/opt/b3lyp/geoms/mol2/4ig4ig-4ig-.out
 44 46 0 0 0
SMALL
GASTEIGER

@<TRIPOS>ATOM
      1 C          -0.1566    1.0099   -0.9933 C.ar    1  LIG1       -0.0498
      2 C           1.2410    1.0094   -0.9785 C.ar    1  LIG1       -0.0501
      3 C          -0.8185    0.8521    0.2307 C.ar    1  LIG1       -0.0578
      4 C           1.9826    0.8594    0.2017 C.ar    1  LIG1       -0.0042
      5 H           1.7852    1.1247   -1.9125 H       1  LIG1        0.0627
      6 C          -0.1096    0.7104    1.4193 C.ar    1  LIG1       -0.0477
      7 C           1.2913    0.7135    1.4186 C.ar    1  LIG1        0.0125
      8 H          -0.6520    0.5982    2.3537 H       1  LIG1        0.0629
      9 H          -1.9053    0.8422    0.2587 H       1  LIG1        0.0621
     10 C          -0.9274    1.1944   -2.2788 C.3     1  LIG1       -0.0397
     11 H          -0.2899    1.0362   -3.1530 H       1  LIG1        0.0278
     12 H          -1.3420    2.2073   -2.3534 H       1  LIG1        0.0278
     13 H          -1.7690    0.4971   -2.3448 H       1  LIG1        0.0278
     14 S           2.2411    0.5574    2.9299 S.3     1  LIG1       -0.1420
     15 H           1.1818    0.3697    3.7414 H       1  LIG1        0.1071
     16 C           4.2263   -0.3215    0.0805 C.ar    1  LIG1       -0.0421
     17 C           5.6172   -0.2188   -0.0070 C.ar    1  LIG1       -0.0495
     18 C           3.4791    0.8736    0.1390 C.ar    1  LIG1       -0.0129
     19 C           6.2936    1.0074   -0.0333 C.ar    1  LIG1       -0.0042
     20 H           6.2099   -1.1286   -0.0571 H       1  LIG1        0.0627
     21 C           4.1389    2.1061    0.1004 C.ar    1  LIG1       -0.0400
     22 C           5.5332    2.1887    0.0185 C.ar    1  LIG1        0.0130
     23 H           3.5426    3.0131    0.1343 H       1  LIG1        0.0635
     24 C           3.5577   -1.6751    0.1038 C.3     1  LIG1       -0.0391
     25 H           4.2920   -2.4741   -0.0284 H       1  LIG1        0.0278
     26 H           2.8083   -1.7673   -0.6893 H       1  LIG1        0.0278
     27 H           3.0404   -1.8464    1.0542 H       1  LIG1        0.0278
     28 S           6.3848    3.7635   -0.0516 S.3     1  LIG1       -0.1420
     29 H           5.2885    4.5225    0.1430 H       1  LIG1        0.1071
     30 C           8.6019    1.1386    1.0101 C.ar    1  LIG1       -0.0426
     31 C           9.9896    1.1199    0.8311 C.ar    1  LIG1       -0.0572
     32 C           7.7876    1.0273   -0.1373 C.ar    1  LIG1       -0.0129
     33 C          10.5721    1.0033   -0.4287 C.ar    1  LIG1       -0.0483
     34 H          10.6338    1.2038    1.7025 H       1  LIG1        0.0621
     35 C           8.3716    0.8959   -1.4034 C.ar    1  LIG1       -0.0406
     36 C           9.7608    0.8885   -1.5611 C.ar    1  LIG1        0.0053
     37 H           7.7220    0.7999   -2.2683 H       1  LIG1        0.0635
     38 H          11.6536    1.0061   -0.5278 H       1  LIG1        0.0629
     39 C           8.0065    1.2749    2.3908 C.3     1  LIG1       -0.0391
     40 H           8.7870    1.2443    3.1556 H       1  LIG1        0.0278
     41 H           7.2905    0.4742    2.6026 H       1  LIG1        0.0278
     42 H           7.4667    2.2224    2.4982 H       1  LIG1        0.0278
     43 S          10.5520    0.7060   -3.1568 S.3     1  LIG1       -0.1426
     44 H           9.4556    0.9283   -3.9068 H       1  LIG1        0.1071
@<TRIPOS>BOND
     1    44    43    1
     2    43    36    1
     3    11    10    1
     4    12    10    1
     5    13    10    1
     6    10     1    1
     7    37    35    1
     8     5     2    1
     9    36    35   ar
    10    36    33   ar
    11    35    32   ar
    12     1     2   ar
    13     1     3   ar
    14     2     4   ar
    15    26    24    1
    16    38    33    1
    17    33    31   ar
    18    32    19    1
    19    32    30   ar
    20    20    17    1
    21    28    22    1
    22    28    29    1
    23    19    17   ar
    24    19    22   ar
    25    25    24    1
    26    17    16   ar
    27    22    21   ar
    28    16    24    1
    29    16    18   ar
    30    21    23    1
    31    21    18   ar
    32    24    27    1
    33    18     4    1
    34     4     7   ar
    35     3     9    1
    36     3     6   ar
    37    31    30   ar
    38    31    34    1
    39    30    39    1
    40     7     6   ar
    41     7    14    1
    42     6     8    1
    43    39    42    1
    44    39    41    1
    45    39    40    1
    46    14    15    1
