@<TRIPOS>MOLECULE
mol_data/opt/b3lyp/geoms/mol2/4ig4ig-.out
 30 31 0 0 0
SMALL
GASTEIGER

@<TRIPOS>ATOM
      1 C          -0.0393    0.2357   -0.7673 C.ar    1  LIG1       -0.0498
      2 C           1.3575    0.2963   -0.7935 C.ar    1  LIG1       -0.0501
      3 C          -0.7047    1.0196    0.1825 C.ar    1  LIG1       -0.0578
      4 C           2.0936    1.1033    0.0842 C.ar    1  LIG1       -0.0042
      5 H           1.9050   -0.3048   -1.5152 H       1  LIG1        0.0627
      6 C          -0.0012    1.8384    1.0610 C.ar    1  LIG1       -0.0477
      7 C           1.3977    1.8906    1.0212 C.ar    1  LIG1        0.0125
      8 H          -0.5470    2.4410    1.7812 H       1  LIG1        0.0629
      9 H          -1.7902    0.9943    0.2372 H       1  LIG1        0.0621
     10 C          -0.8033   -0.6233   -1.7465 C.3     1  LIG1       -0.0397
     11 H          -0.1939   -1.4560   -2.1094 H       1  LIG1        0.0278
     12 H          -1.1184   -0.0439   -2.6234 H       1  LIG1        0.0278
     13 H          -1.7080   -1.0395   -1.2926 H       1  LIG1        0.0278
     14 S           2.3392    2.9491    2.1188 S.3     1  LIG1       -0.1420
     15 H           1.2797    3.3936    2.8229 H       1  LIG1        0.1071
     16 C           4.3862    0.3126    0.8317 C.ar    1  LIG1       -0.0426
     17 C           5.7744    0.3638    0.6622 C.ar    1  LIG1       -0.0572
     18 C           3.5888    1.1193   -0.0082 C.ar    1  LIG1       -0.0129
     19 C           6.3738    1.1795   -0.2945 C.ar    1  LIG1       -0.0483
     20 H           6.4052   -0.2510    1.2989 H       1  LIG1        0.0621
     21 C           4.1896    1.9314   -0.9783 C.ar    1  LIG1       -0.0406
     22 C           5.5792    1.9726   -1.1272 C.ar    1  LIG1        0.0053
     23 H           3.5523    2.5355   -1.6174 H       1  LIG1        0.0635
     24 H           7.4555    1.1985   -0.3886 H       1  LIG1        0.0629
     25 C           3.7737   -0.5845    1.8804 C.3     1  LIG1       -0.0391
     26 H           4.5416   -1.1873    2.3723 H       1  LIG1        0.0278
     27 H           3.0340   -1.2654    1.4464 H       1  LIG1        0.0278
     28 H           3.2584   -0.0011    2.6513 H       1  LIG1        0.0278
     29 S           6.3909    2.9834   -2.3612 S.3     1  LIG1       -0.1426
     30 H           5.3053    3.6897   -2.7305 H       1  LIG1        0.1071
@<TRIPOS>BOND
     1    30    29    1
     2    12    10    1
     3    29    22    1
     4    11    10    1
     5    10    13    1
     6    10     1    1
     7    23    21    1
     8     5     2    1
     9    22    21   ar
    10    22    19   ar
    11    21    18   ar
    12     2     1   ar
    13     2     4   ar
    14     1     3   ar
    15    24    19    1
    16    19    17   ar
    17    18     4    1
    18    18    16   ar
    19     4     7   ar
    20     3     9    1
    21     3     6   ar
    22    17    16   ar
    23    17    20    1
    24    16    25    1
    25     7     6   ar
    26     7    14    1
    27     6     8    1
    28    27    25    1
    29    25    26    1
    30    25    28    1
    31    14    15    1
