@<TRIPOS>MOLECULE
mol_data/opt/b3lyp/geoms/mol2/4ig4ig4ig4ig-.out
 58 61 0 0 0
SMALL
GASTEIGER

@<TRIPOS>ATOM
      1 C          -0.2251    1.7898   -0.5514 C.ar    1  LIG1       -0.0498
      2 C           1.1714    1.7191   -0.5346 C.ar    1  LIG1       -0.0501
      3 C          -0.9328    0.8072    0.1506 C.ar    1  LIG1       -0.0578
      4 C           1.8665    0.7145    0.1516 C.ar    1  LIG1       -0.0042
      5 H           1.7505    2.4636   -1.0752 H       1  LIG1        0.0627
      6 C          -0.2696   -0.1977    0.8491 C.ar    1  LIG1       -0.0477
      7 C           1.1295   -0.2546    0.8583 C.ar    1  LIG1        0.0125
      8 H          -0.8473   -0.9416    1.3900 H       1  LIG1        0.0629
      9 H          -2.0198    0.8259    0.1556 H       1  LIG1        0.0621
     10 C          -0.9428    2.9020   -1.2784 C.3     1  LIG1       -0.0397
     11 H          -0.3370    3.3018   -2.0967 H       1  LIG1        0.0278
     12 H          -1.1709    3.7369   -0.6039 H       1  LIG1        0.0278
     13 H          -1.8927    2.5573   -1.6984 H       1  LIG1        0.0278
     14 S           2.0229   -1.5205    1.7584 S.3     1  LIG1       -0.1420
     15 H           0.9314   -2.2004    2.1613 H       1  LIG1        0.1071
     16 C           4.0794   -0.0730   -0.8095 C.ar    1  LIG1       -0.0421
     17 C           5.4749   -0.0032   -0.7860 C.ar    1  LIG1       -0.0495
     18 C           3.3641    0.7038    0.1259 C.ar    1  LIG1       -0.0129
     19 C           6.1853    0.7920    0.1221 C.ar    1  LIG1       -0.0042
     20 H           6.0434   -0.5912   -1.5018 H       1  LIG1        0.0627
     21 C           4.0587    1.5130    1.0307 C.ar    1  LIG1       -0.0400
     22 C           5.4567    1.5652    1.0429 C.ar    1  LIG1        0.0130
     23 H           3.4871    2.1109    1.7344 H       1  LIG1        0.0635
     24 C           3.3727   -0.9532   -1.8120 C.3     1  LIG1       -0.0391
     25 H           4.0890   -1.4219   -2.4918 H       1  LIG1        0.0278
     26 H           2.6557   -0.3841   -2.4130 H       1  LIG1        0.0278
     27 H           2.8102   -1.7500   -1.3132 H       1  LIG1        0.0278
     28 S           6.3537    2.6159    2.1837 S.3     1  LIG1       -0.1420
     29 H           5.2734    3.0155    2.8827 H       1  LIG1        0.1071
     30 C           8.4576   -0.0034    0.9246 C.ar    1  LIG1       -0.0421
     31 C           9.8482    0.0628    0.8025 C.ar    1  LIG1       -0.0495
     32 C           7.6819    0.8148    0.0767 C.ar    1  LIG1       -0.0129
     33 C          10.4970    0.9016   -0.1126 C.ar    1  LIG1       -0.0042
     34 H          10.4627   -0.5614    1.4461 H       1  LIG1        0.0627
     35 C           8.3142    1.6461   -0.8533 C.ar    1  LIG1       -0.0400
     36 C           9.7083    1.7017   -0.9575 C.ar    1  LIG1        0.0130
     37 H           7.6968    2.2575   -1.5047 H       1  LIG1        0.0635
     38 C           7.8193   -0.9280    1.9331 C.3     1  LIG1       -0.0391
     39 H           8.5754   -1.5347    2.4382 H       1  LIG1        0.0278
     40 H           7.1001   -1.6048    1.4601 H       1  LIG1        0.0278
     41 H           7.2725   -0.3651    2.6975 H       1  LIG1        0.0278
     42 S          10.5250    2.7478   -2.1615 S.3     1  LIG1       -0.1420
     43 H           9.4042    3.3508   -2.6039 H       1  LIG1        0.1071
     44 C          12.7518    1.8742    0.5186 C.ar    1  LIG1       -0.0426
     45 C          14.1462    1.7989    0.4288 C.ar    1  LIG1       -0.0572
     46 C          11.9932    0.9101   -0.1790 C.ar    1  LIG1       -0.0129
     47 C          14.7874    0.8165   -0.3219 C.ar    1  LIG1       -0.0483
     48 H          14.7483    2.5319    0.9594 H       1  LIG1        0.0621
     49 C          12.6365   -0.0862   -0.9239 C.ar    1  LIG1       -0.0406
     50 C          14.0312   -0.1396   -1.0060 C.ar    1  LIG1        0.0053
     51 H          12.0285   -0.8227   -1.4410 H       1  LIG1        0.0635
     52 H          15.8720    0.7978   -0.3753 H       1  LIG1        0.0629
     53 C          12.0916    2.9540    1.3419 C.3     1  LIG1       -0.0391
     54 H          12.8387    3.5488    1.8739 H       1  LIG1        0.0278
     55 H          11.4031    2.5322    2.0815 H       1  LIG1        0.0278
     56 H          11.5065    3.6332    0.7122 H       1  LIG1        0.0278
     57 S          14.8999   -1.4016   -1.9319 S.3     1  LIG1       -0.1426
     58 H          13.8261   -1.8989   -2.5750 H       1  LIG1        0.1071
@<TRIPOS>BOND
     1    43    42    1
     2    58    57    1
     3    25    24    1
     4    26    24    1
     5    42    36    1
     6    11    10    1
     7    57    50    1
     8    24    27    1
     9    24    16    1
    10    13    10    1
    11    37    35    1
    12    20    17    1
    13    51    49    1
    14    10    12    1
    15    10     1    1
    16     5     2    1
    17    50    49   ar
    18    50    47   ar
    19    36    35   ar
    20    36    33   ar
    21    49    46   ar
    22    35    32   ar
    23    16    17   ar
    24    16    18   ar
    25    17    19   ar
    26     1     2   ar
    27     1     3   ar
    28     2     4   ar
    29    52    47    1
    30    47    45   ar
    31    46    33    1
    32    46    44   ar
    33    33    31   ar
    34    32    19    1
    35    32    30   ar
    36    19    22   ar
    37    18     4    1
    38    18    21   ar
    39     3     9    1
    40     3     6   ar
    41     4     7   ar
    42    45    44   ar
    43    45    48    1
    44    44    53    1
    45    56    53    1
    46    31    30   ar
    47    31    34    1
    48     6     7   ar
    49     6     8    1
    50     7    14    1
    51    30    38    1
    52    21    22   ar
    53    21    23    1
    54    22    28    1
    55    53    54    1
    56    53    55    1
    57    40    38    1
    58    14    15    1
    59    38    39    1
    60    38    41    1
    61    28    29    1
