@<TRIPOS>MOLECULE
mol_data/opt/b3lyp/geoms/mol2/4ig4ig4ig.out
 44 46 0 0 0
SMALL
GASTEIGER

@<TRIPOS>ATOM
      1 C          -0.1570    1.0195   -0.9936 C.ar    1  LIG1       -0.0498
      2 C           1.2406    1.0188   -0.9794 C.ar    1  LIG1       -0.0501
      3 C          -0.8184    0.8505    0.2291 C.ar    1  LIG1       -0.0578
      4 C           1.9827    0.8580    0.1990 C.ar    1  LIG1       -0.0042
      5 H           1.7844    1.1425   -1.9126 H       1  LIG1        0.0627
      6 C          -0.1090    0.6979    1.4162 C.ar    1  LIG1       -0.0477
      7 C           1.2919    0.7009    1.4149 C.ar    1  LIG1        0.0125
      8 H          -0.6510    0.5770    2.3497 H       1  LIG1        0.0629
      9 H          -1.9052    0.8402    0.2574 H       1  LIG1        0.0621
     10 C          -0.9282    1.2166   -2.2770 C.3     1  LIG1       -0.0397
     11 H          -0.2946    1.0529   -3.1530 H       1  LIG1        0.0278
     12 H          -1.3305    2.2347   -2.3483 H       1  LIG1        0.0278
     13 H          -1.7784    0.5297   -2.3429 H       1  LIG1        0.0278
     14 S           2.2424    0.5309    2.9243 S.3     1  LIG1       -0.1420
     15 H           1.1834    0.3372    3.7347 H       1  LIG1        0.1071
     16 C           4.2261   -0.3222    0.0663 C.ar    1  LIG1       -0.0421
     17 C           5.6171   -0.2189   -0.0208 C.ar    1  LIG1       -0.0495
     18 C           3.4791    0.8725    0.1358 C.ar    1  LIG1       -0.0129
     19 C           6.2936    1.0074   -0.0364 C.ar    1  LIG1       -0.0042
     20 H           6.2096   -1.1283   -0.0794 H       1  LIG1        0.0627
     21 C           4.1391    2.1052    0.1081 C.ar    1  LIG1       -0.0400
     22 C           5.5334    2.1883    0.0265 C.ar    1  LIG1        0.0130
     23 H           3.5430    3.0120    0.1504 H       1  LIG1        0.0635
     24 C           3.5574   -1.6759    0.0777 C.3     1  LIG1       -0.0391
     25 H           4.2914   -2.4737   -0.0622 H       1  LIG1        0.0278
     26 H           2.8075   -1.7607   -0.7158 H       1  LIG1        0.0278
     27 H           3.0405   -1.8557    1.0268 H       1  LIG1        0.0278
     28 S           6.3853    3.7636   -0.0297 S.3     1  LIG1       -0.1420
     29 H           5.2893    4.5208    0.1731 H       1  LIG1        0.1071
     30 C           8.6023    1.1280    1.0074 C.ar    1  LIG1       -0.0426
     31 C           9.9899    1.1108    0.8278 C.ar    1  LIG1       -0.0572
     32 C           7.7876    1.0280   -0.1407 C.ar    1  LIG1       -0.0129
     33 C          10.5719    1.0064   -0.4333 C.ar    1  LIG1       -0.0483
     34 H          10.6344    1.1861    1.6997 H       1  LIG1        0.0621
     35 C           8.3711    0.9089   -1.4082 C.ar    1  LIG1       -0.0406
     36 C           9.7602    0.9028   -1.5665 C.ar    1  LIG1        0.0053
     37 H           7.7211    0.8215   -2.2738 H       1  LIG1        0.0635
     38 H          11.6534    1.0099   -0.5327 H       1  LIG1        0.0629
     39 C           8.0073    1.2511    2.3895 C.3     1  LIG1       -0.0391
     40 H           8.7882    1.2134    3.1538 H       1  LIG1        0.0278
     41 H           7.2916    0.4483    2.5941 H       1  LIG1        0.0278
     42 H           7.4674    2.1974    2.5061 H       1  LIG1        0.0278
     43 S          10.5508    0.7359   -3.1642 S.3     1  LIG1       -0.1426
     44 H           9.4539    0.9645   -3.9115 H       1  LIG1        0.1071
@<TRIPOS>BOND
     1    44    43    1
     2    43    36    1
     3    11    10    1
     4    12    10    1
     5    13    10    1
     6    10     1    1
     7    37    35    1
     8     5     2    1
     9    36    35   ar
    10    36    33   ar
    11    35    32   ar
    12     1     2   ar
    13     1     3   ar
    14     2     4   ar
    15    26    24    1
    16    38    33    1
    17    33    31   ar
    18    32    19    1
    19    32    30   ar
    20    20    17    1
    21    25    24    1
    22    19    17   ar
    23    19    22   ar
    24    28    22    1
    25    28    29    1
    26    17    16   ar
    27    22    21   ar
    28    16    24    1
    29    16    18   ar
    30    24    27    1
    31    21    18   ar
    32    21    23    1
    33    18     4    1
    34     4     7   ar
    35     3     9    1
    36     3     6   ar
    37    31    30   ar
    38    31    34    1
    39    30    39    1
    40     7     6   ar
    41     7    14    1
    42     6     8    1
    43    39    42    1
    44    39    41    1
    45    39    40    1
    46    14    15    1
