@<TRIPOS>MOLECULE
mol_data/opt/b3lyp/geoms/mol2/4ig4ig-4ig4ig-.out
 58 61 0 0 0
SMALL
GASTEIGER

@<TRIPOS>ATOM
      1 C          -0.2258    1.7950   -0.5285 C.ar    1  LIG1       -0.0498
      2 C           1.1702    1.7230   -0.5166 C.ar    1  LIG1       -0.0501
      3 C          -0.9320    0.8146    0.1790 C.ar    1  LIG1       -0.0578
      4 C           1.8672    0.7188    0.1692 C.ar    1  LIG1       -0.0042
      5 H           1.7480    2.4661   -1.0605 H       1  LIG1        0.0627
      6 C          -0.2674   -0.1894    0.8766 C.ar    1  LIG1       -0.0477
      7 C           1.1321   -0.2479    0.8802 C.ar    1  LIG1        0.0125
      8 H          -0.8436   -0.9314    1.4218 H       1  LIG1        0.0629
      9 H          -2.0190    0.8346    0.1885 H       1  LIG1        0.0621
     10 C          -0.9473    2.9031   -1.2578 C.3     1  LIG1       -0.0397
     11 H          -0.3062    3.3699   -2.0108 H       1  LIG1        0.0278
     12 H          -1.2687    3.6923   -0.5667 H       1  LIG1        0.0278
     13 H          -1.8451    2.5317   -1.7622 H       1  LIG1        0.0278
     14 S           2.0273   -1.5133    1.7794 S.3     1  LIG1       -0.1420
     15 H           0.9365   -2.1922    2.1860 H       1  LIG1        0.1071
     16 C           4.0760   -0.0708   -0.7997 C.ar    1  LIG1       -0.0421
     17 C           5.4716   -0.0022   -0.7813 C.ar    1  LIG1       -0.0495
     18 C           3.3647    0.7069    0.1381 C.ar    1  LIG1       -0.0129
     19 C           6.1859    0.7926    0.1239 C.ar    1  LIG1       -0.0042
     20 H           6.0370   -0.5909   -1.4992 H       1  LIG1        0.0627
     21 C           4.0632    1.5156    1.0402 C.ar    1  LIG1       -0.0400
     22 C           5.4614    1.5665    1.0473 C.ar    1  LIG1        0.0130
     23 H           3.4947    2.1141    1.7459 H       1  LIG1        0.0635
     24 C           3.3648   -0.9509   -1.7991 C.3     1  LIG1       -0.0391
     25 H           4.0781   -1.4205   -2.4815 H       1  LIG1        0.0278
     26 H           2.6459   -0.3816   -2.3976 H       1  LIG1        0.0278
     27 H           2.8035   -1.7471   -1.2977 H       1  LIG1        0.0278
     28 S           6.3637    2.6160    2.1852 S.3     1  LIG1       -0.1420
     29 H           5.2864    3.0162    2.8884 H       1  LIG1        0.1071
     30 C           8.4602   -0.0074    0.9158 C.ar    1  LIG1       -0.0421
     31 C           9.8504    0.0579    0.7895 C.ar    1  LIG1       -0.0495
     32 C           7.6824    0.8143    0.0734 C.ar    1  LIG1       -0.0129
     33 C          10.4969    0.8994   -0.1248 C.ar    1  LIG1       -0.0042
     34 H          10.4664   -0.5690    1.4289 H       1  LIG1        0.0627
     35 C           8.3123    1.6484   -0.8557 C.ar    1  LIG1       -0.0400
     36 C           9.7061    1.7032   -0.9643 C.ar    1  LIG1        0.0130
     37 H           7.6934    2.2627   -1.5029 H       1  LIG1        0.0635
     38 C           7.8242   -0.9346    1.9236 C.3     1  LIG1       -0.0391
     39 H           8.5814   -1.5430    2.4249 H       1  LIG1        0.0278
     40 H           7.1033   -1.6097    1.4508 H       1  LIG1        0.0278
     41 H           7.2798   -0.3735    2.6911 H       1  LIG1        0.0278
     42 S          10.5199    2.7531   -2.1668 S.3     1  LIG1       -0.1420
     43 H           9.3981    3.3583   -2.6038 H       1  LIG1        0.1071
     44 C          12.7545    1.8673    0.5035 C.ar    1  LIG1       -0.0426
     45 C          14.1486    1.7914    0.4087 C.ar    1  LIG1       -0.0572
     46 C          11.9929    0.9071   -0.1962 C.ar    1  LIG1       -0.0129
     47 C          14.7866    0.8123   -0.3490 C.ar    1  LIG1       -0.0483
     48 H          14.7529    2.5215    0.9407 H       1  LIG1        0.0621
     49 C          12.6329   -0.0861   -0.9480 C.ar    1  LIG1       -0.0406
     50 C          14.0274   -0.1399   -1.0351 C.ar    1  LIG1        0.0053
     51 H          12.0227   -0.8196   -1.4666 H       1  LIG1        0.0635
     52 H          15.8709    0.7932   -0.4063 H       1  LIG1        0.0629
     53 C          12.0977    2.9434    1.3343 C.3     1  LIG1       -0.0391
     54 H          12.8472    3.5374    1.8640 H       1  LIG1        0.0278
     55 H          11.4142    2.5183    2.0765 H       1  LIG1        0.0278
     56 H          11.5081    3.6240    0.7103 H       1  LIG1        0.0278
     57 S          14.8920   -1.3982   -1.9699 S.3     1  LIG1       -0.1426
     58 H          13.8162   -1.8896   -2.6142 H       1  LIG1        0.1071
@<TRIPOS>BOND
     1    58    57    1
     2    43    42    1
     3    25    24    1
     4    26    24    1
     5    42    36    1
     6    11    10    1
     7    57    50    1
     8    24    27    1
     9    24    16    1
    10    13    10    1
    11    37    35    1
    12    20    17    1
    13    51    49    1
    14    10    12    1
    15    10     1    1
    16     5     2    1
    17    50    49   ar
    18    50    47   ar
    19    36    35   ar
    20    36    33   ar
    21    49    46   ar
    22    35    32   ar
    23    16    17   ar
    24    16    18   ar
    25    17    19   ar
    26     1     2   ar
    27     1     3   ar
    28     2     4   ar
    29    52    47    1
    30    47    45   ar
    31    46    33    1
    32    46    44   ar
    33    33    31   ar
    34    32    19    1
    35    32    30   ar
    36    19    22   ar
    37    18     4    1
    38    18    21   ar
    39     4     7   ar
    40     3     9    1
    41     3     6   ar
    42    45    44   ar
    43    45    48    1
    44    44    53    1
    45    56    53    1
    46    31    30   ar
    47    31    34    1
    48     6     7   ar
    49     6     8    1
    50     7    14    1
    51    30    38    1
    52    21    22   ar
    53    21    23    1
    54    22    28    1
    55    53    54    1
    56    53    55    1
    57    40    38    1
    58    14    15    1
    59    38    39    1
    60    38    41    1
    61    28    29    1
