@<TRIPOS>MOLECULE
mol_data/opt/b3lyp/geoms/mol2/4ig4ig.out
 30 31 0 0 0
SMALL
GASTEIGER

@<TRIPOS>ATOM
      1 C          -0.0448    0.2574   -0.7699 C.ar    1  LIG1       -0.0498
      2 C           1.3521    0.3117   -0.8000 C.ar    1  LIG1       -0.0501
      3 C          -0.7034    1.0325    0.1918 C.ar    1  LIG1       -0.0578
      4 C           2.0949    1.1043    0.0852 C.ar    1  LIG1       -0.0042
      5 H           1.8944   -0.2828   -1.5311 H       1  LIG1        0.0627
      6 C           0.0068    1.8369    1.0781 C.ar    1  LIG1       -0.0477
      7 C           1.4058    1.8831    1.0343 C.ar    1  LIG1        0.0125
      8 H          -0.5339    2.4330    1.8075 H       1  LIG1        0.0629
      9 H          -1.7889    1.0116    0.2497 H       1  LIG1        0.0621
     10 C          -0.8162   -0.5859   -1.7571 C.3     1  LIG1       -0.0397
     11 H          -0.2087   -1.4110   -2.1397 H       1  LIG1        0.0278
     12 H          -1.1403    0.0081   -2.6209 H       1  LIG1        0.0278
     13 H          -1.7161   -1.0116   -1.3024 H       1  LIG1        0.0278
     14 S           2.3557    2.9234    2.1419 S.3     1  LIG1       -0.1420
     15 H           1.3004    3.3643    2.8546 H       1  LIG1        0.1071
     16 C           4.3861    0.2937    0.8153 C.ar    1  LIG1       -0.0426
     17 C           5.7740    0.3407    0.6421 C.ar    1  LIG1       -0.0572
     18 C           3.5899    1.1146   -0.0118 C.ar    1  LIG1       -0.0129
     19 C           6.3742    1.1656   -0.3061 C.ar    1  LIG1       -0.0483
     20 H           6.4040   -0.2849    1.2691 H       1  LIG1        0.0621
     21 C           4.1913    1.9360   -0.9735 C.ar    1  LIG1       -0.0406
     22 C           5.5807    1.9728   -1.1263 C.ar    1  LIG1        0.0053
     23 H           3.5548    2.5509   -1.6031 H       1  LIG1        0.0635
     24 H           7.4557    1.1811   -0.4033 H       1  LIG1        0.0629
     25 C           3.7728   -0.6138    1.8545 C.3     1  LIG1       -0.0391
     26 H           4.5395   -1.2263    2.3363 H       1  LIG1        0.0278
     27 H           3.0286   -1.2858    1.4144 H       1  LIG1        0.0278
     28 H           3.2627   -0.0379    2.6345 H       1  LIG1        0.0278
     29 S           6.3931    2.9951   -2.3504 S.3     1  LIG1       -0.1426
     30 H           5.3104    3.7134   -2.7046 H       1  LIG1        0.1071
@<TRIPOS>BOND
     1    30    29    1
     2    12    10    1
     3    29    22    1
     4    11    10    1
     5    10    13    1
     6    10     1    1
     7    23    21    1
     8     5     2    1
     9    22    21   ar
    10    22    19   ar
    11    21    18   ar
    12     2     1   ar
    13     2     4   ar
    14     1     3   ar
    15    24    19    1
    16    19    17   ar
    17    18     4    1
    18    18    16   ar
    19     4     7   ar
    20     3     9    1
    21     3     6   ar
    22    17    16   ar
    23    17    20    1
    24    16    25    1
    25     7     6   ar
    26     7    14    1
    27     6     8    1
    28    27    25    1
    29    25    26    1
    30    25    28    1
    31    14    15    1
