@<TRIPOS>MOLECULE
mol_data/opt/b3lyp/geoms/mol2/4ig4ig4ig-4ig-.out
 58 61 0 0 0
SMALL
GASTEIGER

@<TRIPOS>ATOM
      1 C          -0.2253    1.7832   -0.5603 C.ar    1  LIG1       -0.0498
      2 C           1.1712    1.7132   -0.5422 C.ar    1  LIG1       -0.0501
      3 C          -0.9329    0.8052    0.1481 C.ar    1  LIG1       -0.0578
      4 C           1.8664    0.7138    0.1514 C.ar    1  LIG1       -0.0042
      5 H           1.7503    2.4543   -1.0876 H       1  LIG1        0.0627
      6 C          -0.2697   -0.1946    0.8538 C.ar    1  LIG1       -0.0477
      7 C           1.1294   -0.2508    0.8642 C.ar    1  LIG1        0.0125
      8 H          -0.8474   -0.9351    1.3995 H       1  LIG1        0.0629
      9 H          -2.0199    0.8234    0.1523 H       1  LIG1        0.0621
     10 C          -0.9430    2.8900   -1.2954 C.3     1  LIG1       -0.0397
     11 H          -0.3378    3.2830   -2.1174 H       1  LIG1        0.0278
     12 H          -1.1698    3.7304   -0.6273 H       1  LIG1        0.0278
     13 H          -1.8936    2.5427   -1.7117 H       1  LIG1        0.0278
     14 S           2.0230   -1.5103    1.7733 S.3     1  LIG1       -0.1420
     15 H           0.9316   -2.1881    2.1799 H       1  LIG1        0.1071
     16 C           4.0802   -0.0778   -0.8042 C.ar    1  LIG1       -0.0421
     17 C           5.4756   -0.0074   -0.7803 C.ar    1  LIG1       -0.0495
     18 C           3.3641    0.7036    0.1267 C.ar    1  LIG1       -0.0129
     19 C           6.1852    0.7928    0.1241 C.ar    1  LIG1       -0.0042
     20 H           6.0448   -0.5989   -1.4928 H       1  LIG1        0.0627
     21 C           4.0578    1.5176    1.0278 C.ar    1  LIG1       -0.0400
     22 C           5.4558    1.5703    1.0405 C.ar    1  LIG1        0.0130
     23 H           3.4856    2.1188    1.7282 H       1  LIG1        0.0635
     24 C           3.3743   -0.9637   -1.8024 C.3     1  LIG1       -0.0391
     25 H           4.0912   -1.4363   -2.4789 H       1  LIG1        0.0278
     26 H           2.6579   -0.3979   -2.4073 H       1  LIG1        0.0278
     27 H           2.8112   -1.7576   -1.2995 H       1  LIG1        0.0278
     28 S           6.3519    2.6269    2.1767 S.3     1  LIG1       -0.1420
     29 H           5.2708    3.0309    2.8721 H       1  LIG1        0.1071
     30 C           8.4574    0.0017    0.9312 C.ar    1  LIG1       -0.0421
     31 C           9.8480    0.0676    0.8095 C.ar    1  LIG1       -0.0495
     32 C           7.6818    0.8159    0.0793 C.ar    1  LIG1       -0.0129
     33 C          10.4970    0.9024   -0.1091 C.ar    1  LIG1       -0.0042
     34 H          10.4623   -0.5535    1.4561 H       1  LIG1        0.0627
     35 C           8.3144    1.6431   -0.8541 C.ar    1  LIG1       -0.0400
     36 C           9.7085    1.6985   -0.9580 C.ar    1  LIG1        0.0130
     37 H           7.6972    2.2515   -1.5086 H       1  LIG1        0.0635
     38 C           7.8187   -0.9189    1.9432 C.3     1  LIG1       -0.0391
     39 H           8.5753   -1.5186    2.4558 H       1  LIG1        0.0278
     40 H           7.1050   -1.6024    1.4715 H       1  LIG1        0.0278
     41 H           7.2656   -0.3534    2.7011 H       1  LIG1        0.0278
     42 S          10.5254    2.7390   -2.1668 S.3     1  LIG1       -0.1420
     43 H           9.4045    3.3396   -2.6124 H       1  LIG1        0.1071
     44 C          12.7514    1.8800    0.5165 C.ar    1  LIG1       -0.0426
     45 C          14.1458    1.8044    0.4276 C.ar    1  LIG1       -0.0572
     46 C          11.9933    0.9109   -0.1750 C.ar    1  LIG1       -0.0129
     47 C          14.7876    0.8173   -0.3164 C.ar    1  LIG1       -0.0483
     48 H          14.7475    2.5411    0.9534 H       1  LIG1        0.0621
     49 C          12.6371   -0.0904   -0.9125 C.ar    1  LIG1       -0.0406
     50 C          14.0319   -0.1437   -0.9941 C.ar    1  LIG1        0.0053
     51 H          12.0296   -0.8308   -1.4246 H       1  LIG1        0.0635
     52 H          15.8722    0.7988   -0.3698 H       1  LIG1        0.0629
     53 C          12.0906    2.9651    1.3322 C.3     1  LIG1       -0.0391
     54 H          12.8373    3.5609    1.8640 H       1  LIG1        0.0278
     55 H          11.3986    2.5485    2.0714 H       1  LIG1        0.0278
     56 H          11.5094    3.6426    0.6970 H       1  LIG1        0.0278
     57 S          14.9011   -1.4124   -1.9103 S.3     1  LIG1       -0.1426
     58 H          13.8295   -1.9071   -2.5590 H       1  LIG1        0.1071
@<TRIPOS>BOND
     1    43    42    1
     2    58    57    1
     3    25    24    1
     4    26    24    1
     5    42    36    1
     6    11    10    1
     7    57    50    1
     8    24    27    1
     9    24    16    1
    10    13    10    1
    11    37    35    1
    12    20    17    1
    13    51    49    1
    14    10    12    1
    15    10     1    1
    16     5     2    1
    17    50    49   ar
    18    50    47   ar
    19    36    35   ar
    20    36    33   ar
    21    49    46   ar
    22    35    32   ar
    23    16    17   ar
    24    16    18   ar
    25    17    19   ar
    26     1     2   ar
    27     1     3   ar
    28     2     4   ar
    29    52    47    1
    30    47    45   ar
    31    46    33    1
    32    46    44   ar
    33    33    31   ar
    34    32    19    1
    35    32    30   ar
    36    19    22   ar
    37    18     4    1
    38    18    21   ar
    39     3     9    1
    40     3     6   ar
    41     4     7   ar
    42    45    44   ar
    43    45    48    1
    44    44    53    1
    45    56    53    1
    46    31    30   ar
    47    31    34    1
    48     6     7   ar
    49     6     8    1
    50     7    14    1
    51    30    38    1
    52    21    22   ar
    53    21    23    1
    54    22    28    1
    55    53    54    1
    56    53    55    1
    57    40    38    1
    58    14    15    1
    59    38    39    1
    60    38    41    1
    61    28    29    1
