@<TRIPOS>MOLECULE
mol_data/opt/b3lyp/geoms/mol2/4ig4ig-4ig.out
 44 46 0 0 0
SMALL
GASTEIGER

@<TRIPOS>ATOM
      1 C          -0.1573    1.0119   -0.9920 C.ar    1  LIG1       -0.0498
      2 C           1.2404    1.0130   -0.9779 C.ar    1  LIG1       -0.0501
      3 C          -0.8184    0.8445    0.2311 C.ar    1  LIG1       -0.0578
      4 C           1.9827    0.8554    0.2008 C.ar    1  LIG1       -0.0042
      5 H           1.7839    1.1354   -1.9114 H       1  LIG1        0.0627
      6 C          -0.1087    0.6951    1.4185 C.ar    1  LIG1       -0.0477
      7 C           1.2922    0.6999    1.4171 C.ar    1  LIG1        0.0125
      8 H          -0.6505    0.5754    2.3522 H       1  LIG1        0.0629
      9 H          -1.9052    0.8329    0.2595 H       1  LIG1        0.0621
     10 C          -0.9288    1.2059   -2.2757 C.3     1  LIG1       -0.0397
     11 H          -0.2968    1.0346   -3.1514 H       1  LIG1        0.0278
     12 H          -1.3261    2.2256   -2.3520 H       1  LIG1        0.0278
     13 H          -1.7823    0.5229   -2.3371 H       1  LIG1        0.0278
     14 S           2.2430    0.5340    2.9266 S.3     1  LIG1       -0.1420
     15 H           1.1843    0.3406    3.7376 H       1  LIG1        0.1071
     16 C           4.2275   -0.3224    0.0701 C.ar    1  LIG1       -0.0421
     17 C           5.6183   -0.2177   -0.0172 C.ar    1  LIG1       -0.0495
     18 C           3.4791    0.8715    0.1374 C.ar    1  LIG1       -0.0129
     19 C           6.2934    1.0093   -0.0352 C.ar    1  LIG1       -0.0042
     20 H           6.2118   -1.1265   -0.0741 H       1  LIG1        0.0627
     21 C           4.1377    2.1049    0.1073 C.ar    1  LIG1       -0.0400
     22 C           5.5319    2.1895    0.0254 C.ar    1  LIG1        0.0130
     23 H           3.5405    3.0111    0.1479 H       1  LIG1        0.0635
     24 C           3.5603   -1.6768    0.0841 C.3     1  LIG1       -0.0391
     25 H           4.2953   -2.4741   -0.0539 H       1  LIG1        0.0278
     26 H           2.8107   -1.7641   -0.7094 H       1  LIG1        0.0278
     27 H           3.0434   -1.8554    1.0335 H       1  LIG1        0.0278
     28 S           6.3819    3.7656   -0.0337 S.3     1  LIG1       -0.1420
     29 H           5.2851    4.5220    0.1675 H       1  LIG1        0.1071
     30 C           8.6020    1.1346    1.0083 C.ar    1  LIG1       -0.0426
     31 C           9.9896    1.1186    0.8286 C.ar    1  LIG1       -0.0572
     32 C           7.7874    1.0315   -0.1396 C.ar    1  LIG1       -0.0129
     33 C          10.5717    1.0125   -0.4323 C.ar    1  LIG1       -0.0483
     34 H          10.6341    1.1963    1.7004 H       1  LIG1        0.0621
     35 C           8.3709    0.9107   -1.4069 C.ar    1  LIG1       -0.0406
     36 C           9.7601    0.9059   -1.5653 C.ar    1  LIG1        0.0053
     37 H           7.7210    0.8209   -2.2723 H       1  LIG1        0.0635
     38 H          11.6531    1.0171   -0.5318 H       1  LIG1        0.0629
     39 C           8.0070    1.2596    2.3902 C.3     1  LIG1       -0.0391
     40 H           8.7879    1.2241    3.1545 H       1  LIG1        0.0278
     41 H           7.2921    0.4564    2.5962 H       1  LIG1        0.0278
     42 H           7.4661    2.2056    2.5051 H       1  LIG1        0.0278
     43 S          10.5508    0.7368   -3.1626 S.3     1  LIG1       -0.1426
     44 H           9.4536    0.9627   -3.9104 H       1  LIG1        0.1071
@<TRIPOS>BOND
     1    44    43    1
     2    43    36    1
     3    11    10    1
     4    12    10    1
     5    13    10    1
     6    10     1    1
     7    37    35    1
     8     5     2    1
     9    36    35   ar
    10    36    33   ar
    11    35    32   ar
    12     1     2   ar
    13     1     3   ar
    14     2     4   ar
    15    26    24    1
    16    38    33    1
    17    33    31   ar
    18    32    19    1
    19    32    30   ar
    20    20    17    1
    21    25    24    1
    22    19    17   ar
    23    19    22   ar
    24    28    22    1
    25    28    29    1
    26    17    16   ar
    27    22    21   ar
    28    16    24    1
    29    16    18   ar
    30    24    27    1
    31    21    18   ar
    32    21    23    1
    33    18     4    1
    34     4     7   ar
    35     3     9    1
    36     3     6   ar
    37    31    30   ar
    38    31    34    1
    39    30    39    1
    40     7     6   ar
    41     7    14    1
    42     6     8    1
    43    39    42    1
    44    39    41    1
    45    39    40    1
    46    14    15    1
