@<TRIPOS>MOLECULE
mol_data/opt/b3lyp/geoms/mol2/4ig4ig-4ig-4ig.out
 58 61 0 0 0
SMALL
GASTEIGER

@<TRIPOS>ATOM
      1 C          -0.2274    1.7816   -0.5403 C.ar    1  LIG1       -0.0498
      2 C           1.1692    1.7124   -0.5262 C.ar    1  LIG1       -0.0501
      3 C          -0.9325    0.8011    0.1672 C.ar    1  LIG1       -0.0578
      4 C           1.8669    0.7115    0.1627 C.ar    1  LIG1       -0.0042
      5 H           1.7464    2.4555   -1.0710 H       1  LIG1        0.0627
      6 C          -0.2668   -0.2004    0.8682 C.ar    1  LIG1       -0.0477
      7 C           1.1324   -0.2557    0.8746 C.ar    1  LIG1        0.0125
      8 H          -0.8425   -0.9428    1.4133 H       1  LIG1        0.0629
      9 H          -2.0194    0.8186    0.1744 H       1  LIG1        0.0621
     10 C          -0.9477    2.8902   -1.2701 C.3     1  LIG1       -0.0397
     11 H          -0.3481    3.2807   -2.0974 H       1  LIG1        0.0278
     12 H          -1.1661    3.7318   -0.6008 H       1  LIG1        0.0278
     13 H          -1.9028    2.5456   -1.6782 H       1  LIG1        0.0278
     14 S           2.0293   -1.5174    1.7773 S.3     1  LIG1       -0.1420
     15 H           0.9395   -2.1970    2.1852 H       1  LIG1        0.1071
     16 C           4.0785   -0.0750   -0.8021 C.ar    1  LIG1       -0.0421
     17 C           5.4740   -0.0040   -0.7815 C.ar    1  LIG1       -0.0495
     18 C           3.3645    0.7022    0.1339 C.ar    1  LIG1       -0.0129
     19 C           6.1855    0.7926    0.1244 C.ar    1  LIG1       -0.0042
     20 H           6.0416   -0.5924   -1.4978 H       1  LIG1        0.0627
     21 C           4.0601    1.5126    1.0367 C.ar    1  LIG1       -0.0400
     22 C           5.4581    1.5660    1.0460 C.ar    1  LIG1        0.0130
     23 H           3.4894    2.1107    1.7410 H       1  LIG1        0.0635
     24 C           3.3705   -0.9573   -1.8019 C.3     1  LIG1       -0.0391
     25 H           4.0857   -1.4264   -2.4825 H       1  LIG1        0.0278
     26 H           2.6517   -0.3897   -2.4022 H       1  LIG1        0.0278
     27 H           2.8096   -1.7538   -1.3007 H       1  LIG1        0.0278
     28 S           6.3566    2.6184    2.1841 S.3     1  LIG1       -0.1420
     29 H           5.2771    3.0193    2.8837 H       1  LIG1        0.1071
     30 C           8.4601   -0.0001    0.9232 C.ar    1  LIG1       -0.0421
     31 C           9.8503    0.0667    0.7980 C.ar    1  LIG1       -0.0495
     32 C           7.6819    0.8164    0.0759 C.ar    1  LIG1       -0.0129
     33 C          10.4967    0.9047   -0.1196 C.ar    1  LIG1       -0.0042
     34 H          10.4666   -0.5563    1.4411 H       1  LIG1        0.0627
     35 C           8.3118    1.6468   -0.8566 C.ar    1  LIG1       -0.0400
     36 C           9.7056    1.7030   -0.9640 C.ar    1  LIG1        0.0130
     37 H           7.6926    2.2569   -1.5076 H       1  LIG1        0.0635
     38 C           7.8245   -0.9239    1.9342 C.3     1  LIG1       -0.0391
     39 H           8.5821   -1.5289    2.4390 H       1  LIG1        0.0278
     40 H           7.1053   -1.6023    1.4635 H       1  LIG1        0.0278
     41 H           7.2783   -0.3605    2.6986 H       1  LIG1        0.0278
     42 S          10.5190    2.7475   -2.1717 S.3     1  LIG1       -0.1420
     43 H           9.3967    3.3490   -2.6127 H       1  LIG1        0.1071
     44 C          12.7526    1.8811    0.5026 C.ar    1  LIG1       -0.0426
     45 C          14.1468    1.8061    0.4096 C.ar    1  LIG1       -0.0572
     46 C          11.9927    0.9139   -0.1894 C.ar    1  LIG1       -0.0129
     47 C          14.7866    0.8212   -0.3389 C.ar    1  LIG1       -0.0483
     48 H          14.7497    2.5415    0.9358 H       1  LIG1        0.0621
     49 C          12.6347   -0.0852   -0.9317 C.ar    1  LIG1       -0.0406
     50 C          14.0293   -0.1381   -1.0172 C.ar    1  LIG1        0.0053
     51 H          12.0259   -0.8241   -1.4443 H       1  LIG1        0.0635
     52 H          15.8710    0.8029   -0.3952 H       1  LIG1        0.0629
     53 C          12.0939    2.9637    1.3235 C.3     1  LIG1       -0.0391
     54 H          12.8421    3.5590    1.8536 H       1  LIG1        0.0278
     55 H          11.4055    2.5446    2.0646 H       1  LIG1        0.0278
     56 H          11.5093    3.6420    0.6924 H       1  LIG1        0.0278
     57 S          14.8962   -1.4036   -1.9398 S.3     1  LIG1       -0.1426
     58 H          13.8220   -1.9006   -2.5824 H       1  LIG1        0.1071
@<TRIPOS>BOND
     1    43    42    1
     2    58    57    1
     3    25    24    1
     4    26    24    1
     5    42    36    1
     6    11    10    1
     7    57    50    1
     8    24    27    1
     9    24    16    1
    10    13    10    1
    11    37    35    1
    12    20    17    1
    13    51    49    1
    14    10    12    1
    15    10     1    1
    16     5     2    1
    17    50    49   ar
    18    50    47   ar
    19    36    35   ar
    20    36    33   ar
    21    49    46   ar
    22    35    32   ar
    23    16    17   ar
    24    16    18   ar
    25    17    19   ar
    26     1     2   ar
    27     1     3   ar
    28     2     4   ar
    29    52    47    1
    30    47    45   ar
    31    46    33    1
    32    46    44   ar
    33    33    31   ar
    34    32    19    1
    35    32    30   ar
    36    19    22   ar
    37    18     4    1
    38    18    21   ar
    39     4     7   ar
    40     3     9    1
    41     3     6   ar
    42    45    44   ar
    43    45    48    1
    44    44    53    1
    45    56    53    1
    46    31    30   ar
    47    31    34    1
    48     6     7   ar
    49     6     8    1
    50     7    14    1
    51    30    38    1
    52    21    22   ar
    53    21    23    1
    54    22    28    1
    55    53    54    1
    56    53    55    1
    57    40    38    1
    58    14    15    1
    59    38    39    1
    60    38    41    1
    61    28    29    1
