@<TRIPOS>MOLECULE
mol_data/opt/b3lyp/geoms/mol2/4ih12hd-12lh-4if.out
 54 57 0 0 0
SMALL
GASTEIGER

@<TRIPOS>ATOM
      1 C          -0.1676   -0.1096    0.4002 C.ar    1  LIG1       -0.0497
      2 C           1.2008    0.0986    0.5520 C.ar    1  LIG1       -0.0463
      3 C          -0.8573    0.7481   -0.4701 C.ar    1  LIG1       -0.0571
      4 C           1.9074    1.1101   -0.1347 C.ar    1  LIG1        0.0400
      5 H           1.7515   -0.5270    1.2487 H       1  LIG1        0.0628
      6 C          -0.2004    1.7737   -1.1341 C.ar    1  LIG1       -0.0401
      7 C           1.1820    1.9881   -0.9857 C.ar    1  LIG1        0.0354
      8 H          -0.7603    2.4409   -1.7851 H       1  LIG1        0.0636
      9 H          -1.9266    0.6200   -0.6194 H       1  LIG1        0.0621
     10 C          -0.8878   -1.2041    1.1522 C.3     1  LIG1       -0.0397
     11 H          -0.2031   -1.7601    1.7987 H       1  LIG1        0.0278
     12 H          -1.3565   -1.9226    0.4689 H       1  LIG1        0.0278
     13 H          -1.6854   -0.7997    1.7864 H       1  LIG1        0.0278
     14 N           1.7698    3.0613   -1.6432 N.pl3   1  LIG1       -0.3574
     15 H           2.7766    3.1061   -1.6490 H       1  LIG1        0.1423
     16 H           1.3291    3.3402   -2.5068 H       1  LIG1        0.1423
     17 C           3.3545    1.1651    0.0204 C.ar    1  LIG1        0.1594
     18 C           4.2998    0.1969    0.2862 C.ar    1  LIG1        0.0894
     19 C           5.5762    0.8651    0.3357 C.ar    1  LIG1        0.1218
     20 C           5.3373    2.2090    0.0749 C.ar    1  LIG1        0.1935
     21 O           4.0074    2.3874   -0.1139 O.2     1  LIG1       -0.4483
     22 N           4.1167   -1.1595    0.5223 N.pl3   1  LIG1       -0.3540
     23 H           3.3109   -1.5565    0.0556 H       1  LIG1        0.1425
     24 H           4.9513   -1.7145    0.3767 H       1  LIG1        0.1425
     25 N           7.7534   -0.4223    0.8341 N.1     1  LIG1       -0.1907
     26 C           6.7957    0.2060    0.6165 C.1     1  LIG1        0.1050
     27 C           6.1681    3.3694   -0.0249 C.ar    1  LIG1        0.2151
     28 C           7.5236    3.5774   -0.1958 C.ar    1  LIG1        0.1902
     29 C           7.7486    4.9869   -0.1424 C.ar    1  LIG1        0.1141
     30 C           6.5150    5.5726    0.0650 C.ar    1  LIG1        0.1605
     31 O           5.5511    4.5837    0.1029 O.2     1  LIG1       -0.4459
     32 O           8.5299    2.6804   -0.3946 O.3     1  LIG1       -0.4896
     33 C           8.5046    1.9910   -1.6539 C.3     1  LIG1        0.0791
     34 H           9.3467    1.2989   -1.6355 H       1  LIG1        0.0660
     35 H           7.5783    1.4233   -1.7816 H       1  LIG1        0.0660
     36 H           8.6148    2.6969   -2.4861 H       1  LIG1        0.0660
     37 N           9.0040    5.5733   -0.2933 N.pl3   1  LIG1       -0.3522
     38 H           9.6952    4.9000   -0.6024 H       1  LIG1        0.1425
     39 H           9.0078    6.4053   -0.8702 H       1  LIG1        0.1425
     40 C           6.6777    7.9561    0.8741 C.ar    1  LIG1       -0.0395
     41 C           6.1492    9.2536    0.8136 C.ar    1  LIG1       -0.0547
     42 C           6.0320    6.9522    0.1126 C.ar    1  LIG1        0.0256
     43 C           5.0140    9.5693    0.0757 C.ar    1  LIG1       -0.0199
     44 H           6.6320   10.0375    1.3911 H       1  LIG1        0.0622
     45 C           4.8679    7.2639   -0.6160 C.ar    1  LIG1       -0.0092
     46 C           4.3555    8.5580   -0.6302 C.ar    1  LIG1        0.1176
     47 H           4.3713    6.4755   -1.1756 H       1  LIG1        0.0661
     48 H           4.6154   10.5780    0.0533 H       1  LIG1        0.0654
     49 C           7.8269    7.6573    1.8076 C.3     1  LIG1       -0.0390
     50 H           8.0759    8.5424    2.3991 H       1  LIG1        0.0278
     51 H           8.7316    7.3242    1.2897 H       1  LIG1        0.0278
     52 H           7.5631    6.8521    2.5025 H       1  LIG1        0.0278
     53 O           3.2285    8.9002   -1.3269 O.3     1  LIG1       -0.5067
     54 H           2.8463    8.1025   -1.7156 H       1  LIG1        0.2921
@<TRIPOS>BOND
     1    16    14    1
     2    36    33    1
     3     8     6    1
     4    35    33    1
     5    54    53    1
     6    33    34    1
     7    33    32    1
     8    15    14    1
     9    14     7    1
    10    53    46    1
    11    47    45    1
    12     6     7   ar
    13     6     3   ar
    14     7     4   ar
    15    39    37    1
    16    46    45   ar
    17    46    43   ar
    18     9     3    1
    19    45    42   ar
    20    38    37    1
    21     3     1   ar
    22    32    28    1
    23    37    29    1
    24    28    29   ar
    25    28    27   ar
    26    29    30   ar
    27     4    17    1
    28     4     2   ar
    29    21    17   ar
    30    21    20   ar
    31    27    20    1
    32    27    31   ar
    33    17    18   ar
    34    48    43    1
    35    23    22    1
    36    30    31   ar
    37    30    42    1
    38    20    19   ar
    39    43    41   ar
    40    42    40   ar
    41    18    19   ar
    42    18    22    1
    43    19    26    1
    44    24    22    1
    45     1     2   ar
    46     1    10    1
    47    12    10    1
    48     2     5    1
    49    26    25    3
    50    41    40   ar
    51    41    44    1
    52    40    49    1
    53    10    13    1
    54    10    11    1
    55    51    49    1
    56    49    50    1
    57    49    52    1
