@<TRIPOS>MOLECULE
mol_data/opt/b3lyp/geoms/mol2/4ih12ef-6ee12if.out
 51 54 0 0 0
SMALL
GASTEIGER

@<TRIPOS>ATOM
      1 C           0.0221   -0.4289   -0.4434 C.ar    1  LIG1       -0.0497
      2 C           1.3571   -0.1590   -0.1768 C.ar    1  LIG1       -0.0464
      3 C          -0.8373    0.6696   -0.6177 C.ar    1  LIG1       -0.0571
      4 C           1.8788    1.1512   -0.0686 C.ar    1  LIG1        0.0395
      5 H           2.0402   -0.9907   -0.0543 H       1  LIG1        0.0628
      6 C          -0.3649    1.9661   -0.5241 C.ar    1  LIG1       -0.0401
      7 C           0.9894    2.2516   -0.2502 C.ar    1  LIG1        0.0354
      8 H          -1.0482    2.8012   -0.6592 H       1  LIG1        0.0636
      9 H          -1.8899    0.5031   -0.8342 H       1  LIG1        0.0621
     10 C          -0.4918   -1.8450   -0.5515 C.3     1  LIG1       -0.0397
     11 H           0.3170   -2.5707   -0.4300 H       1  LIG1        0.0278
     12 H          -0.9617   -2.0308   -1.5245 H       1  LIG1        0.0278
     13 H          -1.2467   -2.0593    0.2147 H       1  LIG1        0.0278
     14 N           1.3635    3.5739   -0.1185 N.pl3   1  LIG1       -0.3574
     15 H           2.3408    3.8123   -0.1719 H       1  LIG1        0.1423
     16 H           0.7360    4.2525   -0.5219 H       1  LIG1        0.1423
     17 C           3.3000    1.3024    0.2055 C.ar    1  LIG1        0.1565
     18 C           4.2920    0.4122    0.6196 C.ar    1  LIG1        0.1125
     19 C           5.5124    1.1636    0.6364 C.ar    1  LIG1        0.1791
     20 C           5.2265    2.4515    0.2558 C.ar    1  LIG1        0.1808
     21 O           3.8692    2.5272    0.0029 O.2     1  LIG1       -0.4496
     22 C           4.2007   -0.9462    1.0060 C.1     1  LIG1       -0.0622
     23 C           4.1810   -2.1074    1.3486 C.1     1  LIG1       -0.1137
     24 H           4.1571   -3.1252    1.6615 H       1  LIG1        0.1232
     25 O           6.6978    0.6213    1.0046 O.3     1  LIG1       -0.5024
     26 H           7.3397    1.3312    1.1468 H       1  LIG1        0.2923
     27 C           5.7185    4.9491    0.3884 C.ar    1  LIG1        0.1248
     28 C           6.0803    3.6085    0.0639 C.ar    1  LIG1        0.0559
     29 C           7.3618    3.4283   -0.4738 C.ar    1  LIG1       -0.0307
     30 C           8.2372    4.5058   -0.6600 C.ar    1  LIG1        0.0544
     31 C           7.7850    5.7964   -0.2660 C.ar    1  LIG1        0.1231
     32 N           6.5495    5.9856    0.2163 N.ar    1  LIG1       -0.2334
     33 H           7.6680    2.4448   -0.8163 H       1  LIG1        0.0638
     34 C           4.4518    5.2593    0.9819 C.1     1  LIG1       -0.0491
     35 C           3.4032    5.5301    1.5209 C.1     1  LIG1       -0.1124
     36 H           2.4766    5.7459    2.0007 H       1  LIG1        0.1232
     37 C           9.4805    4.2788   -1.3199 C.1     1  LIG1       -0.0674
     38 C          10.5097    4.0269   -1.9051 C.1     1  LIG1       -0.1138
     39 H          11.4164    3.8253   -2.4274 H       1  LIG1        0.1232
     40 C           8.6175    6.9975   -0.3735 C.ar    1  LIG1        0.1607
     41 C           9.9213    7.2870   -0.0385 C.ar    1  LIG1        0.0383
     42 C          10.0762    8.6826   -0.3237 C.ar    1  LIG1        0.1580
     43 C           8.8804    9.1426   -0.7953 C.ar    1  LIG1        0.1342
     44 O           7.9767    8.1216   -0.8200 O.2     1  LIG1       -0.4573
     45 H           8.5328   10.1041   -1.1391 H       1  LIG1        0.1068
     46 C          10.9771    6.4278    0.5828 C.3     1  LIG1       -0.0326
     47 H          11.5225    6.9993    1.3400 H       1  LIG1        0.0280
     48 H          11.7061    6.0823   -0.1581 H       1  LIG1        0.0280
     49 H          10.5487    5.5425    1.0570 H       1  LIG1        0.0280
     50 O          11.2526    9.3381   -0.1067 O.3     1  LIG1       -0.5034
     51 H          11.1280   10.2807   -0.2755 H       1  LIG1        0.2923
@<TRIPOS>BOND
     1    39    38    1
     2    38    37    3
     3    12    10    1
     4    37    30    1
     5    45    43    1
     6     9     3    1
     7    44    43   ar
     8    44    40   ar
     9    33    29    1
    10    43    42   ar
    11    30    29   ar
    12    30    31   ar
    13     8     6    1
    14     3     6   ar
    15     3     1   ar
    16    10     1    1
    17    10    11    1
    18    10    13    1
    19     6     7   ar
    20    16    14    1
    21    29    28   ar
    22     1     2   ar
    23    40    31    1
    24    40    41   ar
    25    42    50    1
    26    42    41   ar
    27    51    50    1
    28    31    32   ar
    29     7    14    1
    30     7     4   ar
    31     2     4   ar
    32     2     5    1
    33    15    14    1
    34    48    46    1
    35     4    17    1
    36    41    46    1
    37    21    17   ar
    38    21    20   ar
    39    28    20    1
    40    28    27   ar
    41    17    18   ar
    42    32    27   ar
    43    20    19   ar
    44    27    34    1
    45    46    49    1
    46    46    47    1
    47    18    19   ar
    48    18    22    1
    49    19    25    1
    50    34    35    3
    51    25    26    1
    52    22    23    3
    53    23    24    1
    54    35    36    1
