@<TRIPOS>MOLECULE
mol_data/opt/b3lyp/geoms/mol2/4ih4fa4al-6eh-.out
 55 58 0 0 0
SMALL
GASTEIGER

@<TRIPOS>ATOM
      1 C          -0.2597    0.1811    0.7650 C.ar    1  LIG1       -0.0498
      2 C           1.1336    0.2159    0.6805 C.ar    1  LIG1       -0.0492
      3 C          -0.9715    1.1677    0.0716 C.ar    1  LIG1       -0.0571
      4 C           1.8288    1.1832   -0.0590 C.ar    1  LIG1        0.0065
      5 H           1.7141   -0.5347    1.2087 H       1  LIG1        0.0627
      6 C          -0.3137    2.1354   -0.6782 C.ar    1  LIG1       -0.0402
      7 C           1.0875    2.1629   -0.7621 C.ar    1  LIG1        0.0325
      8 H          -0.8878    2.8919   -1.2086 H       1  LIG1        0.0636
      9 H          -2.0581    1.1792    0.1155 H       1  LIG1        0.0621
     10 C          -0.9697   -0.8960    1.5516 C.3     1  LIG1       -0.0397
     11 H          -0.3574   -1.2512    2.3864 H       1  LIG1        0.0278
     12 H          -1.2013   -1.7682    0.9265 H       1  LIG1        0.0278
     13 H          -1.9172   -0.5332    1.9628 H       1  LIG1        0.0278
     14 N           1.7172    3.1778   -1.4951 N.pl3   1  LIG1       -0.3575
     15 H           2.6431    2.9406   -1.8273 H       1  LIG1        0.1423
     16 H           1.1440    3.5622   -2.2346 H       1  LIG1        0.1423
     17 C           4.0662    0.0419   -0.4319 C.ar    1  LIG1        0.1252
     18 C           5.4621    0.0590   -0.4092 C.ar    1  LIG1       -0.0119
     19 C           3.3192    1.1848   -0.0721 C.ar    1  LIG1        0.0254
     20 C           6.1752    1.2049   -0.0283 C.ar    1  LIG1       -0.0143
     21 H           6.0056   -0.8286   -0.7259 H       1  LIG1        0.0660
     22 C           4.0483    2.3245    0.3033 C.ar    1  LIG1       -0.0499
     23 C           5.4403    2.3459    0.3275 C.ar    1  LIG1       -0.0532
     24 H           3.4959    3.2112    0.5980 H       1  LIG1        0.0625
     25 O           3.3804   -1.0753   -0.8235 O.3     1  LIG1       -0.5061
     26 H           4.0170   -1.7679   -1.0445 H       1  LIG1        0.2922
     27 H           5.9575    3.2383    0.6642 H       1  LIG1        0.0624
     28 C           8.3749    0.0635    0.3940 C.ar    1  LIG1       -0.0532
     29 C           9.7685    0.0852    0.4202 C.ar    1  LIG1       -0.0499
     30 C           7.6592    1.2004   -0.0023 C.ar    1  LIG1       -0.0143
     31 C          10.4951    1.2244    0.0648 C.ar    1  LIG1        0.0265
     32 H          10.3135   -0.7919    0.7568 H       1  LIG1        0.0625
     33 C           8.3780    2.3484   -0.3804 C.ar    1  LIG1       -0.0116
     34 C           9.7739    2.3645   -0.3559 C.ar    1  LIG1        0.1284
     35 H           7.8317    3.2151   -0.7307 H       1  LIG1        0.0660
     36 H           7.8448   -0.8238    0.7239 H       1  LIG1        0.0624
     37 O          10.5261    3.4255   -0.7600 O.3     1  LIG1       -0.4945
     38 C           9.8772    4.6562   -1.0365 C.3     1  LIG1        0.0788
     39 H          10.6724    5.3713   -1.2505 H       1  LIG1        0.0660
     40 H           9.2164    4.5806   -1.9097 H       1  LIG1        0.0660
     41 H           9.2971    5.0062   -0.1740 H       1  LIG1        0.0660
     42 C          12.7304    2.0529    0.9691 C.ar    1  LIG1        0.1210
     43 C          11.9823    1.2119    0.1069 C.ar    1  LIG1        0.0212
     44 C          12.6862    0.3127   -0.6933 C.ar    1  LIG1       -0.0291
     45 C          14.0855    0.2649   -0.6500 C.ar    1  LIG1        0.0436
     46 C          14.7231    1.1599    0.2296 C.ar    1  LIG1        0.0496
     47 N          14.0767    2.0150    1.0111 N.ar    1  LIG1       -0.2443
     48 H          12.1385   -0.3453   -1.3632 H       1  LIG1        0.0643
     49 H          15.8115    1.1680    0.2961 H       1  LIG1        0.0849
     50 C          12.0898    2.9633    1.8727 C.1     1  LIG1       -0.0492
     51 C          11.5575    3.7183    2.6540 C.1     1  LIG1       -0.1124
     52 H          11.0968    4.3813    3.3485 H       1  LIG1        0.1232
     53 N          14.8136   -0.6522   -1.3974 N.pl3   1  LIG1       -0.3568
     54 H          14.3626   -0.9950   -2.2341 H       1  LIG1        0.1424
     55 H          15.7841   -0.4167   -1.5520 H       1  LIG1        0.1424
@<TRIPOS>BOND
     1    16    14    1
     2    54    53    1
     3    40    38    1
     4    15    14    1
     5    55    53    1
     6    14     7    1
     7    53    45    1
     8    48    44    1
     9    39    38    1
    10     8     6    1
    11    26    25    1
    12    38    37    1
    13    38    41    1
    14    25    17    1
    15     7     6   ar
    16     7     4   ar
    17    37    34    1
    18    35    33    1
    19    21    18    1
    20    44    45   ar
    21    44    43   ar
    22     6     3   ar
    23    45    46   ar
    24    17    18   ar
    25    17    19   ar
    26    18    20   ar
    27    33    34   ar
    28    33    30   ar
    29    34    31   ar
    30    19     4    1
    31    19    22   ar
    32     4     2   ar
    33    20    30    1
    34    20    23   ar
    35    30    28   ar
    36    31    43    1
    37    31    29   ar
    38     3     9    1
    39     3     1   ar
    40    43    42   ar
    41    46    49    1
    42    46    47   ar
    43    22    23   ar
    44    22    24    1
    45    23    27    1
    46    28    29   ar
    47    28    36    1
    48    29    32    1
    49     2     1   ar
    50     2     5    1
    51     1    10    1
    52    12    10    1
    53    42    47   ar
    54    42    50    1
    55    10    13    1
    56    10    11    1
    57    50    51    3
    58    51    52    1
