@<TRIPOS>MOLECULE
mol_data/opt/b3lyp/geoms/mol2/4ih4ih12ef-6ie.out
 56 59 0 0 0
SMALL
GASTEIGER

@<TRIPOS>ATOM
      1 C          -0.2321    0.4973    0.7370 C.ar    1  LIG1       -0.0498
      2 C           1.1628    0.5591    0.7130 C.ar    1  LIG1       -0.0493
      3 C          -0.9130    0.9224   -0.4117 C.ar    1  LIG1       -0.0571
      4 C           1.8862    1.0294   -0.3920 C.ar    1  LIG1        0.0033
      5 H           1.7213    0.2414    1.5901 H       1  LIG1        0.0627
      6 C          -0.2264    1.3952   -1.5230 C.ar    1  LIG1       -0.0402
      7 C           1.1772    1.4636   -1.5361 C.ar    1  LIG1        0.0324
      8 H          -0.7782    1.7212   -2.4017 H       1  LIG1        0.0636
      9 H          -1.9995    0.8823   -0.4387 H       1  LIG1        0.0621
     10 C          -0.9791    0.0165    1.9589 C.3     1  LIG1       -0.0397
     11 H          -0.3237   -0.5439    2.6322 H       1  LIG1        0.0278
     12 H          -1.8158   -0.6363    1.6875 H       1  LIG1        0.0278
     13 H          -1.3977    0.8528    2.5332 H       1  LIG1        0.0278
     14 N           1.8388    1.9908   -2.6505 N.pl3   1  LIG1       -0.3575
     15 H           2.8069    1.7113   -2.7379 H       1  LIG1        0.1423
     16 H           1.3341    1.8912   -3.5210 H       1  LIG1        0.1423
     17 C           4.1680   -0.0925   -0.2278 C.ar    1  LIG1       -0.0419
     18 C           5.5486    0.0559   -0.1689 C.ar    1  LIG1       -0.0458
     19 C           3.3794    1.0796   -0.3434 C.ar    1  LIG1       -0.0114
     20 C           6.2091    1.3014   -0.2202 C.ar    1  LIG1        0.0395
     21 H           6.1574   -0.8362   -0.0815 H       1  LIG1        0.0628
     22 C           4.0155    2.3197   -0.4042 C.ar    1  LIG1       -0.0323
     23 C           5.4112    2.4751   -0.3411 C.ar    1  LIG1        0.0360
     24 H           3.4037    3.2138   -0.4920 H       1  LIG1        0.0642
     25 C           3.5593   -1.4762   -0.1838 C.3     1  LIG1       -0.0391
     26 H           4.3222   -2.2368   -0.3714 H       1  LIG1        0.0278
     27 H           2.7685   -1.5929   -0.9312 H       1  LIG1        0.0278
     28 H           3.1053   -1.6997    0.7883 H       1  LIG1        0.0278
     29 N           5.9305    3.7616   -0.3611 N.pl3   1  LIG1       -0.3574
     30 H           6.9063    3.8612   -0.5909 H       1  LIG1        0.1423
     31 H           5.3284    4.4627   -0.7672 H       1  LIG1        0.1423
     32 C           7.6628    1.3227   -0.1667 C.ar    1  LIG1        0.1565
     33 C           8.6459    0.3491   -0.3317 C.ar    1  LIG1        0.1125
     34 C           9.9010    1.0189   -0.1343 C.ar    1  LIG1        0.1791
     35 C           9.6429    2.3405    0.1284 C.ar    1  LIG1        0.1799
     36 O           8.2710    2.5147    0.1118 O.2     1  LIG1       -0.4497
     37 C           8.5234   -1.0249   -0.6478 C.1     1  LIG1       -0.0622
     38 C           8.4731   -2.2041   -0.9182 C.1     1  LIG1       -0.1137
     39 H           8.4276   -3.2397   -1.1629 H       1  LIG1        0.1232
     40 O          11.0893    0.3710   -0.2006 O.3     1  LIG1       -0.5024
     41 H          11.7825    0.9454    0.1543 H       1  LIG1        0.2923
     42 C          10.1993    4.5143    1.3116 C.ar    1  LIG1        0.0490
     43 C          10.5124    3.4798    0.3848 C.ar    1  LIG1        0.0431
     44 C          11.7383    3.5574   -0.2912 C.ar    1  LIG1       -0.0324
     45 C          12.6221    4.6161   -0.0411 C.ar    1  LIG1        0.0434
     46 C          12.2035    5.5902    0.8811 C.ar    1  LIG1        0.0433
     47 N          11.0376    5.5388    1.5251 N.ar    1  LIG1       -0.2582
     48 H          11.9962    2.8156   -1.0412 H       1  LIG1        0.0638
     49 H          12.8468    6.4389    1.1009 H       1  LIG1        0.0842
     50 C           8.9343    4.5164    2.1303 C.3     1  LIG1       -0.0217
     51 H           8.7853    3.5527    2.6285 H       1  LIG1        0.0293
     52 H           8.0422    4.6863    1.5188 H       1  LIG1        0.0293
     53 H           9.0051    5.3057    2.8794 H       1  LIG1        0.0293
     54 C          13.8797    4.7182   -0.7070 C.1     1  LIG1       -0.0681
     55 C          14.9488    4.8065   -1.2669 C.1     1  LIG1       -0.1139
     56 H          15.8895    4.8876   -1.7607 H       1  LIG1        0.1232
@<TRIPOS>BOND
     1    16    14    1
     2    15    14    1
     3    14     7    1
     4     8     6    1
     5    56    55    1
     6     7     6   ar
     7     7     4   ar
     8     6     3   ar
     9    55    54    3
    10    39    38    1
    11    48    44    1
    12    27    25    1
    13    38    37    3
    14    31    29    1
    15    54    45    1
    16    37    33    1
    17    30    29    1
    18    24    22    1
    19     9     3    1
    20     3     1   ar
    21    22    19   ar
    22    22    23   ar
    23     4    19    1
    24     4     2   ar
    25    26    25    1
    26    29    23    1
    27    19    17   ar
    28    23    20   ar
    29    33    32   ar
    30    33    34   ar
    31    44    45   ar
    32    44    43   ar
    33    17    25    1
    34    17    18   ar
    35    20    18   ar
    36    20    32    1
    37    40    34    1
    38    40    41    1
    39    25    28    1
    40    18    21    1
    41    32    36   ar
    42    34    35   ar
    43    45    46   ar
    44    36    35   ar
    45    35    43    1
    46    43    42   ar
    47     2     1   ar
    48     2     5    1
    49     1    10    1
    50    46    49    1
    51    46    47   ar
    52    42    47   ar
    53    42    50    1
    54    52    50    1
    55    12    10    1
    56    10    13    1
    57    10    11    1
    58    50    51    1
    59    50    53    1
