@<TRIPOS>MOLECULE
mol_data/opt/b3lyp/geoms/mol2/4ii.out
 18 18 0 0 0
SMALL
GASTEIGER

@<TRIPOS>ATOM
      1 C           0.0732    0.0142    0.0135 C.ar    1  LIG1       -0.0504
      2 C           1.4735    0.0243    0.0170 C.ar    1  LIG1       -0.0586
      3 C          -0.5863    1.2495    0.0173 C.ar    1  LIG1       -0.0586
      4 C           2.1863    1.2226    0.0165 C.ar    1  LIG1       -0.0586
      5 H           2.0144   -0.9192    0.0264 H       1  LIG1        0.0620
      6 C           0.1266    2.4479    0.0168 C.ar    1  LIG1       -0.0586
      7 C           1.5268    2.4579    0.0125 C.ar    1  LIG1       -0.0504
      8 H          -0.4144    3.3913    0.0262 H       1  LIG1        0.0620
      9 H           3.2734    1.1976    0.0255 H       1  LIG1        0.0620
     10 H          -1.6735    1.2746    0.0271 H       1  LIG1        0.0620
     11 C          -0.6988   -1.2838   -0.0146 C.3     1  LIG1       -0.0397
     12 H          -0.1482   -2.0887    0.4818 H       1  LIG1        0.0278
     13 H          -0.8923   -1.6107   -1.0442 H       1  LIG1        0.0278
     14 H          -1.6696   -1.1839    0.4804 H       1  LIG1        0.0278
     15 C           2.2991    3.7561   -0.0166 C.3     1  LIG1       -0.0397
     16 H           1.7482    4.5615    0.4788 H       1  LIG1        0.0278
     17 H           2.4931    4.0819   -1.0464 H       1  LIG1        0.0278
     18 H           3.2695    3.6564    0.4791 H       1  LIG1        0.0278
@<TRIPOS>BOND
     1    17    15    1
     2    13    11    1
     3    15     7    1
     4    15    16    1
     5    15    18    1
     6    11     1    1
     7    11    14    1
     8    11    12    1
     9     7     4   ar
    10     7     6   ar
    11     1     2   ar
    12     1     3   ar
    13     4     2   ar
    14     4     9    1
    15     6     3   ar
    16     6     8    1
    17     2     5    1
    18     3    10    1
