@<TRIPOS>MOLECULE
mol_data/opt/b3lyp/geoms/mol2/4ii12ea-6ed-12eh4ai-13ef6eh-6ie-.out
 101 108 0 0 0
SMALL
GASTEIGER

@<TRIPOS>ATOM
      1 C           0.5893   -1.7067    0.6763 C.ar    1  LIG1       -0.0498
      2 C           1.9012   -1.3119    0.4190 C.ar    1  LIG1       -0.0479
      3 C          -0.1847   -0.8903    1.5097 C.ar    1  LIG1       -0.0586
      4 C           2.4541   -0.1383    0.9662 C.ar    1  LIG1        0.0217
      5 H           2.5173   -1.9229   -0.2319 H       1  LIG1        0.0627
      6 C           0.3497    0.2711    2.0602 C.ar    1  LIG1       -0.0579
      7 C           1.6655    0.6797    1.8133 C.ar    1  LIG1       -0.0397
      8 H          -0.2674    0.8800    2.7158 H       1  LIG1        0.0620
      9 H          -1.2116   -1.1676    1.7349 H       1  LIG1        0.0620
     10 C           0.0137   -2.9587    0.0578 C.3     1  LIG1       -0.0397
     11 H           0.7952   -3.5796   -0.3882 H       1  LIG1        0.0278
     12 H          -0.7083   -2.7177   -0.7318 H       1  LIG1        0.0278
     13 H          -0.5143   -3.5641    0.8022 H       1  LIG1        0.0278
     14 C           2.1810    1.9352    2.4773 C.3     1  LIG1       -0.0390
     15 H           1.4733    2.2756    3.2378 H       1  LIG1        0.0278
     16 H           2.3284    2.7476    1.7591 H       1  LIG1        0.0278
     17 H           3.1468    1.7698    2.9648 H       1  LIG1        0.0278
     18 C           3.8433    0.1743    0.6335 C.ar    1  LIG1        0.1512
     19 C           4.9542   -0.6175    0.3625 C.ar    1  LIG1        0.0710
     20 C           6.0295    0.2841    0.0789 C.ar    1  LIG1        0.0003
     21 C           5.5283    1.5540    0.1898 C.ar    1  LIG1        0.1396
     22 O           4.2030    1.4849    0.5260 O.2     1  LIG1       -0.4535
     23 C           5.0517   -2.0322    0.3840 C.1     1  LIG1       -0.0658
     24 C           5.1773   -3.2360    0.3923 C.1     1  LIG1       -0.1138
     25 H           5.2815   -4.2961    0.4123 H       1  LIG1        0.1232
     26 H           7.0355    0.0012   -0.1925 H       1  LIG1        0.0668
     27 C           5.4811    4.0591   -0.3272 C.ar    1  LIG1        0.1246
     28 C           6.1571    2.8553    0.0301 C.ar    1  LIG1        0.0524
     29 C           7.5374    2.9612    0.2360 C.ar    1  LIG1       -0.0288
     30 C           8.2083    4.1719    0.0559 C.ar    1  LIG1        0.0815
     31 C           7.4534    5.2999   -0.3690 C.ar    1  LIG1        0.1260
     32 N           6.1244    5.2196   -0.5173 N.ar    1  LIG1       -0.2333
     33 H           8.0959    2.0997    0.5845 H       1  LIG1        0.0639
     34 C           4.0674    4.1154   -0.5550 C.1     1  LIG1       -0.0491
     35 C           2.8834    4.2163   -0.7779 C.1     1  LIG1       -0.1124
     36 H           1.8395    4.2914   -0.9798 H       1  LIG1        0.1232
     37 N          10.6998    4.2324    0.7698 N.1     1  LIG1       -0.1908
     38 C           9.5898    4.2365    0.4207 C.1     1  LIG1        0.1014
     39 C           8.0426    6.6004   -0.6599 C.ar    1  LIG1        0.1722
     40 C           9.2148    7.0124   -1.2794 C.ar    1  LIG1        0.0932
     41 C           9.1539    8.4483   -1.3407 C.ar    1  LIG1        0.0873
     42 C           7.9564    8.8176   -0.7558 C.ar    1  LIG1        0.1575
     43 O           7.2827    7.6834   -0.3676 O.2     1  LIG1       -0.4501
     44 C          10.2410    6.2471   -1.8810 C.1     1  LIG1       -0.0639
     45 C          11.1428    5.6668   -2.4435 C.1     1  LIG1       -0.1137
     46 H          11.9353    5.1176   -2.8972 H       1  LIG1        0.1232
     47 N          10.1438    9.2553   -1.8870 N.pl3   1  LIG1       -0.3541
     48 H          10.8183    8.7264   -2.4284 H       1  LIG1        0.1425
     49 H           9.7952   10.0517   -2.4059 H       1  LIG1        0.1425
     50 C           8.0347   11.3004   -0.5640 C.ar    1  LIG1       -0.0504
     51 C           7.3885   12.5067   -0.3431 C.ar    1  LIG1       -0.0517
     52 C           7.3139   10.0927   -0.5089 C.ar    1  LIG1        0.0194
     53 C           6.0122   12.5727   -0.0532 C.ar    1  LIG1        0.0026
     54 H           7.9572   13.4279   -0.3895 H       1  LIG1        0.0624
     55 C           5.9448   10.1537   -0.1929 C.ar    1  LIG1       -0.0475
     56 C           5.2808   11.3577    0.0396 C.ar    1  LIG1       -0.0406
     57 H           5.3887    9.2248   -0.1186 H       1  LIG1        0.0627
     58 H           9.1045   11.2925   -0.7421 H       1  LIG1        0.0625
     59 C           3.8135   11.3016    0.4086 C.3     1  LIG1       -0.0391
     60 H           3.5586   10.3087    0.7873 H       1  LIG1        0.0278
     61 H           3.1567   11.4864   -0.4521 H       1  LIG1        0.0278
     62 H           3.5569   12.0358    1.1766 H       1  LIG1        0.0278
     63 C           5.4084   13.8945    0.1465 C.ar    1  LIG1        0.0664
     64 C           5.9475   15.0619    0.7283 C.ar    1  LIG1        0.0919
     65 C           4.9506   16.0687    0.6162 C.ar    1  LIG1        0.1581
     66 C           3.8269   15.5284   -0.0125 C.ar    1  LIG1        0.0929
     67 N           4.1509   14.2067   -0.2811 N.ar    1  LIG1       -0.3502
     68 H           3.5813   13.6154   -0.8682 H       1  LIG1        0.1660
     69 C           7.2116   15.2313    1.3442 C.1     1  LIG1       -0.0639
     70 C           8.2885   15.4017    1.8712 C.1     1  LIG1       -0.1137
     71 H           9.2288   15.5466    2.3497 H       1  LIG1        0.1232
     72 O           5.1303   17.3393    1.0811 O.3     1  LIG1       -0.5035
     73 H           4.6116   17.9426    0.5318 H       1  LIG1        0.2923
     74 C           1.6512   15.6893   -1.3329 C.ar    1  LIG1        0.1231
     75 C           2.5387   16.1359   -0.3099 C.ar    1  LIG1        0.0375
     76 C           2.1058   17.2417    0.4404 C.ar    1  LIG1       -0.0271
     77 C           0.8846   17.8727    0.1855 C.ar    1  LIG1        0.0517
     78 C           0.0790   17.3444   -0.8631 C.ar    1  LIG1        0.0947
     79 N           0.4755   16.2924   -1.5744 N.ar    1  LIG1       -0.2359
     80 H           2.7061   17.5848    1.2775 H       1  LIG1        0.0644
     81 C           1.9426   14.5735   -2.1863 C.1     1  LIG1       -0.0491
     82 C           2.1644   13.6266   -2.9099 C.1     1  LIG1       -0.1124
     83 H           2.3516   12.8203   -3.5814 H       1  LIG1        0.1232
     84 N           0.4627   18.9327    0.9664 N.pl3   1  LIG1       -0.3563
     85 H           1.1744   19.4197    1.4913 H       1  LIG1        0.1424
     86 H          -0.2437   19.5365    0.5718 H       1  LIG1        0.1424
     87 C          -1.5772   18.3300   -2.5261 C.ar    1  LIG1        0.0475
     88 C          -1.2526   17.9270   -1.2058 C.ar    1  LIG1        0.0243
     89 C          -2.2338   18.0552   -0.2204 C.ar    1  LIG1       -0.0339
     90 C          -3.5012   18.5652   -0.5444 C.ar    1  LIG1        0.0434
     91 C          -3.7153   18.9290   -1.8839 C.ar    1  LIG1        0.0433
     92 N          -2.7889   18.8193   -2.8352 N.ar    1  LIG1       -0.2583
     93 H          -2.0260   17.7488    0.7998 H       1  LIG1        0.0637
     94 H          -4.6810   19.3278   -2.1866 H       1  LIG1        0.0842
     95 C          -0.5922   18.2444   -3.6626 C.3     1  LIG1       -0.0217
     96 H          -0.3971   17.2012   -3.9272 H       1  LIG1        0.0293
     97 H           0.3739   18.6835   -3.3922 H       1  LIG1        0.0293
     98 H          -1.0015   18.7688   -4.5269 H       1  LIG1        0.0293
     99 C          -4.5290   18.7071    0.4349 C.1     1  LIG1       -0.0681
    100 C          -5.4030   18.8321    1.2625 C.1     1  LIG1       -0.1139
    101 H          -6.1750   18.9386    1.9890 H       1  LIG1        0.1232
@<TRIPOS>BOND
     1    98    95    1
     2    96    95    1
     3    95    97    1
     4    95    87    1
     5    83    82    1
     6    82    81    3
     7    46    45    1
     8    92    87   ar
     9    92    91   ar
    10    87    88   ar
    11    45    44    3
    12    48    47    1
    13    49    47    1
    14    94    91    1
    15    81    74    1
    16    47    41    1
    17    91    90   ar
    18    44    40    1
    19    79    74   ar
    20    79    78   ar
    21    41    40   ar
    22    41    42   ar
    23    74    75   ar
    24    40    39   ar
    25    88    78    1
    26    88    89   ar
    27    36    35    1
    28    68    67    1
    29    78    77   ar
    30    35    34    3
    31    42    52    1
    32    42    43   ar
    33    58    50    1
    34    12    10    1
    35    39    31    1
    36    39    43   ar
    37    50    52   ar
    38    50    51   ar
    39    34    27    1
    40    90    89   ar
    41    90    99    1
    42    32    31   ar
    43    32    27   ar
    44    52    55   ar
    45    61    59    1
    46    54    51    1
    47    11    10    1
    48    31    30   ar
    49    51    53   ar
    50    27    28   ar
    51    75    66    1
    52    75    76   ar
    53    67    66   ar
    54    67    63   ar
    55     5     2    1
    56    89    93    1
    57    55    57    1
    58    55    56   ar
    59    26    20    1
    60    53    56   ar
    61    53    63    1
    62    66    65   ar
    63    28    21    1
    64    28    29   ar
    65    56    59    1
    66    30    29   ar
    67    30    38    1
    68    10     1    1
    69    10    13    1
    70    20    21   ar
    71    20    19   ar
    72    63    64   ar
    73    77    76   ar
    74    77    84    1
    75    21    22   ar
    76    29    33    1
    77    19    23    1
    78    19    18   ar
    79    23    24    3
    80    24    25    1
    81    59    60    1
    82    59    62    1
    83     2     1   ar
    84     2     4   ar
    85    38    37    3
    86    99   100    3
    87    76    80    1
    88    22    18   ar
    89    73    72    1
    90    86    84    1
    91    65    64   ar
    92    65    72    1
    93    18     4    1
    94     1     3   ar
    95    64    69    1
    96     4     7   ar
    97    84    85    1
    98   100   101    1
    99    69    70    3
   100     3     9    1
   101     3     6   ar
   102    16    14    1
   103     7     6   ar
   104     7    14    1
   105    70    71    1
   106     6     8    1
   107    14    17    1
   108    14    15    1
