@<TRIPOS>MOLECULE
mol_data/opt/b3lyp/geoms/mol2/4ii12aa12af12ed13la-6al6de-12fd.out
 89 96 0 0 0
SMALL
GASTEIGER

@<TRIPOS>ATOM
      1 C           1.7790   -1.4235   -2.4742 C.ar    1  LIG1       -0.0498
      2 C           2.8760   -0.9806   -1.7383 C.ar    1  LIG1       -0.0479
      3 C           0.6777   -0.5646   -2.5795 C.ar    1  LIG1       -0.0586
      4 C           2.8975    0.2744   -1.0984 C.ar    1  LIG1        0.0204
      5 H           3.7582   -1.6117   -1.6748 H       1  LIG1        0.0627
      6 C           0.6812    0.6798   -1.9555 C.ar    1  LIG1       -0.0579
      7 C           1.7735    1.1277   -1.2015 C.ar    1  LIG1       -0.0398
      8 H          -0.1909    1.3214   -2.0491 H       1  LIG1        0.0620
      9 H          -0.1922   -0.8692   -3.1560 H       1  LIG1        0.0620
     10 C           1.7757   -2.7814   -3.1358 C.3     1  LIG1       -0.0397
     11 H           2.7769   -3.2212   -3.1541 H       1  LIG1        0.0278
     12 H           1.4152   -2.7219   -4.1681 H       1  LIG1        0.0278
     13 H           1.1176   -3.4806   -2.6056 H       1  LIG1        0.0278
     14 C           1.6905    2.4739   -0.5186 C.3     1  LIG1       -0.0390
     15 H           0.6641    2.8476   -0.5587 H       1  LIG1        0.0278
     16 H           2.3504    3.2088   -0.9923 H       1  LIG1        0.0278
     17 H           1.9938    2.4136    0.5316 H       1  LIG1        0.0278
     18 C           4.1018    0.6067   -0.3390 C.ar    1  LIG1        0.1361
     19 C           5.0218   -0.1854    0.3114 C.ar    1  LIG1       -0.0151
     20 C           6.0232    0.6740    0.8301 C.ar    1  LIG1       -0.0122
     21 C           5.6617    1.9517    0.4712 C.ar    1  LIG1        0.1707
     22 O           4.4915    1.9179   -0.2362 O.2     1  LIG1       -0.4517
     23 H           4.9665   -1.2580    0.4223 H       1  LIG1        0.0656
     24 H           6.8937    0.3945    1.4055 H       1  LIG1        0.0657
     25 C           6.2982    3.2190    0.6830 C.ar    1  LIG1        0.1744
     26 C           7.5296    3.5352    1.2108 C.ar    1  LIG1        0.0296
     27 C           7.6410    4.9464    1.1533 C.ar    1  LIG1        0.1665
     28 C           6.4636    5.4224    0.5837 C.ar    1  LIG1        0.2131
     29 O           5.6408    4.3476    0.2995 O.2     1  LIG1       -0.4448
     30 H           8.2758    2.8542    1.5903 H       1  LIG1        0.0693
     31 O           8.7105    5.6109    1.6262 O.3     1  LIG1       -0.5031
     32 H           8.7018    6.5397    1.3308 H       1  LIG1        0.2923
     33 C           5.9718    6.7265    0.2914 C.ar    1  LIG1        0.1909
     34 C           6.5747    7.9678    0.1681 C.ar    1  LIG1        0.0916
     35 C           5.5072    8.9201   -0.0761 C.ar    1  LIG1        0.1151
     36 C           4.3310    8.1911   -0.1157 C.ar    1  LIG1        0.1740
     37 O           4.6194    6.8671    0.1133 O.2     1  LIG1       -0.4474
     38 C           7.9548    8.2598    0.2241 C.1     1  LIG1       -0.0644
     39 C           9.1387    8.5224    0.2706 C.1     1  LIG1       -0.1138
     40 H          10.1759    8.7684    0.2723 H       1  LIG1        0.1232
     41 N           5.9596   11.4496   -0.2988 N.1     1  LIG1       -0.1907
     42 C           5.7130   10.3149   -0.2119 C.1     1  LIG1        0.1043
     43 C           2.9458    8.4743   -0.3048 C.ar    1  LIG1        0.1260
     44 C           2.2594    9.6383   -0.6863 C.ar    1  LIG1        0.1489
     45 C           0.8787    9.3571   -0.6736 C.ar    1  LIG1        0.0062
     46 C           0.7272    8.0188   -0.2947 C.ar    1  LIG1        0.0521
     47 N           1.9818    7.5063   -0.0923 N.ar    1  LIG1       -0.3487
     48 H           2.1974    6.5863    0.2589 H       1  LIG1        0.1661
     49 O           2.9127   10.7702   -1.0128 O.3     1  LIG1       -0.4929
     50 C           2.1227   11.9051   -1.3434 C.3     1  LIG1        0.0789
     51 H           2.8280   12.7133   -1.5348 H       1  LIG1        0.0660
     52 H           1.5199   11.7200   -2.2414 H       1  LIG1        0.0660
     53 H           1.4624   12.1830   -0.5125 H       1  LIG1        0.0660
     54 H           0.0808   10.0270   -0.9539 H       1  LIG1        0.0676
     55 C          -0.4526    5.8203   -0.1099 C.ar    1  LIG1        0.0376
     56 C          -0.4786    7.2259   -0.1237 C.ar    1  LIG1        0.0200
     57 C          -1.7339    7.8377    0.0401 C.ar    1  LIG1       -0.0073
     58 C          -2.8711    7.0547    0.2151 C.ar    1  LIG1        0.1466
     59 C          -2.7312    5.6413    0.2466 C.ar    1  LIG1        0.1152
     60 N          -1.5326    5.0698    0.0780 N.ar    1  LIG1       -0.2506
     61 H          -1.8037    8.9179    0.0452 H       1  LIG1        0.0662
     62 H           0.4732    5.2756   -0.2786 H       1  LIG1        0.0836
     63 O          -4.1259    7.5590    0.3621 O.3     1  LIG1       -0.4929
     64 C          -4.3160    8.9663    0.2563 C.3     1  LIG1        0.0789
     65 H          -5.3891    9.1283    0.3587 H       1  LIG1        0.0660
     66 H          -3.7903    9.5044    1.0543 H       1  LIG1        0.0660
     67 H          -3.9825    9.3414   -0.7184 H       1  LIG1        0.0660
     68 C          -3.9777    3.4832   -0.2231 C.ar    1  LIG1        0.1502
     69 C          -3.8743    4.7221    0.4556 C.ar    1  LIG1        0.0410
     70 C          -4.8826    4.9902    1.3848 C.ar    1  LIG1       -0.0321
     71 C          -5.9233    4.0823    1.6202 C.ar    1  LIG1        0.0545
     72 C          -5.9499    2.8961    0.8368 C.ar    1  LIG1        0.1264
     73 N          -4.9818    2.6186   -0.0449 N.ar    1  LIG1       -0.2312
     74 H          -4.8489    5.9025    1.9652 H       1  LIG1        0.0638
     75 N          -2.3369    2.6778   -2.0798 N.1     1  LIG1       -0.1893
     76 C          -3.0284    3.0662   -1.2306 C.1     1  LIG1        0.1198
     77 C          -6.8488    4.3440    2.6707 C.1     1  LIG1       -0.0674
     78 C          -7.5897    4.5941    3.5937 C.1     1  LIG1       -0.1138
     79 H          -8.2579    4.7975    4.3985 H       1  LIG1        0.1232
     80 C          -7.0109    1.8981    0.9386 C.ar    1  LIG1        0.1966
     81 C          -8.3797    1.9406    1.0679 C.ar    1  LIG1        0.1820
     82 C          -8.8473    0.5787    0.9873 C.ar    1  LIG1        0.1315
     83 C          -7.7257   -0.1907    0.7998 C.ar    1  LIG1        0.1137
     84 O          -6.6336    0.5776    0.7608 O.2     1  LIG1       -0.4562
     85 H          -7.5843   -1.2548    0.6911 H       1  LIG1        0.1044
     86 O          -9.1421    3.0447    1.1875 O.3     1  LIG1       -0.5023
     87 H         -10.0749    2.7866    1.2212 H       1  LIG1        0.2923
     88 N         -11.3408   -0.0593    1.1579 N.1     1  LIG1       -0.1906
     89 C         -10.2046    0.1829    1.0757 C.1     1  LIG1        0.1060
@<TRIPOS>BOND
     1    12    10    1
     2     9     3    1
     3    11    10    1
     4    10    13    1
     5    10     1    1
     6     3     1   ar
     7     3     6   ar
     8     1     2   ar
     9    52    50    1
    10    75    76    3
    11     8     6    1
    12     6     7   ar
    13     2     5    1
    14     2     4   ar
    15    51    50    1
    16    50    49    1
    17    50    53    1
    18    76    68    1
    19     7     4   ar
    20     7    14    1
    21     4    18    1
    22    49    44    1
    23    16    14    1
    24    54    45    1
    25    67    64    1
    26    44    45   ar
    27    44    43   ar
    28    45    46   ar
    29    15    14    1
    30    14    17    1
    31    18    22   ar
    32    18    19   ar
    33    43    36    1
    34    43    47   ar
    35    41    42    3
    36    46    56    1
    37    46    47   ar
    38    62    55    1
    39    22    21   ar
    40    68    73   ar
    41    68    69   ar
    42    42    35    1
    43    56    55   ar
    44    56    57   ar
    45    36    35   ar
    46    36    37   ar
    47    55    60   ar
    48    47    48    1
    49    35    34   ar
    50    73    72   ar
    51    57    61    1
    52    57    58   ar
    53    60    59   ar
    54    37    33   ar
    55    34    38    1
    56    34    33   ar
    57    58    59   ar
    58    58    63    1
    59    38    39    3
    60    59    69    1
    61    64    65    1
    62    64    63    1
    63    64    66    1
    64    39    40    1
    65    33    28    1
    66    29    28   ar
    67    29    25   ar
    68    19    23    1
    69    19    20   ar
    70    69    70   ar
    71    21    25    1
    72    21    20   ar
    73    28    27   ar
    74    25    26   ar
    75    85    83    1
    76    84    83   ar
    77    84    80   ar
    78    83    82   ar
    79    20    24    1
    80    72    80    1
    81    72    71   ar
    82    80    81   ar
    83    82    81   ar
    84    82    89    1
    85    81    86    1
    86    89    88    3
    87    27    26   ar
    88    27    31    1
    89    86    87    1
    90    26    30    1
    91    32    31    1
    92    70    71   ar
    93    70    74    1
    94    71    77    1
    95    77    78    3
    96    78    79    1
