@<TRIPOS>MOLECULE
mol_data/opt/b3lyp/geoms/mol2/4ii4fl12da-6ei-.out
 55 58 0 0 0
SMALL
GASTEIGER

@<TRIPOS>ATOM
      1 C          -0.0927   -0.0372   -0.6244 C.ar    1  LIG1       -0.0499
      2 C           1.2996    0.0552   -0.5723 C.ar    1  LIG1       -0.0507
      3 C          -0.8351    0.9154    0.0828 C.ar    1  LIG1       -0.0586
      4 C           1.9578    1.0667    0.1433 C.ar    1  LIG1       -0.0111
      5 H           1.8997   -0.6788   -1.1023 H       1  LIG1        0.0626
      6 C          -0.1964    1.9151    0.8107 C.ar    1  LIG1       -0.0580
      7 C           1.1997    2.0184    0.8591 C.ar    1  LIG1       -0.0426
      8 H          -0.7945    2.6314    1.3686 H       1  LIG1        0.0620
      9 H          -1.9214    0.8680    0.0737 H       1  LIG1        0.0620
     10 C          -0.7721   -1.1155   -1.4353 C.3     1  LIG1       -0.0397
     11 H          -0.1258   -1.9891   -1.5595 H       1  LIG1        0.0278
     12 H          -1.0315   -0.7558   -2.4390 H       1  LIG1        0.0278
     13 H          -1.7012   -1.4468   -0.9611 H       1  LIG1        0.0278
     14 C           1.8349    3.1119    1.6898 C.3     1  LIG1       -0.0391
     15 H           1.1283    3.4830    2.4375 H       1  LIG1        0.0278
     16 H           2.1397    3.9708    1.0795 H       1  LIG1        0.0278
     17 H           2.7287    2.7591    2.2117 H       1  LIG1        0.0278
     18 C           4.2429    0.0363    0.5472 C.ar    1  LIG1        0.1254
     19 C           5.6307    0.1044    0.4808 C.ar    1  LIG1       -0.0054
     20 C           3.4483    1.1170    0.1062 C.ar    1  LIG1        0.0273
     21 C           6.3001    1.2308   -0.0379 C.ar    1  LIG1        0.0636
     22 H           6.2078   -0.7360    0.8516 H       1  LIG1        0.0662
     23 C           4.1191    2.2310   -0.4055 C.ar    1  LIG1       -0.0080
     24 C           5.5100    2.3118   -0.4870 C.ar    1  LIG1        0.1316
     25 H           3.5436    3.0640   -0.7956 H       1  LIG1        0.0661
     26 O           3.6057   -1.0602    1.0552 O.3     1  LIG1       -0.5061
     27 H           4.2636   -1.7332    1.2761 H       1  LIG1        0.2922
     28 O           6.0763    3.4177   -1.0767 O.3     1  LIG1       -0.4944
     29 C           6.1782    4.5649   -0.2301 C.3     1  LIG1        0.0788
     30 H           6.6312    5.3520   -0.8337 H       1  LIG1        0.0660
     31 H           5.1903    4.8885    0.1218 H       1  LIG1        0.0660
     32 H           6.8217    4.3614    0.6332 H       1  LIG1        0.0660
     33 C           7.7571    1.2147   -0.1053 C.ar    1  LIG1        0.1566
     34 C           8.6871    0.1804   -0.0715 C.ar    1  LIG1        0.0981
     35 C           9.9847    0.7849   -0.1236 C.ar    1  LIG1        0.0023
     36 C           9.7818    2.1324   -0.1955 C.ar    1  LIG1        0.1396
     37 O           8.4333    2.3903   -0.1809 O.2     1  LIG1       -0.4533
     38 N           8.2552   -2.3644    0.0296 N.1     1  LIG1       -0.1907
     39 C           8.4383   -1.2151   -0.0230 C.1     1  LIG1        0.1030
     40 H          10.9319    0.2679   -0.1439 H       1  LIG1        0.0668
     41 C          10.5630    4.3660   -1.1185 C.ar    1  LIG1        0.1238
     42 C          10.7182    3.2551   -0.2473 C.ar    1  LIG1        0.0513
     43 C          11.8504    3.2331    0.5762 C.ar    1  LIG1       -0.0441
     44 C          12.7774    4.2749    0.5465 C.ar    1  LIG1       -0.0316
     45 C          12.4938    5.3364   -0.3238 C.ar    1  LIG1        0.0319
     46 N          11.4367    5.3896   -1.1325 N.ar    1  LIG1       -0.2457
     47 H          11.9885    2.3995    1.2598 H       1  LIG1        0.0629
     48 H          13.1667    6.1921   -0.3675 H       1  LIG1        0.0832
     49 C           9.4884    4.4301   -2.0630 C.1     1  LIG1       -0.0491
     50 C           8.5948    4.4626   -2.8765 C.1     1  LIG1       -0.1124
     51 H           7.7889    4.4711   -3.5734 H       1  LIG1        0.1232
     52 C          14.0139    4.2693    1.4076 C.3     1  LIG1       -0.0383
     53 H          14.4738    5.2604    1.4465 H       1  LIG1        0.0278
     54 H          14.7648    3.5720    1.0175 H       1  LIG1        0.0278
     55 H          13.7865    3.9606    2.4329 H       1  LIG1        0.0278
@<TRIPOS>BOND
     1    51    50    1
     2    50    49    3
     3    12    10    1
     4    49    41    1
     5    11    10    1
     6    10    13    1
     7    10     1    1
     8    46    41   ar
     9    46    45   ar
    10    41    42   ar
    11     5     2    1
    12    28    24    1
    13    28    29    1
    14    30    29    1
    15    25    23    1
    16     1     2   ar
    17     1     3   ar
    18     2     4   ar
    19    24    23   ar
    20    24    21   ar
    21    23    20   ar
    22    48    45    1
    23    45    44   ar
    24    42    36    1
    25    42    43   ar
    26    29    31    1
    27    29    32    1
    28    36    37   ar
    29    36    35   ar
    30    37    33   ar
    31    40    35    1
    32    35    34   ar
    33    33    34   ar
    34    33    21    1
    35    34    39    1
    36    21    19   ar
    37    39    38    3
    38     9     3    1
    39     3     6   ar
    40    20     4    1
    41    20    18   ar
    42     4     7   ar
    43    19    18   ar
    44    19    22    1
    45    44    43   ar
    46    44    52    1
    47    18    26    1
    48    43    47    1
    49     6     7   ar
    50     6     8    1
    51     7    14    1
    52    54    52    1
    53    26    27    1
    54    16    14    1
    55    52    53    1
    56    52    55    1
    57    14    17    1
    58    14    15    1
