@<TRIPOS>MOLECULE
mol_data/opt/b3lyp/geoms/mol2/4ii4ii.out
 34 35 0 0 0
SMALL
GASTEIGER

@<TRIPOS>ATOM
      1 C           0.0443    0.2400   -0.9192 C.ar    1  LIG1       -0.0499
      2 C           1.4401    0.3041   -0.8324 C.ar    1  LIG1       -0.0509
      3 C          -0.6978    1.0921   -0.0959 C.ar    1  LIG1       -0.0586
      4 C           2.0946    1.1862    0.0361 C.ar    1  LIG1       -0.0145
      5 H           2.0433   -0.3494   -1.4587 H       1  LIG1        0.0626
      6 C          -0.0601    1.9773    0.7720 C.ar    1  LIG1       -0.0580
      7 C           1.3350    2.0462    0.8573 C.ar    1  LIG1       -0.0427
      8 H          -0.6592    2.6311    1.4013 H       1  LIG1        0.0620
      9 H          -1.7843    1.0649   -0.1323 H       1  LIG1        0.0620
     10 C          -0.6327   -0.6985   -1.8904 C.3     1  LIG1       -0.0397
     11 H          -0.0300   -1.5941   -2.0692 H       1  LIG1        0.0278
     12 H          -0.7944   -0.2170   -2.8632 H       1  LIG1        0.0278
     13 H          -1.6119   -1.0180   -1.5209 H       1  LIG1        0.0278
     14 C           1.9976    3.0230    1.8011 C.3     1  LIG1       -0.0391
     15 H           1.2512    3.5752    2.3785 H       1  LIG1        0.0278
     16 H           2.6128    3.7505    1.2602 H       1  LIG1        0.0278
     17 H           2.6650    2.5174    2.5076 H       1  LIG1        0.0278
     18 C           4.3192    0.3755    0.9475 C.ar    1  LIG1       -0.0427
     19 C           5.7166    0.4423    0.9159 C.ar    1  LIG1       -0.0580
     20 C           3.5937    1.2046    0.0658 C.ar    1  LIG1       -0.0145
     21 C           6.3893    1.2959    0.0427 C.ar    1  LIG1       -0.0586
     22 H           6.2895   -0.1878    1.5921 H       1  LIG1        0.0620
     23 C           4.2833    2.0551   -0.8071 C.ar    1  LIG1       -0.0509
     24 C           5.6814    2.1170   -0.8401 C.ar    1  LIG1       -0.0499
     25 H           3.7062    2.6849   -1.4804 H       1  LIG1        0.0626
     26 H           7.4764    1.3226    0.0490 H       1  LIG1        0.0620
     27 C           3.6186   -0.5669    1.8988 C.3     1  LIG1       -0.0391
     28 H           4.3409   -1.0984    2.5243 H       1  LIG1        0.0278
     29 H           3.0238   -1.3130    1.3604 H       1  LIG1        0.0278
     30 H           2.9249   -0.0364    2.5602 H       1  LIG1        0.0278
     31 C           6.3976    3.0201   -1.8167 C.3     1  LIG1       -0.0397
     32 H           5.8024    3.9071   -2.0536 H       1  LIG1        0.0278
     33 H           6.5998    2.5031   -2.7633 H       1  LIG1        0.0278
     34 H           7.3605    3.3552   -1.4192 H       1  LIG1        0.0278
@<TRIPOS>BOND
     1    12    10    1
     2    33    31    1
     3    11    10    1
     4    32    31    1
     5    10    13    1
     6    10     1    1
     7    31    34    1
     8    31    24    1
     9    25    23    1
    10     5     2    1
    11     1     2   ar
    12     1     3   ar
    13    24    23   ar
    14    24    21   ar
    15     2     4   ar
    16    23    20   ar
    17     9     3    1
    18     3     6   ar
    19     4    20    1
    20     4     7   ar
    21    21    26    1
    22    21    19   ar
    23    20    18   ar
    24     6     7   ar
    25     6     8    1
    26     7    14    1
    27    19    18   ar
    28    19    22    1
    29    18    27    1
    30    16    14    1
    31    29    27    1
    32    14    15    1
    33    14    17    1
    34    27    28    1
    35    27    30    1
