@<TRIPOS>MOLECULE
mol_data/opt/b3lyp/geoms/mol2/4ii4ii4ii4ii.out
 66 69 0 0 0
SMALL
GASTEIGER

@<TRIPOS>ATOM
      1 C          -0.2213    1.9107   -0.9680 C.ar    1  LIG1       -0.0499
      2 C           1.1775    1.8715   -0.9147 C.ar    1  LIG1       -0.0509
      3 C          -0.9288    1.0680   -0.1061 C.ar    1  LIG1       -0.0586
      4 C           1.8676    1.0306   -0.0338 C.ar    1  LIG1       -0.0145
      5 H           1.7534    2.5147   -1.5764 H       1  LIG1        0.0626
      6 C          -0.2552    0.2275    0.7794 C.ar    1  LIG1       -0.0580
      7 C           1.1419    0.1897    0.8375 C.ar    1  LIG1       -0.0427
      8 H          -0.8280   -0.4170    1.4418 H       1  LIG1        0.0620
      9 H          -2.0160    1.0678   -0.1250 H       1  LIG1        0.0620
     10 C          -0.9358    2.8538   -1.9074 C.3     1  LIG1       -0.0397
     11 H          -0.3906    2.9721   -2.8490 H       1  LIG1        0.0278
     12 H          -1.0392    3.8533   -1.4666 H       1  LIG1        0.0278
     13 H          -1.9429    2.4968   -2.1426 H       1  LIG1        0.0278
     14 C           1.8444   -0.7256    1.8137 C.3     1  LIG1       -0.0391
     15 H           1.1221   -1.3025    2.3976 H       1  LIG1        0.0278
     16 H           2.4721   -0.1620    2.5123 H       1  LIG1        0.0278
     17 H           2.5073   -1.4334    1.3035 H       1  LIG1        0.0278
     18 C           4.1151    0.1810   -0.8486 C.ar    1  LIG1       -0.0421
     19 C           5.5108    0.2532   -0.7854 C.ar    1  LIG1       -0.0503
     20 C           3.3665    1.0454   -0.0257 C.ar    1  LIG1       -0.0144
     21 C           6.1856    1.1448    0.0570 C.ar    1  LIG1       -0.0144
     22 H           6.0999   -0.4068   -1.4179 H       1  LIG1        0.0627
     23 C           4.0412    1.9437    0.8096 C.ar    1  LIG1       -0.0503
     24 C           5.4368    2.0165    0.8721 C.ar    1  LIG1       -0.0421
     25 H           3.4520    2.6131    1.4318 H       1  LIG1        0.0627
     26 C           3.4423   -0.7950   -1.7862 C.3     1  LIG1       -0.0391
     27 H           4.1819   -1.3891   -2.3297 H       1  LIG1        0.0278
     28 H           2.8158   -0.2782   -2.5213 H       1  LIG1        0.0278
     29 H           2.7830   -1.4856   -1.2488 H       1  LIG1        0.0278
     30 C           6.1091    3.0145    1.7866 C.3     1  LIG1       -0.0391
     31 H           5.3693    3.5918    2.3476 H       1  LIG1        0.0278
     32 H           6.7324    3.7178    1.2239 H       1  LIG1        0.0278
     33 H           6.7712    2.5225    2.5079 H       1  LIG1        0.0278
     34 C           8.4194    0.3484    0.9533 C.ar    1  LIG1       -0.0421
     35 C           9.8158    0.4180    0.9084 C.ar    1  LIG1       -0.0503
     36 C           7.6840    1.1615    0.0684 C.ar    1  LIG1       -0.0144
     37 C          10.5040    1.2576    0.0245 C.ar    1  LIG1       -0.0144
     38 H          10.3948   -0.2068    1.5844 H       1  LIG1        0.0627
     39 C           8.3724    1.9938   -0.8222 C.ar    1  LIG1       -0.0503
     40 C           9.7690    2.0627   -0.8678 C.ar    1  LIG1       -0.0421
     41 H           7.7937    2.6084   -1.5078 H       1  LIG1        0.0627
     42 C           7.7322   -0.5851    1.9231 C.3     1  LIG1       -0.0391
     43 H           8.4628   -1.1224    2.5338 H       1  LIG1        0.0278
     44 H           7.1173   -1.3256    1.4001 H       1  LIG1        0.0278
     45 H           7.0592   -0.0453    2.5986 H       1  LIG1        0.0278
     46 C          10.4570    2.9727   -1.8592 C.3     1  LIG1       -0.0391
     47 H           9.7265    3.5281   -2.4534 H       1  LIG1        0.0278
     48 H          11.0944    2.4071   -2.5475 H       1  LIG1        0.0278
     49 H          11.1086    3.6985   -1.3600 H       1  LIG1        0.0278
     50 C          12.7145    2.1727    0.8627 C.ar    1  LIG1       -0.0427
     51 C          14.1124    2.1328    0.8293 C.ar    1  LIG1       -0.0580
     52 C          12.0029    1.2734    0.0394 C.ar    1  LIG1       -0.0145
     53 C          14.8001    1.2347    0.0140 C.ar    1  LIG1       -0.0586
     54 H          14.6745    2.8217    1.4552 H       1  LIG1        0.0620
     55 C          12.7070    0.3752   -0.7710 C.ar    1  LIG1       -0.0509
     56 C          14.1066    0.3343   -0.7995 C.ar    1  LIG1       -0.0499
     57 H          12.1417   -0.3123   -1.3964 H       1  LIG1        0.0626
     58 H          15.8874    1.2350    0.0122 H       1  LIG1        0.0620
     59 C          11.9965    3.1516    1.7629 C.3     1  LIG1       -0.0391
     60 H          12.7094    3.7686    2.3166 H       1  LIG1        0.0278
     61 H          11.3588    2.6361    2.4892 H       1  LIG1        0.0278
     62 H          11.3408    3.8213    1.1954 H       1  LIG1        0.0278
     63 C          14.8359   -0.6696   -1.6612 C.3     1  LIG1       -0.0397
     64 H          14.3082   -0.8486   -2.6033 H       1  LIG1        0.0278
     65 H          14.9280   -1.6383   -1.1539 H       1  LIG1        0.0278
     66 H          15.8482   -0.3304   -1.9001 H       1  LIG1        0.0278
@<TRIPOS>BOND
     1    11    10    1
     2    64    63    1
     3    48    46    1
     4    28    26    1
     5    47    46    1
     6    27    26    1
     7    13    10    1
     8    10    12    1
     9    10     1    1
    10    66    63    1
    11    46    49    1
    12    46    40    1
    13    26    29    1
    14    26    18    1
    15    63    65    1
    16    63    56    1
    17     5     2    1
    18    41    39    1
    19    22    19    1
    20    57    55    1
    21     1     2   ar
    22     1     3   ar
    23     2     4   ar
    24    40    39   ar
    25    40    37   ar
    26    18    19   ar
    27    18    20   ar
    28    39    36   ar
    29    56    55   ar
    30    56    53   ar
    31    19    21   ar
    32    55    52   ar
    33     9     3    1
    34     3     6   ar
    35     4    20    1
    36     4     7   ar
    37    20    23   ar
    38    58    53    1
    39    53    51   ar
    40    37    52    1
    41    37    35   ar
    42    52    50   ar
    43    21    36    1
    44    21    24   ar
    45    36    34   ar
    46     6     7   ar
    47     6     8    1
    48    23    24   ar
    49    23    25    1
    50    51    50   ar
    51    51    54    1
    52     7    14    1
    53    50    59    1
    54    24    30    1
    55    35    34   ar
    56    35    38    1
    57    34    42    1
    58    62    59    1
    59    32    30    1
    60    17    14    1
    61    44    42    1
    62    59    60    1
    63    59    61    1
    64    30    31    1
    65    30    33    1
    66    14    15    1
    67    14    16    1
    68    42    43    1
    69    42    45    1
