@<TRIPOS>MOLECULE
mol_data/opt/b3lyp/geoms/mol2/4ii4de6dh-13ea-.out
 53 56 0 0 0
SMALL
GASTEIGER

@<TRIPOS>ATOM
      1 C          -0.2562    0.6876   -1.1552 C.ar    1  LIG1       -0.0499
      2 C           1.1383    0.6920   -1.0605 C.ar    1  LIG1       -0.0508
      3 C          -0.9799    1.2357   -0.0915 C.ar    1  LIG1       -0.0586
      4 C           1.8079    1.2317    0.0465 C.ar    1  LIG1       -0.0135
      5 H           1.7251    0.2717   -1.8730 H       1  LIG1        0.0626
      6 C          -0.3263    1.7651    1.0189 C.ar    1  LIG1       -0.0580
      7 C           1.0695    1.7803    1.1174 C.ar    1  LIG1       -0.0427
      8 H          -0.9140    2.1675    1.8401 H       1  LIG1        0.0620
      9 H          -2.0665    1.2400   -0.1260 H       1  LIG1        0.0620
     10 C          -0.9503    0.1293   -2.3745 C.3     1  LIG1       -0.0397
     11 H          -0.3631   -0.6686   -2.8379 H       1  LIG1        0.0278
     12 H          -1.1043    0.9056   -3.1343 H       1  LIG1        0.0278
     13 H          -1.9336   -0.2775   -2.1211 H       1  LIG1        0.0278
     14 C           1.7289    2.3431    2.3569 C.3     1  LIG1       -0.0391
     15 H           0.9997    2.4438    3.1652 H       1  LIG1        0.0278
     16 H           2.1598    3.3358    2.1826 H       1  LIG1        0.0278
     17 H           2.5407    1.7020    2.7137 H       1  LIG1        0.0278
     18 C           4.0376    0.0102    0.0313 C.ar    1  LIG1        0.0601
     19 C           5.4411    0.0331   -0.0109 C.ar    1  LIG1       -0.0348
     20 C           3.3003    1.2168    0.0503 C.ar    1  LIG1        0.0009
     21 C           6.1516    1.2317   -0.0335 C.ar    1  LIG1        0.0015
     22 H           5.9816   -0.9070   -0.0367 H       1  LIG1        0.0637
     23 C           4.0213    2.4124    0.0423 C.ar    1  LIG1       -0.0368
     24 C           5.4255    2.4485    0.0073 C.ar    1  LIG1        0.0331
     25 H           3.4822    3.3529    0.0513 H       1  LIG1        0.0636
     26 N           2.9042   -2.3255    0.1181 N.1     1  LIG1       -0.1908
     27 C           3.3854   -1.2671    0.0741 C.1     1  LIG1        0.0998
     28 C           6.0865    3.7137    0.0423 C.1     1  LIG1       -0.0690
     29 C           6.6171    4.7996    0.0918 C.1     1  LIG1       -0.1139
     30 H           7.0935    5.7526    0.1159 H       1  LIG1        0.1232
     31 C           8.3928    1.6481   -1.1737 C.ar    1  LIG1        0.1486
     32 C           7.6392    1.1944   -0.0701 C.ar    1  LIG1        0.0210
     33 C           8.3583    0.6658    0.9951 C.ar    1  LIG1       -0.0284
     34 C           9.7639    0.5975    0.9898 C.ar    1  LIG1        0.0530
     35 C          10.4267    1.0410   -0.1982 C.ar    1  LIG1        0.1103
     36 N           9.7256    1.5604   -1.2159 N.ar    1  LIG1       -0.2324
     37 H           7.8229    0.3284    1.8786 H       1  LIG1        0.0643
     38 N           7.2585    2.6181   -3.3059 N.1     1  LIG1       -0.1893
     39 C           7.7615    2.1909   -2.3482 C.1     1  LIG1        0.1197
     40 N          10.4224    0.2014    2.1201 N.pl3   1  LIG1       -0.3563
     41 H           9.8628   -0.2176    2.8477 H       1  LIG1        0.1424
     42 H          11.3687   -0.1536    2.0608 H       1  LIG1        0.1424
     43 C          11.8801    1.0631   -0.4268 C.ar    1  LIG1        0.0824
     44 C          13.0214    0.3928    0.0604 C.ar    1  LIG1        0.0514
     45 C          14.1492    0.8988   -0.6617 C.ar    1  LIG1       -0.0283
     46 C          13.6827    1.8304   -1.5579 C.ar    1  LIG1        0.0034
     47 N          12.3292    1.9172   -1.4031 N.ar    1  LIG1       -0.3584
     48 H          11.6720    2.4490   -1.9576 H       1  LIG1        0.1654
     49 H          14.2053    2.4352   -2.2832 H       1  LIG1        0.0807
     50 C          13.1204   -0.6617    1.0026 C.1     1  LIG1       -0.0675
     51 C          13.2604   -1.5669    1.7984 C.1     1  LIG1       -0.1138
     52 H          13.3840   -2.3844    2.4704 H       1  LIG1        0.1232
     53 H          15.1728    0.5852   -0.5230 H       1  LIG1        0.0645
@<TRIPOS>BOND
     1    38    39    3
     2    12    10    1
     3    11    10    1
     4    10    13    1
     5    10     1    1
     6    39    31    1
     7    49    46    1
     8    48    47    1
     9     5     2    1
    10    46    47   ar
    11    46    45   ar
    12    47    43   ar
    13    36    31   ar
    14    36    35   ar
    15    31    32   ar
    16     1     2   ar
    17     1     3   ar
    18     2     4   ar
    19    45    53    1
    20    45    44   ar
    21    43    35    1
    22    43    44   ar
    23    35    34   ar
    24     9     3    1
    25     3     6   ar
    26    32    21    1
    27    32    33   ar
    28    22    19    1
    29    21    19   ar
    30    21    24   ar
    31    19    18   ar
    32    24    23   ar
    33    24    28    1
    34    18    20   ar
    35    18    27    1
    36    23    20   ar
    37    23    25    1
    38    28    29    3
    39     4    20    1
    40     4     7   ar
    41    44    50    1
    42    27    26    3
    43    29    30    1
    44    34    33   ar
    45    34    40    1
    46    33    37    1
    47    50    51    3
    48     6     7   ar
    49     6     8    1
    50     7    14    1
    51    51    52    1
    52    42    40    1
    53    40    41    1
    54    16    14    1
    55    14    17    1
    56    14    15    1
