@<TRIPOS>MOLECULE
mol_data/opt/b3lyp/geoms/mol2/4ii4il12ha12eh.out
 55 58 0 0 0
SMALL
GASTEIGER

@<TRIPOS>ATOM
      1 C          -0.0868    0.3123   -0.9060 C.ar    1  LIG1       -0.0499
      2 C           1.3091    0.3998   -0.8514 C.ar    1  LIG1       -0.0508
      3 C          -0.8189    0.9794    0.0809 C.ar    1  LIG1       -0.0586
      4 C           1.9734    1.1302    0.1419 C.ar    1  LIG1       -0.0144
      5 H           1.9037   -0.1115   -1.6052 H       1  LIG1        0.0626
      6 C          -0.1714    1.7106    1.0754 C.ar    1  LIG1       -0.0580
      7 C           1.2239    1.8046    1.1291 C.ar    1  LIG1       -0.0427
      8 H          -0.7627    2.2200    1.8325 H       1  LIG1        0.0620
      9 H          -1.9050    0.9275    0.0737 H       1  LIG1        0.0620
     10 C          -0.7761   -0.4522   -2.0117 C.3     1  LIG1       -0.0397
     11 H          -0.1538   -1.2733   -2.3803 H       1  LIG1        0.0278
     12 H          -0.9962    0.1976   -2.8682 H       1  LIG1        0.0278
     13 H          -1.7274   -0.8744   -1.6736 H       1  LIG1        0.0278
     14 C           1.8968    2.6072    2.2186 C.3     1  LIG1       -0.0391
     15 H           1.1593    3.0100    2.9182 H       1  LIG1        0.0278
     16 H           2.4666    3.4479    1.8081 H       1  LIG1        0.0278
     17 H           2.6082    2.0003    2.7893 H       1  LIG1        0.0278
     18 C           4.2516    0.1890    0.7542 C.ar    1  LIG1       -0.0418
     19 C           5.6424    0.3064    0.7111 C.ar    1  LIG1       -0.0440
     20 C           3.4707    1.1855    0.1326 C.ar    1  LIG1       -0.0112
     21 C           6.3099    1.3647    0.0606 C.ar    1  LIG1        0.0610
     22 H           6.2397   -0.4281    1.2438 H       1  LIG1        0.0629
     23 C           4.1176    2.2446   -0.5139 C.ar    1  LIG1       -0.0113
     24 C           5.5066    2.3455   -0.5654 C.ar    1  LIG1        0.1314
     25 H           3.5374    3.0212   -1.0027 H       1  LIG1        0.0660
     26 C           3.6117   -0.9743    1.4773 C.3     1  LIG1       -0.0391
     27 H           4.3675   -1.5966    1.9640 H       1  LIG1        0.0278
     28 H           3.0404   -1.6100    0.7917 H       1  LIG1        0.0278
     29 H           2.9075   -0.6349    2.2442 H       1  LIG1        0.0278
     30 O           6.0395    3.4431   -1.2037 O.3     1  LIG1       -0.4944
     31 C           6.6386    3.1843   -2.4715 C.3     1  LIG1        0.0788
     32 H           7.0137    4.1427   -2.8350 H       1  LIG1        0.0660
     33 H           7.4751    2.4811   -2.3944 H       1  LIG1        0.0660
     34 H           5.8998    2.7889   -3.1817 H       1  LIG1        0.0660
     35 C           7.7653    1.3952    0.0701 C.ar    1  LIG1        0.1598
     36 C           8.7115    0.3820    0.0962 C.ar    1  LIG1        0.0718
     37 C           9.9878    1.0121    0.1222 C.ar    1  LIG1        0.0087
     38 C           9.7515    2.3671    0.1059 C.ar    1  LIG1        0.1737
     39 O           8.4150    2.6123    0.0723 O.2     1  LIG1       -0.4497
     40 N           8.4868   -0.9984    0.1311 N.pl3   1  LIG1       -0.3550
     41 H           7.6078   -1.2712   -0.2931 H       1  LIG1        0.1424
     42 H           9.2500   -1.5293   -0.2703 H       1  LIG1        0.1424
     43 H          10.9561    0.5351    0.1493 H       1  LIG1        0.0675
     44 C          10.6376    3.4943    0.1172 C.ar    1  LIG1        0.1869
     45 C          12.0230    3.5833    0.1540 C.ar    1  LIG1        0.0940
     46 C          12.3323    4.9960    0.1392 C.ar    1  LIG1        0.0792
     47 C          11.1310    5.6433    0.0910 C.ar    1  LIG1        0.1145
     48 O          10.0975    4.7341    0.0780 O.2     1  LIG1       -0.4567
     49 H          10.8461    6.6822    0.0748 H       1  LIG1        0.1049
     50 C          12.9757    2.5408    0.1842 C.1     1  LIG1       -0.0639
     51 C          13.8330    1.6829    0.1986 C.1     1  LIG1       -0.1137
     52 H          14.5775    0.9218    0.2306 H       1  LIG1        0.1232
     53 N          13.6198    5.5183    0.2310 N.pl3   1  LIG1       -0.3546
     54 H          14.3300    4.8685   -0.0837 H       1  LIG1        0.1424
     55 H          13.7358    6.4250   -0.2017 H       1  LIG1        0.1424
@<TRIPOS>BOND
     1    34    31    1
     2    12    10    1
     3    32    31    1
     4    31    33    1
     5    31    30    1
     6    11    10    1
     7    10    13    1
     8    10     1    1
     9     5     2    1
    10    30    24    1
    11    25    23    1
    12     1     2   ar
    13     1     3   ar
    14     2     4   ar
    15    24    23   ar
    16    24    21   ar
    17    23    20   ar
    18    41    40    1
    19    42    40    1
    20    55    53    1
    21    54    53    1
    22    21    35    1
    23    21    19   ar
    24    35    39   ar
    25    35    36   ar
    26    39    38   ar
    27     9     3    1
    28    49    47    1
    29    48    47   ar
    30    48    44   ar
    31     3     6   ar
    32    47    46   ar
    33    36    37   ar
    34    36    40    1
    35    38    44    1
    36    38    37   ar
    37    44    45   ar
    38    37    43    1
    39    20     4    1
    40    20    18   ar
    41    46    45   ar
    42    46    53    1
    43     4     7   ar
    44    45    50    1
    45    50    51    3
    46    51    52    1
    47    19    18   ar
    48    19    22    1
    49    18    26    1
    50    28    26    1
    51     6     7   ar
    52     6     8    1
    53     7    14    1
    54    26    27    1
    55    26    29    1
    56    16    14    1
    57    14    17    1
    58    14    15    1
