@<TRIPOS>MOLECULE
mol_data/opt/b3lyp/geoms/mol2/4ii4ha-12hf-13ff-.out
 50 53 0 0 0
SMALL
GASTEIGER

@<TRIPOS>ATOM
      1 C          -0.0702    0.3236    1.1588 C.ar    1  LIG1       -0.0499
      2 C           1.3149    0.3862    0.9760 C.ar    1  LIG1       -0.0508
      3 C          -0.8747    1.0805    0.3004 C.ar    1  LIG1       -0.0586
      4 C           1.9097    1.1714   -0.0257 C.ar    1  LIG1       -0.0130
      5 H           1.9641   -0.1842    1.6353 H       1  LIG1        0.0626
      6 C          -0.3037    1.8563   -0.7058 C.ar    1  LIG1       -0.0580
      7 C           1.0825    1.9199   -0.8945 C.ar    1  LIG1       -0.0427
      8 H          -0.9503    2.4277   -1.3678 H       1  LIG1        0.0620
      9 H          -1.9558    1.0602    0.4160 H       1  LIG1        0.0620
     10 C          -0.6746   -0.5490    2.2339 C.3     1  LIG1       -0.0397
     11 H           0.0101   -0.6764    3.0775 H       1  LIG1        0.0278
     12 H          -0.9079   -1.5508    1.8514 H       1  LIG1        0.0278
     13 H          -1.6078   -0.1241    2.6165 H       1  LIG1        0.0278
     14 C           1.6479    2.7677   -2.0119 C.3     1  LIG1       -0.0391
     15 H           0.8731    3.0024   -2.7476 H       1  LIG1        0.0278
     16 H           2.4708    2.2620   -2.5252 H       1  LIG1        0.0278
     17 H           2.0484    3.7191   -1.6433 H       1  LIG1        0.0278
     18 C           4.1430    0.0422   -0.4567 C.ar    1  LIG1        0.0330
     19 C           5.5406    0.1144   -0.5468 C.ar    1  LIG1       -0.0297
     20 C           3.4001    1.2049   -0.1339 C.ar    1  LIG1        0.0031
     21 C           6.2338    1.3154   -0.3170 C.ar    1  LIG1        0.0210
     22 H           6.0976   -0.7968   -0.7443 H       1  LIG1        0.0643
     23 C           4.1089    2.3906    0.1065 C.ar    1  LIG1       -0.0516
     24 C           5.4925    2.4647    0.0230 C.ar    1  LIG1       -0.0503
     25 H           3.5454    3.2806    0.3735 H       1  LIG1        0.0624
     26 N           3.5067   -1.1881   -0.6343 N.pl3   1  LIG1       -0.3575
     27 H           2.5275   -1.1333   -0.8788 H       1  LIG1        0.1423
     28 H           4.0146   -1.8540   -1.1993 H       1  LIG1        0.1423
     29 H           6.0051    3.4008    0.2100 H       1  LIG1        0.0625
     30 C           7.6772    1.3658   -0.4274 C.ar    1  LIG1        0.1601
     31 C           8.6164    0.5455   -1.0199 C.ar    1  LIG1        0.1138
     32 C           9.8910    1.1490   -0.7961 C.ar    1  LIG1        0.1861
     33 C           9.6714    2.3108   -0.0932 C.ar    1  LIG1        0.1985
     34 O           8.3246    2.4574    0.1289 O.2     1  LIG1       -0.4475
     35 N           8.4419   -0.6646   -1.7010 N.pl3   1  LIG1       -0.3522
     36 H           7.6435   -0.6570   -2.3259 H       1  LIG1        0.1425
     37 H           9.2835   -0.9172   -2.2077 H       1  LIG1        0.1425
     38 O          11.0389    0.5865   -1.2534 O.3     1  LIG1       -0.5019
     39 H          11.7889    1.1781   -1.0533 H       1  LIG1        0.2924
     40 C          10.5451    3.3244    0.4241 C.ar    1  LIG1        0.1316
     41 C          11.9171    3.4894    0.2932 C.ar    1  LIG1        0.1873
     42 C          12.2972    4.6417    1.0192 C.ar    1  LIG1        0.1768
     43 C          11.1556    5.1764    1.5868 C.ar    1  LIG1        0.0480
     44 N          10.1026    4.3674    1.2103 N.ar    1  LIG1       -0.3521
     45 H           9.1428    4.4731    1.4932 H       1  LIG1        0.1656
     46 H          11.0133    6.0498    2.2035 H       1  LIG1        0.0845
     47 O          12.7450    2.6752   -0.4529 O.3     1  LIG1       -0.5018
     48 H          13.6589    2.8549   -0.1925 H       1  LIG1        0.2924
     49 O          13.6078    5.0516    1.0603 O.3     1  LIG1       -0.5023
     50 H          13.7240    5.6768    1.7859 H       1  LIG1        0.2923
@<TRIPOS>BOND
     1    15    14    1
     2    16    14    1
     3    36    35    1
     4    37    35    1
     5    14    17    1
     6    14     7    1
     7    35    31    1
     8     8     6    1
     9    38    39    1
    10    38    32    1
    11    28    26    1
    12    31    32   ar
    13    31    30   ar
    14     7     6   ar
    15     7     4   ar
    16    27    26    1
    17    32    33   ar
    18    22    19    1
    19     6     3   ar
    20    26    18    1
    21    19    18   ar
    22    19    21   ar
    23    18    20   ar
    24    47    48    1
    25    47    41    1
    26    30    21    1
    27    30    34   ar
    28    21    24   ar
    29    20     4    1
    30    20    23   ar
    31    33    34   ar
    32    33    40    1
    33     4     2   ar
    34    24    23   ar
    35    24    29    1
    36    23    25    1
    37    41    40   ar
    38    41    42   ar
    39     3     9    1
    40     3     1   ar
    41    40    44   ar
    42     2     1   ar
    43     2     5    1
    44    42    49    1
    45    42    43   ar
    46    49    50    1
    47     1    10    1
    48    44    45    1
    49    44    43   ar
    50    43    46    1
    51    12    10    1
    52    10    13    1
    53    10    11    1
