@<TRIPOS>MOLECULE
mol_data/opt/b3lyp/geoms/mol2/4ii4ii4ii.out
 50 52 0 0 0
SMALL
GASTEIGER

@<TRIPOS>ATOM
      1 C          -0.0837    0.9879   -1.2975 C.ar    1  LIG1       -0.0499
      2 C           1.3135    1.0186   -1.2088 C.ar    1  LIG1       -0.0509
      3 C          -0.8108    0.9741   -0.1039 C.ar    1  LIG1       -0.0586
      4 C           1.9832    1.0408    0.0203 C.ar    1  LIG1       -0.0145
      5 H           1.9047    1.0265   -2.1218 H       1  LIG1        0.0626
      6 C          -0.1577    0.9992    1.1278 C.ar    1  LIG1       -0.0580
      7 C           1.2378    1.0337    1.2190 C.ar    1  LIG1       -0.0427
      8 H          -0.7455    0.9899    2.0426 H       1  LIG1        0.0620
      9 H          -1.8973    0.9439   -0.1353 H       1  LIG1        0.0620
     10 C          -0.7765    0.9972   -2.6400 C.3     1  LIG1       -0.0397
     11 H          -0.1996    0.4513   -3.3929 H       1  LIG1        0.0278
     12 H          -0.9086    2.0205   -3.0136 H       1  LIG1        0.0278
     13 H          -1.7699    0.5427   -2.5804 H       1  LIG1        0.0278
     14 C           1.9170    1.0677    2.5686 C.3     1  LIG1       -0.0391
     15 H           1.1810    1.0444    3.3769 H       1  LIG1        0.0278
     16 H           2.5248    1.9708    2.6902 H       1  LIG1        0.0278
     17 H           2.5942    0.2172    2.7052 H       1  LIG1        0.0278
     18 C           4.2486   -0.1010    0.0595 C.ar    1  LIG1       -0.0421
     19 C           5.6425    0.0170    0.0687 C.ar    1  LIG1       -0.0503
     20 C           3.4817    1.0805    0.0379 C.ar    1  LIG1       -0.0144
     21 C           6.2981    1.2540    0.0565 C.ar    1  LIG1       -0.0144
     22 H           6.2461   -0.8875    0.0812 H       1  LIG1        0.0627
     23 C           4.1373    2.3173    0.0186 C.ar    1  LIG1       -0.0503
     24 C           5.5312    2.4353    0.0268 C.ar    1  LIG1       -0.0421
     25 H           3.5338    3.2216   -0.0084 H       1  LIG1        0.0627
     26 C           3.5980   -1.4652    0.0604 C.3     1  LIG1       -0.0391
     27 H           4.3506   -2.2574    0.0960 H       1  LIG1        0.0278
     28 H           2.9865   -1.6188   -0.8353 H       1  LIG1        0.0278
     29 H           2.9292   -1.5958    0.9183 H       1  LIG1        0.0278
     30 C           6.1821    3.7989   -0.0085 C.3     1  LIG1       -0.0391
     31 H           5.4292    4.5918   -0.0087 H       1  LIG1        0.0278
     32 H           6.8053    3.9233   -0.9007 H       1  LIG1        0.0278
     33 H           6.8397    3.9577    0.8534 H       1  LIG1        0.0278
     34 C           8.5237    1.3411    1.2693 C.ar    1  LIG1       -0.0427
     35 C           9.9205    1.3730    1.1983 C.ar    1  LIG1       -0.0580
     36 C           7.7966    1.2935    0.0604 C.ar    1  LIG1       -0.0145
     37 C          10.5922    1.3570   -0.0235 C.ar    1  LIG1       -0.0586
     38 H          10.4943    1.4132    2.1210 H       1  LIG1        0.0620
     39 C           8.4850    1.2747   -1.1585 C.ar    1  LIG1       -0.0509
     40 C           9.8834    1.3028   -1.2269 C.ar    1  LIG1       -0.0499
     41 H           7.9077    1.2359   -2.0796 H       1  LIG1        0.0626
     42 H          11.6791    1.3864   -0.0394 H       1  LIG1        0.0620
     43 C           7.8241    1.3525    2.6088 C.3     1  LIG1       -0.0391
     44 H           8.5478    1.4000    3.4271 H       1  LIG1        0.0278
     45 H           7.2117    0.4554    2.7502 H       1  LIG1        0.0278
     46 H           7.1477    2.2088    2.7076 H       1  LIG1        0.0278
     47 C          10.5965    1.2487   -2.5576 C.3     1  LIG1       -0.0397
     48 H          10.0305    1.7675   -3.3375 H       1  LIG1        0.0278
     49 H          10.7355    0.2134   -2.8938 H       1  LIG1        0.0278
     50 H          11.5884    1.7066   -2.4986 H       1  LIG1        0.0278
@<TRIPOS>BOND
     1    11    10    1
     2    48    47    1
     3    12    10    1
     4    49    47    1
     5    10    13    1
     6    10     1    1
     7    47    50    1
     8    47    40    1
     9     5     2    1
    10    41    39    1
    11     1     2   ar
    12     1     3   ar
    13    40    39   ar
    14    40    37   ar
    15     2     4   ar
    16    39    36   ar
    17    32    30    1
    18    28    26    1
    19     9     3    1
    20     3     6   ar
    21    42    37    1
    22    37    35   ar
    23    31    30    1
    24    30    24    1
    25    30    33    1
    26    25    23    1
    27    23    24   ar
    28    23    20   ar
    29     4    20    1
    30     4     7   ar
    31    24    21   ar
    32    20    18   ar
    33    21    36    1
    34    21    19   ar
    35    18    26    1
    36    18    19   ar
    37    36    34   ar
    38    26    27    1
    39    26    29    1
    40    19    22    1
    41     6     7   ar
    42     6     8    1
    43    35    34   ar
    44    35    38    1
    45     7    14    1
    46    34    43    1
    47    14    16    1
    48    14    17    1
    49    14    15    1
    50    43    46    1
    51    43    45    1
    52    43    44    1
