@<TRIPOS>MOLECULE
mol_data/opt/b3lyp/geoms/mol2/4il.out
 19 19 0 0 0
SMALL
GASTEIGER

@<TRIPOS>ATOM
      1 C           0.0534   -0.0055   -0.0012 C.ar    1  LIG1       -0.0502
      2 C           1.4467   -0.0569    0.0532 C.ar    1  LIG1       -0.0554
      3 C          -0.5464    1.2639   -0.0666 C.ar    1  LIG1       -0.0554
      4 C           2.2318    1.1017    0.0437 C.ar    1  LIG1       -0.0197
      5 H           1.9431   -1.0229    0.1046 H       1  LIG1        0.0621
      6 C           0.2126    2.4255   -0.0773 C.ar    1  LIG1       -0.0197
      7 C           1.6126    2.3523   -0.0220 C.ar    1  LIG1        0.1201
      8 H          -0.2534    3.4042   -0.1279 H       1  LIG1        0.0654
      9 H           3.3107    1.0122    0.0875 H       1  LIG1        0.0654
     10 H          -1.6303    1.3413   -0.1102 H       1  LIG1        0.0621
     11 C          -0.7874   -1.2604    0.0094 C.3     1  LIG1       -0.0397
     12 H          -0.1638   -2.1571    0.0641 H       1  LIG1        0.0278
     13 H          -1.4039   -1.3403   -0.8938 H       1  LIG1        0.0278
     14 H          -1.4715   -1.2800    0.8660 H       1  LIG1        0.0278
     15 O           2.2706    3.5517   -0.0376 O.3     1  LIG1       -0.4951
     16 C           3.6869    3.5360    0.0159 C.3     1  LIG1        0.0788
     17 H           4.0022    4.5803   -0.0077 H       1  LIG1        0.0660
     18 H           4.0541    3.0702    0.9398 H       1  LIG1        0.0660
     19 H           4.1207    3.0097   -0.8446 H       1  LIG1        0.0660
@<TRIPOS>BOND
     1    13    11    1
     2    19    16    1
     3     8     6    1
     4    10     3    1
     5     6     3   ar
     6     6     7   ar
     7     3     1   ar
     8    15     7    1
     9    15    16    1
    10     7     4   ar
    11    17    16    1
    12     1    11    1
    13     1     2   ar
    14    11    12    1
    15    11    14    1
    16    16    18    1
    17     4     2   ar
    18     4     9    1
    19     2     5    1
