@<TRIPOS>MOLECULE
mol_data/opt/b3lyp/geoms/mol2/4il12ih-12ah13la-.out
 52 55 0 0 0
SMALL
GASTEIGER

@<TRIPOS>ATOM
      1 C          -0.1536   -0.0032   -0.5578 C.ar    1  LIG1       -0.0496
      2 C           1.2403    0.0745   -0.5153 C.ar    1  LIG1       -0.0446
      3 C          -0.8868    0.9963    0.0937 C.ar    1  LIG1       -0.0553
      4 C           1.9276    1.0946    0.1700 C.ar    1  LIG1        0.0594
      5 H           1.8229   -0.6581   -1.0655 H       1  LIG1        0.0628
      6 C          -0.2372    2.0193    0.7795 C.ar    1  LIG1       -0.0190
      7 C           1.1559    2.0773    0.8334 C.ar    1  LIG1        0.1307
      8 H          -0.7965    2.7976    1.2887 H       1  LIG1        0.0654
      9 H          -1.9732    0.9757    0.0640 H       1  LIG1        0.0621
     10 C          -0.8482   -1.1288   -1.2880 C.3     1  LIG1       -0.0397
     11 H          -0.1866   -1.5989   -2.0214 H       1  LIG1        0.0278
     12 H          -1.7382   -0.7736   -1.8172 H       1  LIG1        0.0278
     13 H          -1.1770   -1.9126   -0.5941 H       1  LIG1        0.0278
     14 O           1.7172    3.1385    1.5051 O.3     1  LIG1       -0.4944
     15 C           2.3891    2.8207    2.7238 C.3     1  LIG1        0.0788
     16 H           2.7729    3.7644    3.1154 H       1  LIG1        0.0660
     17 H           1.6936    2.3807    3.4508 H       1  LIG1        0.0660
     18 H           3.2270    2.1338    2.5660 H       1  LIG1        0.0660
     19 C           3.3907    1.1097    0.1508 C.ar    1  LIG1        0.1441
     20 C           4.3295    0.1002    0.2086 C.ar    1  LIG1        0.0168
     21 C           5.6067    0.7414    0.1106 C.ar    1  LIG1        0.0776
     22 C           5.3668    2.0973    0.0221 C.ar    1  LIG1        0.1914
     23 O           4.0121    2.3239    0.0440 O.2     1  LIG1       -0.4494
     24 C           4.1233   -1.3736    0.3923 C.3     1  LIG1       -0.0343
     25 H           4.8360   -1.7732    1.1231 H       1  LIG1        0.0279
     26 H           4.2659   -1.9360   -0.5406 H       1  LIG1        0.0279
     27 H           3.1162   -1.5928    0.7536 H       1  LIG1        0.0279
     28 N           6.8507    0.1033    0.1577 N.pl3   1  LIG1       -0.3547
     29 H           6.8236   -0.8358   -0.2223 H       1  LIG1        0.1424
     30 H           7.5795    0.6388   -0.3024 H       1  LIG1        0.1424
     31 C           6.2567    3.2135   -0.0745 C.ar    1  LIG1        0.1743
     32 C           7.6002    3.3523    0.1913 C.ar    1  LIG1        0.0087
     33 C           7.9579    4.6967   -0.1432 C.ar    1  LIG1        0.0733
     34 C           6.7992    5.3057   -0.5861 C.ar    1  LIG1        0.1760
     35 O           5.7564    4.3934   -0.5426 O.2     1  LIG1       -0.4482
     36 H           8.2429    2.6144    0.6502 H       1  LIG1        0.0675
     37 N           9.2137    5.2746    0.0395 N.pl3   1  LIG1       -0.3550
     38 H           9.9780    4.6507   -0.1864 H       1  LIG1        0.1424
     39 H           9.3028    6.1688   -0.4344 H       1  LIG1        0.1424
     40 C           6.4408    6.6169   -1.0566 C.ar    1  LIG1        0.1261
     41 C           7.1508    7.8036   -1.2368 C.ar    1  LIG1        0.1483
     42 C           6.2642    8.7864   -1.7551 C.ar    1  LIG1       -0.0018
     43 C           5.0302    8.1838   -1.8825 C.ar    1  LIG1        0.0058
     44 N           5.1485    6.8819   -1.4690 N.ar    1  LIG1       -0.3553
     45 H           4.4142    6.1924   -1.4382 H       1  LIG1        0.1655
     46 H           4.0892    8.5742   -2.2386 H       1  LIG1        0.0808
     47 O           8.5007    7.9583   -0.9855 O.3     1  LIG1       -0.4929
     48 C           8.8019    8.9204    0.0294 C.3     1  LIG1        0.0789
     49 H           9.8891    8.9357    0.1327 H       1  LIG1        0.0660
     50 H           8.4543    9.9201   -0.2554 H       1  LIG1        0.0660
     51 H           8.3448    8.6405    0.9859 H       1  LIG1        0.0660
     52 H           6.5094    9.8061   -2.0142 H       1  LIG1        0.0669
@<TRIPOS>BOND
     1    46    43    1
     2    11    10    1
     3    52    42    1
     4    43    42   ar
     5    43    44   ar
     6    12    10    1
     7    42    41   ar
     8    44    45    1
     9    44    40   ar
    10    10    13    1
    11    10     1    1
    12    41    40   ar
    13    41    47    1
    14     5     2    1
    15    40    34    1
    16    47    48    1
    17    34    35   ar
    18    34    33   ar
    19     1     2   ar
    20     1     3   ar
    21    35    31   ar
    22    26    24    1
    23     2     4   ar
    24    39    37    1
    25    30    28    1
    26    50    48    1
    27    29    28    1
    28    38    37    1
    29    33    37    1
    30    33    32   ar
    31    31    22    1
    32    31    32   ar
    33    22    23   ar
    34    22    21   ar
    35    48    49    1
    36    48    51    1
    37    23    19   ar
    38     9     3    1
    39     3     6   ar
    40    21    28    1
    41    21    20   ar
    42    19     4    1
    43    19    20   ar
    44     4     7   ar
    45    32    36    1
    46    20    24    1
    47    24    27    1
    48    24    25    1
    49     6     7   ar
    50     6     8    1
    51     7    14    1
    52    14    15    1
    53    18    15    1
    54    15    16    1
    55    15    17    1
