@<TRIPOS>MOLECULE
mol_data/opt/b3lyp/geoms/mol2/4il12di6he-6hd.out
 55 58 0 0 0
SMALL
GASTEIGER

@<TRIPOS>ATOM
      1 C           0.3794   -0.4870   -0.9430 C.ar    1  LIG1       -0.0495
      2 C           1.7188   -0.2664   -0.6099 C.ar    1  LIG1       -0.0446
      3 C          -0.5011    0.5901   -0.8217 C.ar    1  LIG1       -0.0553
      4 C           2.1904    0.9762   -0.1612 C.ar    1  LIG1        0.0604
      5 H           2.4272   -1.0832   -0.7052 H       1  LIG1        0.0628
      6 C          -0.0684    1.8414   -0.3784 C.ar    1  LIG1       -0.0190
      7 C           1.2696    2.0484   -0.0410 C.ar    1  LIG1        0.1308
      8 H          -0.7867    2.6470   -0.2914 H       1  LIG1        0.0654
      9 H          -1.5495    0.4582   -1.0751 H       1  LIG1        0.0621
     10 C          -0.0807   -1.8355   -1.4432 C.3     1  LIG1       -0.0397
     11 H           0.3620   -2.6492   -0.8606 H       1  LIG1        0.0278
     12 H           0.2066   -1.9921   -2.4900 H       1  LIG1        0.0278
     13 H          -1.1683   -1.9309   -1.3837 H       1  LIG1        0.0278
     14 O           1.7492    3.2384    0.4385 O.3     1  LIG1       -0.4944
     15 C           0.8128    4.2573    0.7716 C.3     1  LIG1        0.0788
     16 H           1.3944    5.0558    1.2347 H       1  LIG1        0.0660
     17 H           0.3051    4.6478   -0.1186 H       1  LIG1        0.0660
     18 H           0.0656    3.8946    1.4866 H       1  LIG1        0.0660
     19 C           3.5973    1.1114    0.1991 C.ar    1  LIG1        0.1567
     20 C           4.5099    0.2485    0.7792 C.ar    1  LIG1        0.1010
     21 C           5.7668    0.9473    0.8951 C.ar    1  LIG1        0.0134
     22 C           5.5425    2.1936    0.3638 C.ar    1  LIG1        0.1432
     23 O           4.2313    2.2823   -0.0584 O.2     1  LIG1       -0.4530
     24 N           4.0924   -2.1558    1.6269 N.1     1  LIG1       -0.1907
     25 C           4.2621   -1.0700    1.2412 C.1     1  LIG1        0.1032
     26 C           7.0088    0.3917    1.5217 C.3     1  LIG1       -0.0349
     27 H           7.6019    1.1783    1.9954 H       1  LIG1        0.0279
     28 H           7.6473   -0.1109    0.7852 H       1  LIG1        0.0279
     29 H           6.7530   -0.3501    2.2831 H       1  LIG1        0.0279
     30 C           5.8452    4.7102    0.2031 C.ar    1  LIG1        0.1277
     31 C           6.3694    3.3789    0.1779 C.ar    1  LIG1        0.0582
     32 C           7.7438    3.2661   -0.0040 C.ar    1  LIG1       -0.0303
     33 C           8.5833    4.3857   -0.1432 C.ar    1  LIG1        0.0515
     34 C           7.9663    5.6633   -0.1216 C.ar    1  LIG1        0.0918
     35 N           6.6395    5.7807    0.0618 N.ar    1  LIG1       -0.2304
     36 H           8.1971    2.2832   -0.0503 H       1  LIG1        0.0638
     37 N           4.5220    4.9818    0.4086 N.pl3   1  LIG1       -0.3426
     38 H           4.2514    5.9325    0.2079 H       1  LIG1        0.1437
     39 H           3.8299    4.2590    0.2652 H       1  LIG1        0.1437
     40 C           9.9880    4.1617   -0.2556 C.1     1  LIG1       -0.0675
     41 C          11.1674    3.8987   -0.3347 C.1     1  LIG1       -0.1138
     42 H          12.2115    3.6980   -0.4070 H       1  LIG1        0.1232
     43 C           8.3742    8.1371    0.3994 C.ar    1  LIG1        0.1255
     44 C           8.7216    6.9302   -0.2973 C.ar    1  LIG1        0.0423
     45 C           9.7995    7.0066   -1.1725 C.ar    1  LIG1       -0.0304
     46 C          10.5274    8.1987   -1.3182 C.ar    1  LIG1        0.0706
     47 C          10.1269    9.3002   -0.5454 C.ar    1  LIG1        0.0471
     48 N           9.0880    9.2769    0.2765 N.ar    1  LIG1       -0.2388
     49 H          10.0851    6.1408   -1.7554 H       1  LIG1        0.0638
     50 H          10.6725   10.2392   -0.6135 H       1  LIG1        0.0843
     51 N           7.3275    8.1966    1.2608 N.pl3   1  LIG1       -0.3426
     52 H           7.1019    9.1168    1.6070 H       1  LIG1        0.1437
     53 H           6.6021    7.5003    1.1474 H       1  LIG1        0.1437
     54 N          12.5375    8.3757   -2.9450 N.1     1  LIG1       -0.1908
     55 C          11.6335    8.2930   -2.2154 C.1     1  LIG1        0.1007
@<TRIPOS>BOND
     1    54    55    3
     2    12    10    1
     3    55    46    1
     4    49    45    1
     5    10    13    1
     6    10     1    1
     7    10    11    1
     8    46    45   ar
     9    46    47   ar
    10    45    44   ar
    11     9     3    1
    12     1     3   ar
    13     1     2   ar
    14     3     6   ar
    15     5     2    1
    16    50    47    1
    17     2     4   ar
    18    47    48   ar
    19    42    41    1
    20     6     8    1
    21     6     7   ar
    22    41    40    3
    23    44    34    1
    24    44    43   ar
    25    40    33    1
    26     4     7   ar
    27     4    19    1
    28    33    34   ar
    29    33    32   ar
    30    34    35   ar
    31    17    15    1
    32    23    19   ar
    33    23    22   ar
    34    36    32    1
    35     7    14    1
    36    32    31   ar
    37    35    30   ar
    38    31    30   ar
    39    31    22    1
    40    19    20   ar
    41    30    37    1
    42    38    37    1
    43    39    37    1
    44    48    43   ar
    45    22    21   ar
    46    43    51    1
    47    14    15    1
    48    15    16    1
    49    15    18    1
    50    20    21   ar
    51    20    25    1
    52    28    26    1
    53    21    26    1
    54    53    51    1
    55    25    24    3
    56    51    52    1
    57    26    27    1
    58    26    29    1
