@<TRIPOS>MOLECULE
mol_data/opt/b3lyp/geoms/mol2/4la.out
 16 16 0 0 0
SMALL
GASTEIGER

@<TRIPOS>ATOM
      1 C           0.0470    0.1646    0.0002 C.ar    1  LIG1        0.1201
      2 C           1.4476    0.0849   -0.0001 C.ar    1  LIG1       -0.0200
      3 C          -0.5799    1.4160    0.0001 C.ar    1  LIG1       -0.0200
      4 C           2.2098    1.2470   -0.0004 C.ar    1  LIG1       -0.0583
      5 H           1.9091   -0.8972   -0.0000 H       1  LIG1        0.0654
      6 C           0.2021    2.5757   -0.0002 C.ar    1  LIG1       -0.0583
      7 C           1.5925    2.5027   -0.0004 C.ar    1  LIG1       -0.0615
      8 H          -0.2917    3.5434   -0.0002 H       1  LIG1        0.0619
      9 H           3.2937    1.1731   -0.0006 H       1  LIG1        0.0619
     10 H          -1.6604    1.4991    0.0003 H       1  LIG1        0.0654
     11 O          -0.6117   -1.0331    0.0005 O.3     1  LIG1       -0.4951
     12 C          -2.0295   -1.0185    0.0007 C.3     1  LIG1        0.0788
     13 H          -2.3419   -2.0638    0.0010 H       1  LIG1        0.0660
     14 H          -2.4309   -0.5228    0.8942 H       1  LIG1        0.0660
     15 H          -2.4312   -0.5231   -0.8928 H       1  LIG1        0.0660
     16 H           2.1905    3.4085   -0.0007 H       1  LIG1        0.0618
@<TRIPOS>BOND
     1    15    12    1
     2    16     7    1
     3     9     4    1
     4     7     4   ar
     5     7     6   ar
     6     4     2   ar
     7     8     6    1
     8     6     3   ar
     9     2     5    1
    10     2     1   ar
    11     3     1   ar
    12     3    10    1
    13     1    11    1
    14    11    12    1
    15    12    13    1
    16    12    14    1
