@<TRIPOS>MOLECULE
mol_data/opt/b3lyp/geoms/mol2/4la13af-4ed13fi.out
 50 53 0 0 0
SMALL
GASTEIGER

@<TRIPOS>ATOM
      1 C          -0.1777    0.0419   -0.2800 C.ar    1  LIG1        0.1207
      2 C           1.2001    0.0114   -0.0379 C.ar    1  LIG1       -0.0108
      3 C          -0.8551    1.2664   -0.3381 C.ar    1  LIG1       -0.0199
      4 C           1.9193    1.1950    0.1648 C.ar    1  LIG1        0.0019
      5 H           1.7000   -0.9508   -0.0324 H       1  LIG1        0.0661
      6 C          -0.1343    2.4474   -0.1387 C.ar    1  LIG1       -0.0577
      7 C           1.2313    2.4250    0.1152 C.ar    1  LIG1       -0.0524
      8 H          -0.6589    3.3980   -0.1704 H       1  LIG1        0.0619
      9 H          -1.9199    1.3116   -0.5302 H       1  LIG1        0.0654
     10 O          -0.7666   -1.1771   -0.4608 O.3     1  LIG1       -0.4951
     11 C          -2.1591   -1.2176   -0.7294 C.3     1  LIG1        0.0788
     12 H          -2.4130   -2.2725   -0.8420 H       1  LIG1        0.0660
     13 H          -2.7446   -0.7926    0.0959 H       1  LIG1        0.0660
     14 H          -2.4092   -0.6858   -1.6564 H       1  LIG1        0.0660
     15 H           1.7585    3.3530    0.3131 H       1  LIG1        0.0624
     16 C           3.3578    1.1440    0.4219 C.ar    1  LIG1        0.0506
     17 C           4.1538    0.1254    0.9237 C.ar    1  LIG1        0.0058
     18 C           5.4929    0.5825    0.9261 C.ar    1  LIG1        0.1426
     19 C           5.5132    1.8931    0.4253 C.ar    1  LIG1        0.0901
     20 N           4.1809    2.2163    0.1630 N.ar    1  LIG1       -0.3512
     21 H           3.9199    2.9612   -0.4653 H       1  LIG1        0.1660
     22 H           3.8196   -0.8279    1.3049 H       1  LIG1        0.0675
     23 O           6.5031   -0.1515    1.4552 O.3     1  LIG1       -0.5046
     24 H           7.3399    0.0981    1.0295 H       1  LIG1        0.2922
     25 C           7.9002    2.6525   -0.0672 C.ar    1  LIG1        0.0346
     26 C           8.8377    3.6882   -0.1471 C.ar    1  LIG1       -0.0352
     27 C           6.5460    2.9105    0.3016 C.ar    1  LIG1        0.0185
     28 C           8.5204    5.0399    0.0887 C.ar    1  LIG1        0.0204
     29 H           9.8503    3.4328   -0.4255 H       1  LIG1        0.0637
     30 C           6.2229    4.2536    0.5364 C.ar    1  LIG1       -0.0333
     31 C           7.1566    5.2929    0.4289 C.ar    1  LIG1        0.0617
     32 H           5.2156    4.5060    0.8487 H       1  LIG1        0.0637
     33 C           8.3429    1.3398   -0.4170 C.1     1  LIG1       -0.0690
     34 C           8.7403    0.2342   -0.7173 C.1     1  LIG1       -0.1139
     35 H           9.0774   -0.7322   -1.0157 H       1  LIG1        0.1232
     36 N           6.2610    7.6812    0.9124 N.1     1  LIG1       -0.1908
     37 C           6.6626    6.6076    0.6984 C.1     1  LIG1        0.0998
     38 C           9.5564    6.0521   -0.0278 C.ar    1  LIG1        0.0900
     39 C          10.9134    5.9242   -0.3602 C.ar    1  LIG1        0.1449
     40 C          11.5321    7.1995   -0.3427 C.ar    1  LIG1        0.0089
     41 C          10.5342    8.0940    0.0035 C.ar    1  LIG1        0.0087
     42 N           9.3702    7.4156    0.1881 N.ar    1  LIG1       -0.3574
     43 H           8.4950    7.8437    0.4486 H       1  LIG1        0.1655
     44 H          10.5810    9.1659    0.1292 H       1  LIG1        0.0811
     45 O          11.5312    4.7399   -0.6555 O.3     1  LIG1       -0.5044
     46 H          12.4609    4.9182   -0.8461 H       1  LIG1        0.2922
     47 C          12.9727    7.4920   -0.6410 C.3     1  LIG1       -0.0348
     48 H          13.1748    8.5636   -0.5659 H       1  LIG1        0.0279
     49 H          13.2578    7.1837   -1.6559 H       1  LIG1        0.0279
     50 H          13.6531    6.9885    0.0587 H       1  LIG1        0.0279
@<TRIPOS>BOND
     1    14    11    1
     2    49    47    1
     3    35    34    1
     4    46    45    1
     5    12    11    1
     6    11    10    1
     7    11    13    1
     8    34    33    3
     9    45    39    1
    10    47    48    1
    11    47    40    1
    12    47    50    1
    13     9     3    1
    14    21    20    1
    15    10     1    1
    16    29    26    1
    17    33    25    1
    18    39    40   ar
    19    39    38   ar
    20    40    41   ar
    21     3     1   ar
    22     3     6   ar
    23     1     2   ar
    24     8     6    1
    25    26    25   ar
    26    26    28   ar
    27     6     7   ar
    28    25    27   ar
    29     2     5    1
    30     2     4   ar
    31    38    28    1
    32    38    42   ar
    33    41    44    1
    34    41    42   ar
    35    28    31   ar
    36     7     4   ar
    37     7    15    1
    38    20    16   ar
    39    20    19   ar
    40     4    16    1
    41    42    43    1
    42    27    19    1
    43    27    30   ar
    44    16    17   ar
    45    19    18   ar
    46    31    30   ar
    47    31    37    1
    48    30    32    1
    49    37    36    3
    50    17    18   ar
    51    17    22    1
    52    18    23    1
    53    24    23    1
