@<TRIPOS>MOLECULE
mol_data/opt/b3lyp/geoms/mol2/4la4la-4la-4la-.out
 58 61 0 0 0
SMALL
GASTEIGER

@<TRIPOS>ATOM
      1 C          -0.1399    0.1307   -0.3656 C.ar    1  LIG1        0.1207
      2 C           1.2524    0.1940   -0.2256 C.ar    1  LIG1       -0.0121
      3 C          -0.8824    1.3056   -0.5127 C.ar    1  LIG1       -0.0199
      4 C           1.9259    1.4200   -0.2302 C.ar    1  LIG1       -0.0109
      5 H           1.7939   -0.7367   -0.0934 H       1  LIG1        0.0660
      6 C          -0.2089    2.5319   -0.5143 C.ar    1  LIG1       -0.0577
      7 C           1.1714    2.6009   -0.3735 C.ar    1  LIG1       -0.0537
      8 H          -0.7823    3.4473   -0.6322 H       1  LIG1        0.0619
      9 H          -1.9601    1.2816   -0.6205 H       1  LIG1        0.0654
     10 O          -0.6741   -1.1294   -0.3391 O.3     1  LIG1       -0.4951
     11 C          -2.0796   -1.2612   -0.4635 C.3     1  LIG1        0.0788
     12 H          -2.2885   -2.3311   -0.4135 H       1  LIG1        0.0660
     13 H          -2.6103   -0.7528    0.3523 H       1  LIG1        0.0660
     14 H          -2.4427   -0.8688   -1.4225 H       1  LIG1        0.0660
     15 H           1.6729    3.5604   -0.3778 H       1  LIG1        0.0624
     16 C           4.1241    2.3414    0.6863 C.ar    1  LIG1        0.1283
     17 C           5.5180    2.3062    0.7492 C.ar    1  LIG1       -0.0115
     18 C           3.4107    1.4355   -0.1361 C.ar    1  LIG1        0.0239
     19 C           6.2582    1.3752    0.0010 C.ar    1  LIG1       -0.0109
     20 H           6.0500    2.9994    1.3843 H       1  LIG1        0.0660
     21 C           4.1671    0.5176   -0.8751 C.ar    1  LIG1       -0.0500
     22 C           5.5577    0.4783   -0.8163 C.ar    1  LIG1       -0.0531
     23 H           3.6435   -0.1664   -1.5359 H       1  LIG1        0.0625
     24 O           3.3708    3.2191    1.4189 O.3     1  LIG1       -0.4945
     25 C           4.0305    4.1144    2.2978 C.3     1  LIG1        0.0788
     26 H           3.2421    4.6993    2.7744 H       1  LIG1        0.0660
     27 H           4.6000    3.5808    3.0693 H       1  LIG1        0.0660
     28 H           4.7073    4.7904    1.7595 H       1  LIG1        0.0660
     29 H           6.1021   -0.2302   -1.4319 H       1  LIG1        0.0624
     30 C           8.5846    2.4316    0.0888 C.ar    1  LIG1        0.1283
     31 C           9.9718    2.2937    0.1555 C.ar    1  LIG1       -0.0115
     32 C           7.7395    1.2943    0.0959 C.ar    1  LIG1        0.0239
     33 C          10.5755    1.0280    0.2367 C.ar    1  LIG1       -0.0109
     34 H          10.6056    3.1685    0.1396 H       1  LIG1        0.0660
     35 C           8.3628    0.0423    0.1730 C.ar    1  LIG1       -0.0500
     36 C           9.7460   -0.1005    0.2436 C.ar    1  LIG1       -0.0531
     37 H           7.7358   -0.8438    0.1919 H       1  LIG1        0.0625
     38 O           7.9660    3.6510    0.0016 O.3     1  LIG1       -0.4945
     39 C           8.7678    4.8141   -0.1202 C.3     1  LIG1        0.0788
     40 H           8.0710    5.6463   -0.2334 H       1  LIG1        0.0660
     41 H           9.3853    4.9809    0.7719 H       1  LIG1        0.0660
     42 H           9.4201    4.7658   -1.0010 H       1  LIG1        0.0660
     43 H          10.1831   -1.0927    0.2885 H       1  LIG1        0.0624
     44 C          12.9759    1.5895   -0.4278 C.ar    1  LIG1        0.1278
     45 C          14.3512    1.3822   -0.2767 C.ar    1  LIG1       -0.0193
     46 C          12.0493    0.8699    0.3674 C.ar    1  LIG1        0.0239
     47 C          14.8274    0.4649    0.6623 C.ar    1  LIG1       -0.0583
     48 H          15.0578    1.9283   -0.8897 H       1  LIG1        0.0654
     49 C          12.5655   -0.0417    1.2984 C.ar    1  LIG1       -0.0505
     50 C          13.9359   -0.2513    1.4544 C.ar    1  LIG1       -0.0610
     51 H          11.8652   -0.5829    1.9271 H       1  LIG1        0.0625
     52 H          15.8985    0.3199    0.7682 H       1  LIG1        0.0619
     53 O          12.4492    2.4646   -1.3389 O.3     1  LIG1       -0.4945
     54 C          13.3306    3.1409   -2.2205 C.3     1  LIG1        0.0788
     55 H          12.6966    3.7423   -2.8738 H       1  LIG1        0.0660
     56 H          14.0207    3.8018   -1.6803 H       1  LIG1        0.0660
     57 H          13.9121    2.4382   -2.8303 H       1  LIG1        0.0660
     58 H          14.2976   -0.9608    2.1918 H       1  LIG1        0.0618
@<TRIPOS>BOND
     1    55    54    1
     2    57    54    1
     3    54    56    1
     4    54    53    1
     5    23    21    1
     6    29    22    1
     7    14    11    1
     8    53    44    1
     9    42    39    1
    10    48    45    1
    11    21    22   ar
    12    21    18   ar
    13    22    19   ar
    14     8     6    1
    15     9     3    1
    16     6     3   ar
    17     6     7   ar
    18     3     1   ar
    19    11    12    1
    20    11    10    1
    21    11    13    1
    22    44    45   ar
    23    44    46   ar
    24    15     7    1
    25     7     4   ar
    26     1    10    1
    27     1     2   ar
    28    45    47   ar
    29    40    39    1
    30     4     2   ar
    31     4    18    1
    32     2     5    1
    33    18    16   ar
    34    39    38    1
    35    39    41    1
    36    19    32    1
    37    19    17   ar
    38    38    30    1
    39    30    32   ar
    40    30    31   ar
    41    32    35   ar
    42    34    31    1
    43    31    33   ar
    44    35    37    1
    45    35    36   ar
    46    33    36   ar
    47    33    46    1
    48    36    43    1
    49    46    49   ar
    50    47    52    1
    51    47    50   ar
    52    16    17   ar
    53    16    24    1
    54    17    20    1
    55    49    50   ar
    56    49    51    1
    57    24    25    1
    58    50    58    1
    59    28    25    1
    60    25    26    1
    61    25    27    1
