@<TRIPOS>MOLECULE
mol_data/opt/b3lyp/geoms/mol2/4la4la-.out
 30 31 0 0 0
SMALL
GASTEIGER

@<TRIPOS>ATOM
      1 C          -0.0110    0.2625    0.1649 C.ar    1  LIG1        0.1207
      2 C           1.3882    0.2484    0.2352 C.ar    1  LIG1       -0.0121
      3 C          -0.6687    1.3249   -0.4617 C.ar    1  LIG1       -0.0199
      4 C           2.1503    1.2844   -0.3133 C.ar    1  LIG1       -0.0109
      5 H           1.8647   -0.5820    0.7454 H       1  LIG1        0.0660
      6 C           0.0945    2.3623   -1.0078 C.ar    1  LIG1       -0.0577
      7 C           1.4820    2.3546   -0.9387 C.ar    1  LIG1       -0.0537
      8 H          -0.4136    3.1875   -1.4990 H       1  LIG1        0.0619
      9 H          -1.7495    1.3584   -0.5274 H       1  LIG1        0.0654
     10 O          -0.6372   -0.8071    0.7447 O.3     1  LIG1       -0.4951
     11 C          -2.0537   -0.8483    0.7152 C.3     1  LIG1        0.0788
     12 H          -2.3398   -1.7688    1.2265 H       1  LIG1        0.0660
     13 H          -2.4969    0.0077    1.2406 H       1  LIG1        0.0660
     14 H          -2.4392   -0.8733   -0.3125 H       1  LIG1        0.0660
     15 H           2.0541    3.1673   -1.3685 H       1  LIG1        0.0624
     16 C           4.4554    2.2971    0.0950 C.ar    1  LIG1        0.1278
     17 C           5.8474    2.1604    0.1332 C.ar    1  LIG1       -0.0193
     18 C           3.6367    1.1994   -0.2683 C.ar    1  LIG1        0.0239
     19 C           6.4448    0.9395   -0.1874 C.ar    1  LIG1       -0.0583
     20 H           6.4724    2.9985    0.4163 H       1  LIG1        0.0654
     21 C           4.2718   -0.0095   -0.5807 C.ar    1  LIG1       -0.0505
     22 C           5.6594   -0.1515   -0.5451 C.ar    1  LIG1       -0.0610
     23 H           3.6531   -0.8509   -0.8775 H       1  LIG1        0.0625
     24 H           7.5270    0.8530   -0.1559 H       1  LIG1        0.0619
     25 O           3.8093    3.4593    0.4139 O.3     1  LIG1       -0.4945
     26 C           4.5780    4.5701    0.8443 C.3     1  LIG1        0.0788
     27 H           3.8608    5.3625    1.0631 H       1  LIG1        0.0660
     28 H           5.1499    4.3402    1.7523 H       1  LIG1        0.0660
     29 H           5.2689    4.9152    0.0642 H       1  LIG1        0.0660
     30 H           6.1165   -1.1020   -0.8015 H       1  LIG1        0.0618
@<TRIPOS>BOND
     1     8     6    1
     2    15     7    1
     3     6     7   ar
     4     6     3   ar
     5     7     4   ar
     6    23    21    1
     7    30    22    1
     8    21    22   ar
     9    21    18   ar
    10    22    19   ar
    11     9     3    1
    12     3     1   ar
    13     4    18    1
    14     4     2   ar
    15    14    11    1
    16    18    16   ar
    17    19    24    1
    18    19    17   ar
    19    29    26    1
    20    16    17   ar
    21    16    25    1
    22    17    20    1
    23     1     2   ar
    24     1    10    1
    25     2     5    1
    26    25    26    1
    27    11    10    1
    28    11    12    1
    29    11    13    1
    30    26    27    1
    31    26    28    1
