@<TRIPOS>MOLECULE
mol_data/opt/b3lyp/geoms/mol2/4la6ie-6ld-12af-.out
 52 55 0 0 0
SMALL
GASTEIGER

@<TRIPOS>ATOM
      1 C          -0.2025    0.5096    0.4514 C.ar    1  LIG1        0.1207
      2 C           1.1944    0.5863    0.5382 C.ar    1  LIG1       -0.0122
      3 C          -0.8575    0.9770   -0.6932 C.ar    1  LIG1       -0.0199
      4 C           1.9497    1.1288   -0.5050 C.ar    1  LIG1       -0.0127
      5 H           1.6725    0.2293    1.4444 H       1  LIG1        0.0660
      6 C          -0.0991    1.5146   -1.7373 C.ar    1  LIG1       -0.0577
      7 C           1.2864    1.5955   -1.6547 C.ar    1  LIG1       -0.0537
      8 H          -0.6062    1.8682   -2.6303 H       1  LIG1        0.0619
      9 H          -1.9359    0.9279   -0.7821 H       1  LIG1        0.0654
     10 O          -0.8271   -0.0330    1.5367 O.3     1  LIG1       -0.4951
     11 C          -2.2421   -0.1432    1.5130 C.3     1  LIG1        0.0788
     12 H          -2.5239   -0.5972    2.4639 H       1  LIG1        0.0660
     13 H          -2.7240    0.8390    1.4258 H       1  LIG1        0.0660
     14 H          -2.5847   -0.7849    0.6914 H       1  LIG1        0.0660
     15 H           1.8583    1.9953   -2.4849 H       1  LIG1        0.0624
     16 C           4.2077    2.3332   -0.5950 C.ar    1  LIG1        0.0467
     17 C           3.4350    1.1621   -0.3985 C.ar    1  LIG1        0.0045
     18 C           4.1231   -0.0060   -0.0704 C.ar    1  LIG1       -0.0348
     19 C           5.5219   -0.0230    0.0357 C.ar    1  LIG1        0.0514
     20 C           6.2015    1.1938   -0.2122 C.ar    1  LIG1        0.0917
     21 N           5.5434    2.3210   -0.5040 N.ar    1  LIG1       -0.2499
     22 H           3.5717   -0.9250    0.0993 H       1  LIG1        0.0637
     23 C           3.5996    3.6816   -0.8958 C.3     1  LIG1       -0.0217
     24 H           2.6199    3.8035   -0.4286 H       1  LIG1        0.0293
     25 H           3.4682    3.8258   -1.9749 H       1  LIG1        0.0293
     26 H           4.2786    4.4600   -0.5435 H       1  LIG1        0.0293
     27 C           6.1919   -1.2318    0.3947 C.1     1  LIG1       -0.0675
     28 C           6.7249   -2.2735    0.7039 C.1     1  LIG1       -0.1138
     29 H           7.2093   -3.1835    0.9737 H       1  LIG1        0.1232
     30 C           8.3764    2.2606    0.5934 C.ar    1  LIG1        0.2246
     31 C           7.6855    1.2885   -0.1827 C.ar    1  LIG1        0.0643
     32 C           8.4859    0.4478   -0.9369 C.ar    1  LIG1       -0.0278
     33 C           9.8880    0.5792   -0.9454 C.ar    1  LIG1        0.0816
     34 C          10.4668    1.6048   -0.1588 C.ar    1  LIG1        0.1272
     35 N           9.6914    2.4073    0.5922 N.ar    1  LIG1       -0.2079
     36 H           8.0312   -0.3253   -1.5455 H       1  LIG1        0.0639
     37 O           7.6423    3.0470    1.3931 O.3     1  LIG1       -0.4792
     38 C           8.3386    4.0221    2.1802 C.3     1  LIG1        0.0804
     39 H           7.5606    4.5408    2.7406 H       1  LIG1        0.0660
     40 H           9.0488    3.5435    2.8592 H       1  LIG1        0.0660
     41 H           8.8839    4.7216    1.5418 H       1  LIG1        0.0660
     42 N          11.2419   -1.0689   -2.4165 N.1     1  LIG1       -0.1908
     43 C          10.6458   -0.3208   -1.7514 C.1     1  LIG1        0.1014
     44 C          11.8997    1.8663   -0.0952 C.ar    1  LIG1        0.1579
     45 C          13.0079    1.3098   -0.6940 C.ar    1  LIG1        0.0273
     46 C          14.1290    2.0359   -0.2041 C.ar    1  LIG1        0.1551
     47 C          13.6407    2.9835    0.6565 C.ar    1  LIG1        0.1339
     48 O          12.2846    2.8879    0.7289 O.2     1  LIG1       -0.4576
     49 H          14.1019    3.7519    1.2572 H       1  LIG1        0.1068
     50 H          13.0395    0.4909   -1.3940 H       1  LIG1        0.0693
     51 O          15.4088    1.7672   -0.5777 O.3     1  LIG1       -0.5036
     52 H          16.0080    2.3789   -0.1309 H       1  LIG1        0.2923
@<TRIPOS>BOND
     1     8     6    1
     2    15     7    1
     3    42    43    3
     4    25    23    1
     5    43    33    1
     6     6     7   ar
     7     6     3   ar
     8     7     4   ar
     9    36    32    1
    10    50    45    1
    11    33    32   ar
    12    33    34   ar
    13    32    31   ar
    14    23    16    1
    15    23    26    1
    16    23    24    1
    17     9     3    1
    18    45    46   ar
    19    45    44   ar
    20     3     1   ar
    21    16    21   ar
    22    16    17   ar
    23    51    46    1
    24    51    52    1
    25     4    17    1
    26     4     2   ar
    27    21    20   ar
    28    17    18   ar
    29    20    31    1
    30    20    19   ar
    31    46    47   ar
    32    31    30   ar
    33    34    44    1
    34    34    35   ar
    35    44    48   ar
    36    18    19   ar
    37    18    22    1
    38    19    27    1
    39    27    28    3
    40     1     2   ar
    41     1    10    1
    42     2     5    1
    43    35    30   ar
    44    30    37    1
    45    47    48   ar
    46    47    49    1
    47    14    11    1
    48    28    29    1
    49    37    38    1
    50    13    11    1
    51    11    10    1
    52    11    12    1
    53    41    38    1
    54    38    39    1
    55    38    40    1
