@<TRIPOS>MOLECULE
mol_data/opt/b3lyp/geoms/mol2/4ld12ee12da6al-.out
 49 52 0 0 0
SMALL
GASTEIGER

@<TRIPOS>ATOM
      1 C          -0.1252   -0.1071    0.2994 C.ar    1  LIG1        0.1208
      2 C           1.2712   -0.0401    0.2253 C.ar    1  LIG1       -0.0080
      3 C          -0.8931    1.0510    0.1176 C.ar    1  LIG1       -0.0187
      4 C           1.9314    1.1624   -0.0402 C.ar    1  LIG1        0.0393
      5 H           1.8331   -0.9511    0.3863 H       1  LIG1        0.0661
      6 C          -0.2464    2.2532   -0.1459 C.ar    1  LIG1       -0.0402
      7 C           1.1503    2.3398   -0.2327 C.ar    1  LIG1        0.0627
      8 H          -0.8314    3.1541   -0.2967 H       1  LIG1        0.0632
      9 H          -1.9738    1.0283    0.1763 H       1  LIG1        0.0654
     10 O          -0.6340   -1.3365    0.5635 O.3     1  LIG1       -0.4951
     11 C          -2.0459   -1.4802    0.6716 C.3     1  LIG1        0.0788
     12 H          -2.2218   -2.5344    0.8865 H       1  LIG1        0.0660
     13 H          -2.4499   -0.8713    1.4893 H       1  LIG1        0.0660
     14 H          -2.5498   -1.2124   -0.2649 H       1  LIG1        0.0660
     15 N           2.0704    4.6883   -0.8350 N.1     1  LIG1       -0.1908
     16 C           1.7027    3.6205   -0.5552 C.1     1  LIG1        0.0999
     17 C           3.3873    1.1702   -0.1036 C.ar    1  LIG1        0.1537
     18 C           4.3381    0.1897   -0.3388 C.ar    1  LIG1        0.0865
     19 C           5.6267    0.8475   -0.2838 C.ar    1  LIG1        0.0895
     20 C           5.3605    2.1760   -0.0005 C.ar    1  LIG1        0.1884
     21 O           4.0129    2.3607    0.1021 O.2     1  LIG1       -0.4491
     22 C           4.1431   -1.1810   -0.6314 C.1     1  LIG1       -0.0646
     23 C           4.0118   -2.3573   -0.8825 C.1     1  LIG1       -0.1138
     24 H           3.8969   -3.3918   -1.1108 H       1  LIG1        0.1232
     25 C           6.8765    0.2440   -0.5438 C.1     1  LIG1       -0.0645
     26 C           7.9379   -0.2831   -0.7836 C.1     1  LIG1       -0.1138
     27 H           8.8887   -0.7274   -0.9681 H       1  LIG1        0.1232
     28 C           6.1690    3.3488    0.1738 C.ar    1  LIG1        0.1891
     29 C           7.4737    3.5885    0.5830 C.ar    1  LIG1        0.1011
     30 C           7.6567    5.0070    0.5282 C.ar    1  LIG1        0.0024
     31 C           6.4695    5.5469    0.1093 C.ar    1  LIG1        0.1387
     32 O           5.5691    4.5370   -0.1054 O.2     1  LIG1       -0.4503
     33 N           9.2568    1.9567    1.4905 N.1     1  LIG1       -0.1907
     34 C           8.4369    2.6641    1.0639 C.1     1  LIG1        0.1031
     35 H           8.5607    5.5327    0.7939 H       1  LIG1        0.0668
     36 C           4.6939    7.1881   -0.5036 C.ar    1  LIG1        0.0385
     37 C           6.0184    6.9099   -0.1306 C.ar    1  LIG1        0.0388
     38 C           6.9176    7.9838    0.0127 C.ar    1  LIG1       -0.0063
     39 C           6.4545    9.2743   -0.2196 C.ar    1  LIG1        0.1388
     40 C           5.1072    9.4449   -0.5898 C.ar    1  LIG1        0.0692
     41 N           4.2548    8.4351   -0.7273 N.ar    1  LIG1       -0.2589
     42 H           7.9475    7.8003    0.2944 H       1  LIG1        0.0662
     43 H           4.7388   10.4517   -0.7748 H       1  LIG1        0.0867
     44 H           3.9676    6.3892   -0.6235 H       1  LIG1        0.0837
     45 O           7.1957   10.4114   -0.1231 O.3     1  LIG1       -0.4936
     46 C           8.5609   10.2912    0.2503 C.3     1  LIG1        0.0789
     47 H           8.9580   11.3066    0.2696 H       1  LIG1        0.0660
     48 H           8.6686    9.8425    1.2461 H       1  LIG1        0.0660
     49 H           9.1273    9.6959   -0.4771 H       1  LIG1        0.0660
@<TRIPOS>BOND
     1    24    23    1
     2    27    26    1
     3    23    22    3
     4    15    16    3
     5    26    25    3
     6    43    40    1
     7    41    40   ar
     8    41    36   ar
     9    22    18    1
    10    44    36    1
    11    40    39   ar
    12    16     7    1
    13    25    19    1
    14    36    37   ar
    15    49    46    1
    16    18    19   ar
    17    18    17   ar
    18     8     6    1
    19    19    20   ar
    20    14    11    1
    21     7     6   ar
    22     7     4   ar
    23    39    45    1
    24    39    38   ar
    25     6     3   ar
    26    37    38   ar
    27    37    31    1
    28    45    46    1
    29    32    31   ar
    30    32    28   ar
    31    17     4    1
    32    17    21   ar
    33     4     2   ar
    34    20    21   ar
    35    20    28    1
    36    38    42    1
    37    31    30   ar
    38     3     9    1
    39     3     1   ar
    40    28    29   ar
    41     2     1   ar
    42     2     5    1
    43    46    47    1
    44    46    48    1
    45     1    10    1
    46    30    29   ar
    47    30    35    1
    48    10    11    1
    49    29    34    1
    50    11    12    1
    51    11    13    1
    52    34    33    3
