@<TRIPOS>MOLECULE
mol_data/opt/b3lyp/geoms/mol2/4ld13if13al-13al-.out
 53 56 0 0 0
SMALL
GASTEIGER

@<TRIPOS>ATOM
      1 C          -0.1863    0.1204   -0.2248 C.ar    1  LIG1        0.1208
      2 C           1.2089    0.0497   -0.1737 C.ar    1  LIG1       -0.0096
      3 C          -0.8384    1.3633   -0.1699 C.ar    1  LIG1       -0.0187
      4 C           2.0117    1.1920   -0.0464 C.ar    1  LIG1        0.0195
      5 H           1.6621   -0.9284   -0.2635 H       1  LIG1        0.0661
      6 C          -0.0660    2.5110   -0.0596 C.ar    1  LIG1       -0.0403
      7 C           1.3349    2.4574    0.0097 C.ar    1  LIG1        0.0611
      8 H          -0.5517    3.4804   -0.0153 H       1  LIG1        0.0632
      9 H          -1.9166    1.4427   -0.2151 H       1  LIG1        0.0654
     10 O          -0.8229   -1.0729   -0.3464 O.3     1  LIG1       -0.4951
     11 C          -2.2431   -1.0838   -0.4257 C.3     1  LIG1        0.0788
     12 H          -2.5279   -2.1322   -0.5184 H       1  LIG1        0.0660
     13 H          -2.6999   -0.6635    0.4784 H       1  LIG1        0.0660
     14 H          -2.6016   -0.5325   -1.3033 H       1  LIG1        0.0660
     15 N           2.6153    4.7045    0.2378 N.1     1  LIG1       -0.1908
     16 C           2.0319    3.6972    0.1516 C.1     1  LIG1        0.0998
     17 C           3.4575    1.0643    0.0305 C.ar    1  LIG1        0.0548
     18 C           4.2806    0.0138    0.4784 C.ar    1  LIG1        0.0170
     19 C           5.6111    0.4895    0.4090 C.ar    1  LIG1        0.1469
     20 C           5.6063    1.7984   -0.0717 C.ar    1  LIG1        0.1057
     21 N           4.2876    2.1229   -0.2816 N.ar    1  LIG1       -0.3498
     22 H           4.0001    2.9540   -0.7718 H       1  LIG1        0.1661
     23 C           3.9033   -1.3226    1.0443 C.3     1  LIG1       -0.0342
     24 H           4.7190   -1.6993    1.6671 H       1  LIG1        0.0279
     25 H           3.7234   -2.0727    0.2635 H       1  LIG1        0.0279
     26 H           3.0001   -1.2650    1.6593 H       1  LIG1        0.0279
     27 O           6.6991   -0.2246    0.8269 O.3     1  LIG1       -0.5043
     28 H           7.4133    0.4036    1.0125 H       1  LIG1        0.2922
     29 C           6.6407    2.7888   -0.1901 C.ar    1  LIG1        0.0706
     30 C           8.0051    2.7013   -0.4580 C.ar    1  LIG1        0.0076
     31 C           8.5206    4.0247   -0.4190 C.ar    1  LIG1        0.1473
     32 C           7.4769    4.9065   -0.1361 C.ar    1  LIG1        0.1057
     33 N           6.3363    4.1258   -0.0182 N.ar    1  LIG1       -0.3488
     34 H           5.4923    4.4330    0.4451 H       1  LIG1        0.1661
     35 H           8.5310    1.8021   -0.7431 H       1  LIG1        0.0676
     36 O           9.7944    4.4580   -0.6382 O.3     1  LIG1       -0.4929
     37 C          10.7395    3.4598   -0.9853 C.3     1  LIG1        0.0789
     38 H          11.6931    3.9720   -1.1223 H       1  LIG1        0.0660
     39 H          10.8440    2.7100   -0.1897 H       1  LIG1        0.0660
     40 H          10.4645    2.9520   -1.9193 H       1  LIG1        0.0660
     41 C           7.4547    6.3402   -0.0042 C.ar    1  LIG1        0.0701
     42 C           8.5013    7.2470    0.1490 C.ar    1  LIG1        0.0069
     43 C           7.9200    8.5395    0.2477 C.ar    1  LIG1        0.1379
     44 C           6.5467    8.4078    0.1550 C.ar    1  LIG1        0.0444
     45 N           6.2786    7.0609    0.0145 N.ar    1  LIG1       -0.3564
     46 H           5.3646    6.6896   -0.1922 H       1  LIG1        0.1655
     47 H           5.7667    9.1508    0.1824 H       1  LIG1        0.0844
     48 H           9.5438    6.9773    0.1955 H       1  LIG1        0.0676
     49 O           8.5318    9.7493    0.4148 O.3     1  LIG1       -0.4936
     50 C           9.9463    9.7183    0.4814 C.3     1  LIG1        0.0789
     51 H          10.2724   10.7526    0.6062 H       1  LIG1        0.0660
     52 H          10.2990    9.1238    1.3351 H       1  LIG1        0.0660
     53 H          10.3866    9.3096   -0.4382 H       1  LIG1        0.0660
@<TRIPOS>BOND
     1    40    37    1
     2    14    11    1
     3    38    37    1
     4    37    36    1
     5    37    39    1
     6    22    21    1
     7    35    30    1
     8    36    31    1
     9    12    11    1
    10    30    31   ar
    11    30    29   ar
    12    53    50    1
    13    11    10    1
    14    11    13    1
    15    31    32   ar
    16    10     1    1
    17    21    20   ar
    18    21    17   ar
    19     5     2    1
    20     1     2   ar
    21     1     3   ar
    22     9     3    1
    23    46    45    1
    24    29    20    1
    25    29    33   ar
    26     2     4   ar
    27     3     6   ar
    28    32    33   ar
    29    32    41    1
    30    20    19   ar
    31     6     8    1
    32     6     7   ar
    33     4     7   ar
    34     4    17    1
    35    33    34    1
    36    41    45   ar
    37    41    42   ar
    38     7    16    1
    39    45    44   ar
    40    17    18   ar
    41    42    48    1
    42    42    43   ar
    43    16    15    3
    44    44    47    1
    45    44    43   ar
    46    43    49    1
    47    25    23    1
    48    19    18   ar
    49    19    27    1
    50    49    50    1
    51    18    23    1
    52    50    51    1
    53    50    52    1
    54    27    28    1
    55    23    26    1
    56    23    24    1
