@<TRIPOS>MOLECULE
mol_data/opt/b3lyp/geoms/mol2/4ld13fd-12fl13eh.out
 51 54 0 0 0
SMALL
GASTEIGER

@<TRIPOS>ATOM
      1 C          -0.1641    0.2552   -0.0302 C.ar    1  LIG1        0.1208
      2 C           1.2196    0.1257    0.1073 C.ar    1  LIG1       -0.0095
      3 C          -0.7460    1.5123   -0.2699 C.ar    1  LIG1       -0.0187
      4 C           2.0856    1.2261    0.0104 C.ar    1  LIG1        0.0227
      5 H           1.6192   -0.8617    0.2955 H       1  LIG1        0.0661
      6 C           0.0871    2.6144   -0.3719 C.ar    1  LIG1       -0.0403
      7 C           1.4826    2.5055   -0.2419 C.ar    1  LIG1        0.0612
      8 H          -0.3404    3.5938   -0.5604 H       1  LIG1        0.0632
      9 H          -1.8160    1.6343   -0.3761 H       1  LIG1        0.0654
     10 O          -0.8673   -0.8994    0.0887 O.3     1  LIG1       -0.4951
     11 C          -2.2840   -0.8525   -0.0305 C.3     1  LIG1        0.0788
     12 H          -2.6270   -1.8794    0.0981 H       1  LIG1        0.0660
     13 H          -2.7326   -0.2214    0.7461 H       1  LIG1        0.0660
     14 H          -2.5933   -0.4888   -1.0178 H       1  LIG1        0.0660
     15 N           2.8687    4.6832   -0.5014 N.1     1  LIG1       -0.1908
     16 C           2.2351    3.7091   -0.3865 C.1     1  LIG1        0.0998
     17 C           3.5135    1.0212    0.1649 C.ar    1  LIG1        0.0917
     18 C           4.2724   -0.1416    0.3255 C.ar    1  LIG1        0.1602
     19 C           5.6535    0.2114    0.4075 C.ar    1  LIG1        0.1220
     20 C           5.7191    1.6160    0.2954 C.ar    1  LIG1        0.1076
     21 N           4.4435    2.0561    0.1599 N.ar    1  LIG1       -0.3477
     22 H           4.2266    3.0359    0.0612 H       1  LIG1        0.1661
     23 O           3.7792   -1.4005    0.3869 O.3     1  LIG1       -0.5034
     24 H           4.5178   -2.0200    0.4927 H       1  LIG1        0.2923
     25 N           7.4110   -1.6464    0.7004 N.1     1  LIG1       -0.1907
     26 C           6.6721   -0.7531    0.5679 C.1     1  LIG1        0.1051
     27 C           6.7650    2.5865    0.2786 C.ar    1  LIG1        0.1982
     28 C           8.1397    2.6206    0.2900 C.ar    1  LIG1        0.2076
     29 C           8.5335    3.9872    0.1622 C.ar    1  LIG1        0.2099
     30 C           7.3793    4.7468    0.0938 C.ar    1  LIG1        0.1983
     31 O           6.3107    3.8909    0.1560 O.2     1  LIG1       -0.4442
     32 O           8.9849    1.5763    0.3864 O.3     1  LIG1       -0.5008
     33 H           9.8814    1.9440    0.4445 H       1  LIG1        0.2924
     34 O           9.8533    4.3336    0.1287 O.3     1  LIG1       -0.4884
     35 C          10.3358    4.7298   -1.1683 C.3     1  LIG1        0.0791
     36 H          11.4079    4.8970   -1.0538 H       1  LIG1        0.0660
     37 H          10.1586    3.9394   -1.9072 H       1  LIG1        0.0660
     38 H           9.8604    5.6583   -1.4934 H       1  LIG1        0.0660
     39 C           7.0215    6.1313   -0.0289 C.ar    1  LIG1        0.1033
     40 C           7.7576    7.3283    0.0967 C.ar    1  LIG1        0.0736
     41 C           6.8408    8.4096   -0.1227 C.ar    1  LIG1        0.0584
     42 C           5.5995    7.8505   -0.3677 C.ar    1  LIG1        0.0243
     43 N           5.7264    6.4827   -0.3118 N.ar    1  LIG1       -0.3555
     44 H           4.9560    5.8337   -0.4244 H       1  LIG1        0.1655
     45 H           4.6456    8.3152   -0.5624 H       1  LIG1        0.0826
     46 C           9.1195    7.5165    0.4247 C.1     1  LIG1       -0.0656
     47 C          10.2741    7.7770    0.6914 C.1     1  LIG1       -0.1138
     48 H          11.2828    7.9681    0.9748 H       1  LIG1        0.1232
     49 N           7.1699    9.7629   -0.0172 N.pl3   1  LIG1       -0.3559
     50 H           8.1678    9.9221   -0.0912 H       1  LIG1        0.1424
     51 H           6.6615   10.3622   -0.6544 H       1  LIG1        0.1424
@<TRIPOS>BOND
     1    37    35    1
     2    38    35    1
     3    35    36    1
     4    35    34    1
     5    14    11    1
     6    51    49    1
     7    45    42    1
     8     8     6    1
     9    15    16    3
    10    44    43    1
    11    16     7    1
    12     9     3    1
    13     6     3   ar
    14     6     7   ar
    15    42    43   ar
    16    42    41   ar
    17    43    39   ar
    18     3     1   ar
    19     7     4   ar
    20    41    49    1
    21    41    40   ar
    22    50    49    1
    23    11    10    1
    24    11    12    1
    25    11    13    1
    26     1    10    1
    27     1     2   ar
    28    39    30    1
    29    39    40   ar
    30     4     2   ar
    31     4    17    1
    32    22    21    1
    33    30    31   ar
    34    30    29   ar
    35    40    46    1
    36     2     5    1
    37    34    29    1
    38    31    27   ar
    39    21    17   ar
    40    21    20   ar
    41    29    28   ar
    42    17    18   ar
    43    27    28   ar
    44    27    20    1
    45    28    32    1
    46    20    19   ar
    47    18    23    1
    48    18    19   ar
    49    32    33    1
    50    23    24    1
    51    19    26    1
    52    46    47    3
    53    26    25    3
    54    47    48    1
