@<TRIPOS>MOLECULE
mol_data/opt/b3lyp/geoms/mol2/4le.out
 18 18 0 0 0
SMALL
GASTEIGER

@<TRIPOS>ATOM
      1 C           0.0141    0.1303    0.0002 C.ar    1  LIG1        0.1202
      2 C           1.4166    0.0646   -0.0001 C.ar    1  LIG1       -0.0188
      3 C          -0.6209    1.3788    0.0001 C.ar    1  LIG1       -0.0188
      4 C           2.1704    1.2267   -0.0005 C.ar    1  LIG1       -0.0429
      5 H           1.8886   -0.9122    0.0000 H       1  LIG1        0.0654
      6 C           0.1450    2.5433   -0.0003 C.ar    1  LIG1       -0.0429
      7 C           1.5480    2.4929   -0.0006 C.ar    1  LIG1        0.0249
      8 H          -0.3496    3.5092   -0.0004 H       1  LIG1        0.0631
      9 H           3.2539    1.1694   -0.0007 H       1  LIG1        0.0631
     10 H          -1.7015    1.4560    0.0003 H       1  LIG1        0.0654
     11 O          -0.6328   -1.0687    0.0006 O.3     1  LIG1       -0.4951
     12 C          -2.0527   -1.0686    0.0009 C.3     1  LIG1        0.0788
     13 H          -2.3529   -2.1172    0.0011 H       1  LIG1        0.0660
     14 H          -2.4567   -0.5770    0.8947 H       1  LIG1        0.0660
     15 H          -2.4571   -0.5774   -0.8931 H       1  LIG1        0.0660
     16 C           2.3253    3.6913   -0.0010 C.1     1  LIG1       -0.0697
     17 C           2.9852    4.7063   -0.0014 C.1     1  LIG1       -0.1139
     18 H           3.5650    5.5998   -0.0016 H       1  LIG1        0.1232
@<TRIPOS>BOND
     1    15    12    1
     2    18    17    1
     3    17    16    3
     4    16     7    1
     5     9     4    1
     6     7     4   ar
     7     7     6   ar
     8     4     2   ar
     9     8     6    1
    10     6     3   ar
    11     2     5    1
    12     2     1   ar
    13     3     1   ar
    14     3    10    1
    15     1    11    1
    16    11    12    1
    17    12    13    1
    18    12    14    1
