@<TRIPOS>MOLECULE
mol_data/opt/b3lyp/geoms/mol2/4le13fl-13dd13fd-.out
 51 54 0 0 0
SMALL
GASTEIGER

@<TRIPOS>ATOM
      1 C          -0.2309    0.2076    0.0603 C.ar    1  LIG1        0.1208
      2 C           1.1572    0.1753   -0.0956 C.ar    1  LIG1       -0.0096
      3 C          -0.8662    1.3850    0.4779 C.ar    1  LIG1       -0.0188
      4 C           1.9602    1.2985    0.1494 C.ar    1  LIG1        0.0208
      5 H           1.6070   -0.7534   -0.4198 H       1  LIG1        0.0661
      6 C          -0.0857    2.5053    0.7300 C.ar    1  LIG1       -0.0422
      7 C           1.3120    2.5011    0.5792 C.ar    1  LIG1        0.0341
      8 H          -0.5618    3.4233    1.0584 H       1  LIG1        0.0631
      9 H          -1.9394    1.4381    0.6092 H       1  LIG1        0.0654
     10 O          -0.8746   -0.9577   -0.2183 O.3     1  LIG1       -0.4951
     11 C          -2.2881   -1.0018   -0.0775 C.3     1  LIG1        0.0788
     12 H          -2.5838   -2.0156   -0.3491 H       1  LIG1        0.0660
     13 H          -2.5976   -0.8000    0.9554 H       1  LIG1        0.0660
     14 H          -2.7832   -0.2891   -0.7487 H       1  LIG1        0.0660
     15 C           1.9848    3.7240    0.8884 C.1     1  LIG1       -0.0690
     16 C           2.4959    4.7878    1.1748 C.1     1  LIG1       -0.1139
     17 H           2.9152    5.7265    1.4566 H       1  LIG1        0.1232
     18 C           3.4005    1.1773   -0.0519 C.ar    1  LIG1        0.0940
     19 C           4.1769    0.0950   -0.4777 C.ar    1  LIG1        0.1851
     20 C           5.5389    0.4803   -0.4761 C.ar    1  LIG1        0.1888
     21 C           5.5984    1.8129   -0.0706 C.ar    1  LIG1        0.1106
     22 N           4.2966    2.2141    0.1583 N.ar    1  LIG1       -0.3471
     23 H           4.0397    3.0328    0.6944 H       1  LIG1        0.1662
     24 O           3.7267   -1.1270   -0.8834 O.3     1  LIG1       -0.5019
     25 H           4.4268   -1.5216   -1.4247 H       1  LIG1        0.2924
     26 O           6.5514   -0.3013   -0.9543 O.3     1  LIG1       -0.4895
     27 C           6.9499   -1.3778   -0.0773 C.3     1  LIG1        0.0791
     28 H           7.7011   -1.9471   -0.6259 H       1  LIG1        0.0660
     29 H           7.3939   -0.9870    0.8404 H       1  LIG1        0.0660
     30 H           6.0974   -2.0229    0.1643 H       1  LIG1        0.0660
     31 C           6.6668    2.7813   -0.0403 C.ar    1  LIG1        0.0860
     32 C           8.0251    2.7073    0.2738 C.ar    1  LIG1        0.0965
     33 C           8.5788    4.0300    0.1316 C.ar    1  LIG1        0.0965
     34 C           7.5449    4.8813   -0.2472 C.ar    1  LIG1        0.0859
     35 N           6.4108    4.1024   -0.3448 N.ar    1  LIG1       -0.3496
     36 H           5.4957    4.4473   -0.5951 H       1  LIG1        0.1661
     37 N           9.3235    0.6299    1.0829 N.1     1  LIG1       -0.1908
     38 C           8.7322    1.5600    0.7068 C.1     1  LIG1        0.1027
     39 N          11.0590    4.6859    0.4200 N.1     1  LIG1       -0.1908
     40 C           9.9389    4.3945    0.2981 C.1     1  LIG1        0.1027
     41 C           7.5368    6.2977   -0.5353 C.ar    1  LIG1        0.1075
     42 C           8.1089    7.3636    0.1400 C.ar    1  LIG1        0.1609
     43 C           7.7676    8.5643   -0.5657 C.ar    1  LIG1        0.1110
     44 C           6.9918    8.1915   -1.6578 C.ar    1  LIG1        0.0233
     45 N           6.8415    6.8440   -1.6194 N.ar    1  LIG1       -0.3554
     46 H           6.4655    6.2949   -2.3770 H       1  LIG1        0.1655
     47 H           6.5616    8.7982   -2.4391 H       1  LIG1        0.0821
     48 O           8.8044    7.2496    1.2891 O.3     1  LIG1       -0.5034
     49 H           9.2110    8.0993    1.5117 H       1  LIG1        0.2923
     50 N           8.4960   10.9152    0.2092 N.1     1  LIG1       -0.1907
     51 C           8.1496    9.8697   -0.1706 C.1     1  LIG1        0.1043
@<TRIPOS>BOND
     1    47    44    1
     2    46    45    1
     3    44    45   ar
     4    44    43   ar
     5    45    41   ar
     6    25    24    1
     7    26    20    1
     8    26    27    1
     9    24    19    1
    10    14    11    1
    11    28    27    1
    12    36    35    1
    13    43    51    1
    14    43    42   ar
    15    41    34    1
    16    41    42   ar
    17    19    20   ar
    18    19    18   ar
    19    20    21   ar
    20     5     2    1
    21    12    11    1
    22    35    34   ar
    23    35    31   ar
    24    34    33   ar
    25    10    11    1
    26    10     1    1
    27    51    50    3
    28     2     1   ar
    29     2     4   ar
    30    11    13    1
    31    27    30    1
    32    27    29    1
    33    21    31    1
    34    21    22   ar
    35    18     4    1
    36    18    22   ar
    37    31    32   ar
    38     1     3   ar
    39    33    32   ar
    40    33    40    1
    41    42    48    1
    42     4     7   ar
    43    22    23    1
    44    32    38    1
    45    40    39    3
    46     3     9    1
    47     3     6   ar
    48     7     6   ar
    49     7    15    1
    50    38    37    3
    51     6     8    1
    52    15    16    3
    53    16    17    1
    54    48    49    1
