@<TRIPOS>MOLECULE
mol_data/opt/b3lyp/geoms/mol2/4le13ie12ha6lh.out
 55 58 0 0 0
SMALL
GASTEIGER

@<TRIPOS>ATOM
      1 C          -0.0891    0.1817   -0.4856 C.ar    1  LIG1        0.1208
      2 C           1.3094    0.2027   -0.5016 C.ar    1  LIG1       -0.0097
      3 C          -0.7953    1.1636    0.2196 C.ar    1  LIG1       -0.0188
      4 C           2.0479    1.1698    0.1908 C.ar    1  LIG1        0.0174
      5 H           1.8135   -0.5453   -1.0997 H       1  LIG1        0.0661
      6 C          -0.0776    2.1433    0.8978 C.ar    1  LIG1       -0.0422
      7 C           1.3260    2.1739    0.9090 C.ar    1  LIG1        0.0340
      8 H          -0.6125    2.9095    1.4495 H       1  LIG1        0.0631
      9 H          -1.8776    1.1782    0.2435 H       1  LIG1        0.0654
     10 O          -0.6668   -0.8224   -1.2034 O.3     1  LIG1       -0.4951
     11 C          -2.0846   -0.8870   -1.2513 C.3     1  LIG1        0.0788
     12 H          -2.3246   -1.7501   -1.8735 H       1  LIG1        0.0660
     13 H          -2.5171   -1.0306   -0.2532 H       1  LIG1        0.0660
     14 H          -2.5156    0.0151   -1.7035 H       1  LIG1        0.0660
     15 C           1.9647    3.2006    1.6704 C.1     1  LIG1       -0.0690
     16 C           2.4680    4.0890    2.3242 C.1     1  LIG1       -0.1139
     17 H           2.9375    4.8430    2.9127 H       1  LIG1        0.1232
     18 C           3.5110    1.1118    0.1447 C.ar    1  LIG1        0.0524
     19 C           4.3710    0.0192    0.0547 C.ar    1  LIG1       -0.0091
     20 C           5.7088    0.5346    0.0270 C.ar    1  LIG1        0.0565
     21 C           5.6274    1.9383    0.1141 C.ar    1  LIG1        0.1002
     22 N           4.3000    2.2488    0.1782 N.ar    1  LIG1       -0.3505
     23 H           3.9595    3.1916    0.3007 H       1  LIG1        0.1660
     24 C           4.0344   -1.4416    0.0245 C.3     1  LIG1       -0.0365
     25 H           4.8469   -2.0239    0.4684 H       1  LIG1        0.0279
     26 H           3.8976   -1.8164   -0.9983 H       1  LIG1        0.0279
     27 H           3.1159   -1.6556    0.5776 H       1  LIG1        0.0279
     28 C           6.8717   -0.2571   -0.1240 C.1     1  LIG1       -0.0672
     29 C           7.8430   -0.9740   -0.2589 C.1     1  LIG1       -0.1138
     30 H           8.6837   -1.6088   -0.4152 H       1  LIG1        0.1232
     31 C           6.6040    2.9911    0.1390 C.ar    1  LIG1        0.1735
     32 C           7.9504    3.1063    0.4545 C.ar    1  LIG1        0.0731
     33 C           8.2591    4.4957    0.3438 C.ar    1  LIG1        0.0058
     34 C           7.1039    5.1507   -0.0126 C.ar    1  LIG1        0.1427
     35 O           6.0955    4.2475   -0.1359 O.2     1  LIG1       -0.4512
     36 N           8.8206    2.1293    0.9144 N.pl3   1  LIG1       -0.3550
     37 H           8.5642    1.1774    0.6762 H       1  LIG1        0.1424
     38 H           9.7925    2.3186    0.7104 H       1  LIG1        0.1424
     39 H           9.2164    4.9499    0.5573 H       1  LIG1        0.0674
     40 C           5.5587    7.1654   -0.2318 C.ar    1  LIG1        0.2255
     41 C           6.8435    6.5554   -0.2924 C.ar    1  LIG1        0.0805
     42 C           7.9113    7.3956   -0.6261 C.ar    1  LIG1       -0.0238
     43 C           7.7167    8.7596   -0.8769 C.ar    1  LIG1        0.0438
     44 C           6.4033    9.2305   -0.7935 C.ar    1  LIG1        0.0520
     45 N           5.3619    8.4504   -0.4800 N.ar    1  LIG1       -0.2189
     46 H           8.9089    6.9734   -0.7074 H       1  LIG1        0.0645
     47 H           6.1809   10.2791   -0.9880 H       1  LIG1        0.0849
     48 O           4.4950    6.3933    0.1046 O.3     1  LIG1       -0.4792
     49 C           3.2175    7.0346    0.1305 C.3     1  LIG1        0.0804
     50 H           2.5141    6.2551    0.4257 H       1  LIG1        0.0660
     51 H           3.2015    7.8582    0.8508 H       1  LIG1        0.0660
     52 H           2.9566    7.4354   -0.8535 H       1  LIG1        0.0660
     53 N           8.7916    9.6176   -1.1494 N.pl3   1  LIG1       -0.3568
     54 H           9.5741    9.1688   -1.6080 H       1  LIG1        0.1424
     55 H           8.5279   10.4616   -1.6416 H       1  LIG1        0.1424
@<TRIPOS>BOND
     1    12    11    1
     2    14    11    1
     3    55    53    1
     4    54    53    1
     5    11    10    1
     6    11    13    1
     7    10     1    1
     8    53    43    1
     9     5     2    1
    10    26    24    1
    11    47    44    1
    12    43    44   ar
    13    43    42   ar
    14    52    49    1
    15    44    45   ar
    16    46    42    1
    17    42    41   ar
    18     2     1   ar
    19     2     4   ar
    20     1     3   ar
    21    45    40   ar
    22    30    29    1
    23    41    40   ar
    24    41    34    1
    25    29    28    3
    26    40    48    1
    27    35    34   ar
    28    35    31   ar
    29    28    20    1
    30    34    33   ar
    31    24    19    1
    32    24    25    1
    33    24    27    1
    34    20    19   ar
    35    20    21   ar
    36    19    18   ar
    37    48    49    1
    38    21    31    1
    39    21    22   ar
    40    49    50    1
    41    49    51    1
    42    31    32   ar
    43    18    22   ar
    44    18     4    1
    45    22    23    1
    46     4     7   ar
    47     3     9    1
    48     3     6   ar
    49    33    32   ar
    50    33    39    1
    51    32    36    1
    52    37    36    1
    53    38    36    1
    54     6     7   ar
    55     6     8    1
    56     7    15    1
    57    15    16    3
    58    16    17    1
