@<TRIPOS>MOLECULE
mol_data/opt/b3lyp/geoms/mol2/4le4le-.out
 34 35 0 0 0
SMALL
GASTEIGER

@<TRIPOS>ATOM
      1 C          -0.0098    0.3634    0.4698 C.ar    1  LIG1        0.1207
      2 C           1.3919    0.3418    0.5047 C.ar    1  LIG1       -0.0110
      3 C          -0.6692    1.3813   -0.2269 C.ar    1  LIG1       -0.0188
      4 C           2.1513    1.3147   -0.1398 C.ar    1  LIG1        0.0045
      5 H           1.8796   -0.4504    1.0625 H       1  LIG1        0.0660
      6 C           0.0843    2.3524   -0.8825 C.ar    1  LIG1       -0.0423
      7 C           1.4871    2.3444   -0.8601 C.ar    1  LIG1        0.0327
      8 H          -0.4217    3.1364   -1.4364 H       1  LIG1        0.0631
      9 H          -1.7505    1.4266   -0.2699 H       1  LIG1        0.0654
     10 O          -0.6298   -0.6442    1.1467 O.3     1  LIG1       -0.4951
     11 C          -2.0491   -0.6771    1.1515 C.3     1  LIG1        0.0788
     12 H          -2.3273   -1.5512    1.7416 H       1  LIG1        0.0660
     13 H          -2.4731    0.2220    1.6164 H       1  LIG1        0.0660
     14 H          -2.4550   -0.7823    0.1374 H       1  LIG1        0.0660
     15 C           2.2015    3.3412   -1.5932 C.1     1  LIG1       -0.0690
     16 C           2.7704    4.1906   -2.2418 C.1     1  LIG1       -0.1139
     17 H           3.2813    4.9295   -2.8137 H       1  LIG1        0.1232
     18 C           4.4258    2.2209    0.5192 C.ar    1  LIG1        0.1279
     19 C           5.8201    2.0991    0.5462 C.ar    1  LIG1       -0.0182
     20 C           3.6387    1.2170   -0.0920 C.ar    1  LIG1        0.0262
     21 C           6.4387    0.9834   -0.0114 C.ar    1  LIG1       -0.0428
     22 H           6.4297    2.8649    1.0099 H       1  LIG1        0.0655
     23 C           4.2790    0.1034   -0.6307 C.ar    1  LIG1       -0.0351
     24 C           5.6804   -0.0366   -0.6047 C.ar    1  LIG1        0.0255
     25 H           3.6796   -0.6700   -1.0993 H       1  LIG1        0.0637
     26 H           7.5200    0.8972    0.0156 H       1  LIG1        0.0631
     27 O           3.7428    3.2542    1.0791 O.3     1  LIG1       -0.4945
     28 C           4.4734    4.3537    1.5992 C.3     1  LIG1        0.0788
     29 H           3.7274    5.0746    1.9356 H       1  LIG1        0.0660
     30 H           5.0991    4.0587    2.4511 H       1  LIG1        0.0660
     31 H           5.1037    4.8165    0.8301 H       1  LIG1        0.0660
     32 C           6.3093   -1.1862   -1.1733 C.1     1  LIG1       -0.0696
     33 C           6.8424   -2.1611   -1.6541 C.1     1  LIG1       -0.1139
     34 H           7.3103   -3.0185   -2.0786 H       1  LIG1        0.1232
@<TRIPOS>BOND
     1    17    16    1
     2    16    15    3
     3    34    33    1
     4    33    32    3
     5    15     7    1
     6     8     6    1
     7    32    24    1
     8    25    23    1
     9     6     7   ar
    10     6     3   ar
    11     7     4   ar
    12    23    24   ar
    13    23    20   ar
    14    24    21   ar
    15     9     3    1
    16     3     1   ar
    17     4    20    1
    18     4     2   ar
    19    20    18   ar
    20    21    26    1
    21    21    19   ar
    22    14    11    1
    23     1     2   ar
    24     1    10    1
    25     2     5    1
    26    18    19   ar
    27    18    27    1
    28    19    22    1
    29    31    28    1
    30    27    28    1
    31    10    11    1
    32    11    13    1
    33    11    12    1
    34    28    29    1
    35    28    30    1
