@<TRIPOS>MOLECULE
mol_data/opt/b3lyp/geoms/mol2/4le4le-4le-4le-.out
 66 69 0 0 0
SMALL
GASTEIGER

@<TRIPOS>ATOM
      1 C          -0.1873    0.2544    0.0156 C.ar    1  LIG1        0.1207
      2 C           1.2147    0.2539    0.0333 C.ar    1  LIG1       -0.0110
      3 C          -0.8784    1.4673   -0.0716 C.ar    1  LIG1       -0.0188
      4 C           1.9446    1.4381   -0.0334 C.ar    1  LIG1        0.0045
      5 H           1.7270   -0.6986    0.1157 H       1  LIG1        0.0660
      6 C          -0.1550    2.6553   -0.1491 C.ar    1  LIG1       -0.0423
      7 C           1.2478    2.6730   -0.1357 C.ar    1  LIG1        0.0327
      8 H          -0.6853    3.5984   -0.2317 H       1  LIG1        0.0631
      9 H          -1.9609    1.5005   -0.0847 H       1  LIG1        0.0654
     10 O          -0.7764   -0.9727    0.0923 O.3     1  LIG1       -0.4951
     11 C          -2.1943   -1.0392    0.0811 C.3     1  LIG1        0.0788
     12 H          -2.4459   -2.0984    0.1496 H       1  LIG1        0.0660
     13 H          -2.6313   -0.5086    0.9365 H       1  LIG1        0.0660
     14 H          -2.6116   -0.6286   -0.8471 H       1  LIG1        0.0660
     15 C           1.9284    3.9220   -0.2702 C.1     1  LIG1       -0.0690
     16 C           2.4658    4.9982   -0.4067 C.1     1  LIG1       -0.1139
     17 H           2.9503    5.9382   -0.5317 H       1  LIG1        0.1232
     18 C           4.2156    1.9551    0.9766 C.ar    1  LIG1        0.1285
     19 C           5.6073    1.8669    0.9311 C.ar    1  LIG1       -0.0104
     20 C           3.4332    1.3670   -0.0431 C.ar    1  LIG1        0.0263
     21 C           6.2694    1.1888   -0.1013 C.ar    1  LIG1        0.0045
     22 H           6.2056    2.3215    1.7091 H       1  LIG1        0.0661
     23 C           4.0937    0.6863   -1.0601 C.ar    1  LIG1       -0.0345
     24 C           5.4980    0.5826   -1.1198 C.ar    1  LIG1        0.0333
     25 H           3.5078    0.2357   -1.8542 H       1  LIG1        0.0637
     26 O           3.5281    2.5592    1.9830 O.3     1  LIG1       -0.4945
     27 C           4.2522    3.2818    2.9660 C.3     1  LIG1        0.0788
     28 H           3.5020    3.7310    3.6180 H       1  LIG1        0.0660
     29 H           4.8984    2.6234    3.5603 H       1  LIG1        0.0660
     30 H           4.8619    4.0732    2.5135 H       1  LIG1        0.0660
     31 C           6.0822   -0.1022   -2.2305 C.1     1  LIG1       -0.0690
     32 C           6.5272   -0.6876   -3.1923 C.1     1  LIG1       -0.1139
     33 H           6.9399   -1.2003   -4.0296 H       1  LIG1        0.1232
     34 C           8.5814    2.2350    0.0127 C.ar    1  LIG1        0.1285
     35 C           9.9701    2.1010    0.0484 C.ar    1  LIG1       -0.0104
     36 C           7.7555    1.0891   -0.0761 C.ar    1  LIG1        0.0263
     37 C          10.5913    0.8466    0.0051 C.ar    1  LIG1        0.0045
     38 H          10.5991    2.9788    0.1063 H       1  LIG1        0.0661
     39 C           8.3811   -0.1538   -0.1267 C.ar    1  LIG1       -0.0345
     40 C           9.7800   -0.3075   -0.0864 C.ar    1  LIG1        0.0333
     41 H           7.7692   -1.0449   -0.2018 H       1  LIG1        0.0637
     42 O           7.9451    3.4421    0.0546 O.3     1  LIG1       -0.4945
     43 C           8.7290    4.6253    0.0539 C.3     1  LIG1        0.0788
     44 H           8.0183    5.4529    0.0450 H       1  LIG1        0.0660
     45 H           9.3571    4.6982    0.9508 H       1  LIG1        0.0660
     46 H           9.3670    4.6856   -0.8362 H       1  LIG1        0.0660
     47 C          10.3229   -1.6281   -0.1640 C.1     1  LIG1       -0.0690
     48 C          10.7360   -2.7637   -0.2369 C.1     1  LIG1       -0.1139
     49 H          11.1167   -3.7565   -0.2984 H       1  LIG1        0.1232
     50 C          12.9166    1.4493   -0.8122 C.ar    1  LIG1        0.1279
     51 C          14.3087    1.3595   -0.6909 C.ar    1  LIG1       -0.0182
     52 C          12.0766    0.7605    0.0963 C.ar    1  LIG1        0.0262
     53 C          14.8790    0.5982    0.3248 C.ar    1  LIG1       -0.0428
     54 H          14.9558    1.8791   -1.3867 H       1  LIG1        0.0655
     55 C          12.6740    0.0009    1.1019 C.ar    1  LIG1       -0.0351
     56 C          14.0712   -0.0940    1.2391 C.ar    1  LIG1        0.0255
     57 H          12.0410   -0.5313    1.8022 H       1  LIG1        0.0637
     58 H          15.9587    0.5375    0.4124 H       1  LIG1        0.0631
     59 O          12.2923    2.1726   -1.7860 O.3     1  LIG1       -0.4945
     60 C          13.0846    2.8042   -2.7803 C.3     1  LIG1        0.0788
     61 H          12.3802    3.2768   -3.4661 H       1  LIG1        0.0660
     62 H          13.7412    3.5719   -2.3515 H       1  LIG1        0.0660
     63 H          13.6938    2.0777   -3.3319 H       1  LIG1        0.0660
     64 C          14.6495   -0.8737    2.2873 C.1     1  LIG1       -0.0696
     65 C          15.1414   -1.5330    3.1756 C.1     1  LIG1       -0.1139
     66 H          15.5713   -2.1148    3.9573 H       1  LIG1        0.1232
@<TRIPOS>BOND
     1    33    32    1
     2    61    60    1
     3    63    60    1
     4    32    31    3
     5    60    62    1
     6    60    59    1
     7    31    24    1
     8    25    23    1
     9    59    50    1
    10    54    51    1
    11    24    23   ar
    12    24    21   ar
    13    23    20   ar
    14    14    11    1
    15    46    43    1
    16    50    51   ar
    17    50    52   ar
    18    51    53   ar
    19    17    16    1
    20    16    15    3
    21    49    48    1
    22    15     7    1
    23    48    47    3
    24     8     6    1
    25    41    39    1
    26    47    40    1
    27     6     7   ar
    28     6     3   ar
    29     7     4   ar
    30    39    40   ar
    31    39    36   ar
    32    21    36    1
    33    21    19   ar
    34    40    37   ar
    35     9     3    1
    36    36    34   ar
    37     3     1   ar
    38    20     4    1
    39    20    18   ar
    40     4     2   ar
    41    37    35   ar
    42    37    52    1
    43    34    35   ar
    44    34    42    1
    45     1     2   ar
    46     1    10    1
    47     2     5    1
    48    44    43    1
    49    35    38    1
    50    43    42    1
    51    43    45    1
    52    11    10    1
    53    11    12    1
    54    11    13    1
    55    52    55   ar
    56    53    58    1
    57    53    56   ar
    58    19    18   ar
    59    19    22    1
    60    18    26    1
    61    55    56   ar
    62    55    57    1
    63    56    64    1
    64    26    27    1
    65    64    65    3
    66    30    27    1
    67    27    29    1
    68    27    28    1
    69    65    66    1
