@<TRIPOS>MOLECULE
mol_data/opt/b3lyp/geoms/mol2/4le6le-13di-13al-.out
 57 60 0 0 0
SMALL
GASTEIGER

@<TRIPOS>ATOM
      1 C          -0.0824    0.6226   -1.0094 C.ar    1  LIG1        0.1207
      2 C           1.3149    0.5790   -0.8995 C.ar    1  LIG1       -0.0109
      3 C          -0.8267    1.3571   -0.0800 C.ar    1  LIG1       -0.0188
      4 C           1.9845    1.2536    0.1183 C.ar    1  LIG1        0.0061
      5 H           1.8705    0.0169   -1.6425 H       1  LIG1        0.0660
      6 C          -0.1633    2.0254    0.9465 C.ar    1  LIG1       -0.0423
      7 C           1.2333    1.9903    1.0741 C.ar    1  LIG1        0.0328
      8 H          -0.7377    2.5835    1.6784 H       1  LIG1        0.0631
      9 H          -1.9067    1.4122   -0.1403 H       1  LIG1        0.0654
     10 O          -0.6105   -0.0749   -2.0530 O.3     1  LIG1       -0.4951
     11 C          -2.0207   -0.0663   -2.2243 C.3     1  LIG1        0.0788
     12 H          -2.2193   -0.6776   -3.1054 H       1  LIG1        0.0660
     13 H          -2.5356   -0.5021   -1.3589 H       1  LIG1        0.0660
     14 H          -2.4005    0.9487   -2.3956 H       1  LIG1        0.0660
     15 C           1.8541    2.6504    2.1782 C.1     1  LIG1       -0.0690
     16 C           2.3483    3.2021    3.1359 C.1     1  LIG1       -0.1139
     17 H           2.7899    3.6782    3.9802 H       1  LIG1        0.1232
     18 C           4.3219    2.2770    0.1021 C.ar    1  LIG1        0.2231
     19 C           3.4651    1.1488    0.2008 C.ar    1  LIG1        0.0461
     20 C           4.1008   -0.0748    0.3239 C.ar    1  LIG1       -0.0314
     21 C           5.5071   -0.1859    0.4071 C.ar    1  LIG1        0.0529
     22 C           6.2462    1.0171    0.4096 C.ar    1  LIG1        0.1075
     23 N           5.6358    2.2129    0.2148 N.ar    1  LIG1       -0.2096
     24 H           3.5077   -0.9826    0.3592 H       1  LIG1        0.0638
     25 O           3.7330    3.4649   -0.1400 O.3     1  LIG1       -0.4792
     26 C           4.5591    4.6275   -0.1568 C.3     1  LIG1        0.0804
     27 H           3.8752    5.4654   -0.2942 H       1  LIG1        0.0660
     28 H           5.1064    4.7342    0.7841 H       1  LIG1        0.0660
     29 H           5.2761    4.5916   -0.9834 H       1  LIG1        0.0660
     30 C           6.0923   -1.4829    0.4103 C.1     1  LIG1       -0.0674
     31 C           6.5273   -2.6113    0.3696 C.1     1  LIG1       -0.1138
     32 H           6.9562   -3.5863    0.3864 H       1  LIG1        0.1232
     33 C           7.6990    1.1182    0.5405 C.ar    1  LIG1        0.0846
     34 C           8.7180    0.3806    1.1684 C.ar    1  LIG1        0.0820
     35 C           9.9641    1.0512    0.9453 C.ar    1  LIG1       -0.0057
     36 C           9.6781    2.1851    0.1924 C.ar    1  LIG1        0.0677
     37 N           8.3168    2.2038   -0.0208 N.ar    1  LIG1       -0.3505
     38 H           7.7998    2.8762   -0.5673 H       1  LIG1        0.1660
     39 N           8.6087   -1.6147    2.8023 N.1     1  LIG1       -0.1908
     40 C           8.6056   -0.7323    2.0416 C.1     1  LIG1        0.1016
     41 C          11.2980    0.6251    1.4753 C.3     1  LIG1       -0.0364
     42 H          11.9712    1.4816    1.5692 H       1  LIG1        0.0279
     43 H          11.7828   -0.1072    0.8175 H       1  LIG1        0.0279
     44 H          11.1940    0.1521    2.4561 H       1  LIG1        0.0279
     45 C          10.5370    3.2409   -0.3032 C.ar    1  LIG1        0.0667
     46 C          11.8403    3.2058   -0.7866 C.ar    1  LIG1        0.0068
     47 C          12.1898    4.5375   -1.1478 C.ar    1  LIG1        0.1379
     48 C          11.1068    5.3540   -0.8824 C.ar    1  LIG1        0.0444
     49 N          10.1002    4.5468   -0.3924 N.ar    1  LIG1       -0.3564
     50 H           9.2763    4.8951    0.0716 H       1  LIG1        0.1655
     51 H          10.9837    6.4168   -1.0132 H       1  LIG1        0.0844
     52 H          12.4329    2.3134   -0.9133 H       1  LIG1        0.0676
     53 O          13.3507    5.0083   -1.6840 O.3     1  LIG1       -0.4936
     54 C          14.3720    4.0468   -1.8935 C.3     1  LIG1        0.0789
     55 H          15.2246    4.5888   -2.3057 H       1  LIG1        0.0660
     56 H          14.6715    3.5639   -0.9539 H       1  LIG1        0.0660
     57 H          14.0585    3.2727   -2.6067 H       1  LIG1        0.0660
@<TRIPOS>BOND
     1    12    11    1
     2    57    54    1
     3    14    11    1
     4    55    54    1
     5    11    10    1
     6    11    13    1
     7    10     1    1
     8    54    53    1
     9    54    56    1
    10    53    47    1
    11     5     2    1
    12    47    48   ar
    13    47    46   ar
    14    51    48    1
    15     1     2   ar
    16     1     3   ar
    17    29    26    1
    18    52    46    1
    19     2     4   ar
    20    48    49   ar
    21    46    45   ar
    22    38    37    1
    23    49    45   ar
    24    49    50    1
    25    45    36    1
    26    27    26    1
    27    26    25    1
    28    26    28    1
    29     9     3    1
    30    25    18    1
    31     3     6   ar
    32    37    36   ar
    33    37    33   ar
    34    18    19   ar
    35    18    23   ar
    36     4    19    1
    37     4     7   ar
    38    36    35   ar
    39    19    20   ar
    40    23    22   ar
    41    20    24    1
    42    20    21   ar
    43    31    32    1
    44    31    30    3
    45    21    22   ar
    46    21    30    1
    47    22    33    1
    48    33    34   ar
    49    43    41    1
    50    35    34   ar
    51    35    41    1
    52     6     7   ar
    53     6     8    1
    54     7    15    1
    55    34    40    1
    56    41    42    1
    57    41    44    1
    58    40    39    3
    59    15    16    3
    60    16    17    1
