@<TRIPOS>MOLECULE
mol_data/opt/b3lyp/geoms/mol2/4le6fi4hf6he-13hl-6ee-12ai-4fe-.out
 107 114 0 0 0
SMALL
GASTEIGER

@<TRIPOS>ATOM
      1 C          -0.5518    0.8001    0.6190 C.ar    1  LIG1        0.1207
      2 C           0.8496    0.8007    0.6173 C.ar    1  LIG1       -0.0109
      3 C          -1.2466    1.1390   -0.5493 C.ar    1  LIG1       -0.0188
      4 C           1.5809    1.1239   -0.5261 C.ar    1  LIG1        0.0060
      5 H           1.3634    0.5562    1.5407 H       1  LIG1        0.0660
      6 C          -0.5286    1.4593   -1.6967 C.ar    1  LIG1       -0.0423
      7 C           0.8767    1.4551   -1.7194 C.ar    1  LIG1        0.0328
      8 H          -1.0612    1.7092   -2.6084 H       1  LIG1        0.0631
      9 H          -2.3291    1.1530   -0.5766 H       1  LIG1        0.0654
     10 O          -1.1374    0.4678    1.8004 O.3     1  LIG1       -0.4951
     11 C          -2.5572    0.4599    1.8742 C.3     1  LIG1        0.0788
     12 H          -2.8016    0.1728    2.8974 H       1  LIG1        0.0660
     13 H          -2.9769    1.4519    1.6669 H       1  LIG1        0.0660
     14 H          -2.9930   -0.2693    1.1802 H       1  LIG1        0.0660
     15 C           1.5570    1.7502   -2.9415 C.1     1  LIG1       -0.0690
     16 C           2.1099    2.0137   -3.9857 C.1     1  LIG1       -0.1139
     17 H           2.6124    2.2502   -4.8949 H       1  LIG1        0.1232
     18 C           3.8838    2.2178   -0.7083 C.ar    1  LIG1        0.2208
     19 C           3.0680    1.0867   -0.4630 C.ar    1  LIG1        0.0451
     20 C           3.7353   -0.0708   -0.0629 C.ar    1  LIG1       -0.0440
     21 C           5.1290   -0.1319    0.0474 C.ar    1  LIG1       -0.0236
     22 C           5.8308    1.0462   -0.2857 C.ar    1  LIG1        0.0796
     23 N           5.2049    2.1883   -0.6254 N.ar    1  LIG1       -0.2122
     24 H           3.1456   -0.9526    0.1751 H       1  LIG1        0.0629
     25 O           3.3757    3.4368   -1.0148 O.3     1  LIG1       -0.4920
     26 H           2.4193    3.3626   -1.1385 H       1  LIG1        0.2937
     27 C           5.8025   -1.3822    0.5596 C.3     1  LIG1       -0.0377
     28 H           6.5218   -1.1444    1.3500 H       1  LIG1        0.0278
     29 H           6.3614   -1.8974   -0.2280 H       1  LIG1        0.0278
     30 H           5.0625   -2.0742    0.9714 H       1  LIG1        0.0278
     31 C           8.1872    0.3236   -0.9683 C.ar    1  LIG1        0.0346
     32 C           9.5702    0.5002   -0.8271 C.ar    1  LIG1       -0.0291
     33 C           7.3195    1.1447   -0.2163 C.ar    1  LIG1        0.0248
     34 C          10.1416    1.4725    0.0049 C.ar    1  LIG1        0.0286
     35 H          10.2380   -0.1243   -1.4143 H       1  LIG1        0.0643
     36 C           7.8812    2.1463    0.5848 C.ar    1  LIG1       -0.0086
     37 C           9.2551    2.3093    0.7097 C.ar    1  LIG1        0.1254
     38 H           7.2068    2.8067    1.1246 H       1  LIG1        0.0661
     39 N           7.6981   -0.6639   -1.8391 N.pl3   1  LIG1       -0.3574
     40 H           6.7872   -0.4515   -2.2270 H       1  LIG1        0.1423
     41 H           8.3503   -0.9132   -2.5715 H       1  LIG1        0.1423
     42 O           9.7876    3.2868    1.5316 O.3     1  LIG1       -0.5061
     43 H           9.0605    3.7471    1.9712 H       1  LIG1        0.2922
     44 C          12.4152    2.7047   -0.0657 C.ar    1  LIG1        0.1248
     45 C          11.6224    1.5310    0.1240 C.ar    1  LIG1        0.0264
     46 C          12.3336    0.3639    0.3675 C.ar    1  LIG1       -0.0331
     47 C          13.7414    0.3131    0.3933 C.ar    1  LIG1        0.0528
     48 C          14.4355    1.5171    0.0945 C.ar    1  LIG1        0.1065
     49 N          13.7493    2.6663   -0.0859 N.ar    1  LIG1       -0.2291
     50 H          11.7866   -0.5505    0.5738 H       1  LIG1        0.0638
     51 N          11.8480    3.9298   -0.3232 N.pl3   1  LIG1       -0.3426
     52 H          12.5255    4.6801   -0.3280 H       1  LIG1        0.1437
     53 H          10.9857    4.1289    0.1688 H       1  LIG1        0.1437
     54 C          14.3531   -0.9027    0.8107 C.1     1  LIG1       -0.0674
     55 C          14.8015   -1.9635    1.1916 C.1     1  LIG1       -0.1138
     56 H          15.2258   -2.8669    1.5635 H       1  LIG1        0.1232
     57 C          15.8791    1.6845   -0.0273 C.ar    1  LIG1        0.0913
     58 C          16.9899    0.8615   -0.3076 C.ar    1  LIG1        0.0947
     59 C          18.1090    1.7205   -0.4181 C.ar    1  LIG1        0.1665
     60 C          17.6970    3.0491   -0.2226 C.ar    1  LIG1        0.0938
     61 N          16.3545    2.9824    0.0170 N.ar    1  LIG1       -0.3484
     62 H          15.7204    3.7614    0.1234 H       1  LIG1        0.1661
     63 N          17.1152   -0.5139   -0.4786 N.pl3   1  LIG1       -0.3534
     64 H          16.2501   -1.0332   -0.5105 H       1  LIG1        0.1425
     65 H          17.7514   -0.7494   -1.2305 H       1  LIG1        0.1425
     66 O          19.3765    1.2778   -0.7201 O.3     1  LIG1       -0.4911
     67 C          20.0491    0.6598    0.3890 C.3     1  LIG1        0.0790
     68 H          21.0139    0.3140    0.0115 H       1  LIG1        0.0660
     69 H          20.2101    1.3819    1.1981 H       1  LIG1        0.0660
     70 H          19.4724   -0.1900    0.7684 H       1  LIG1        0.0660
     71 C          18.0172    5.5601    0.1728 C.ar    1  LIG1        0.1232
     72 C          18.4693    4.2824   -0.2694 C.ar    1  LIG1        0.0370
     73 C          19.7705    4.2604   -0.7995 C.ar    1  LIG1       -0.0323
     74 C          20.5615    5.4082   -0.8759 C.ar    1  LIG1        0.0543
     75 C          20.0076    6.6333   -0.3964 C.ar    1  LIG1        0.1227
     76 N          18.7671    6.6683    0.1042 N.ar    1  LIG1       -0.2334
     77 H          20.1687    3.3240   -1.1683 H       1  LIG1        0.0638
     78 C          16.7204    5.7769    0.7526 C.1     1  LIG1       -0.0491
     79 C          15.6387    6.0045    1.2465 C.1     1  LIG1       -0.1124
     80 H          14.6998    6.2073    1.7073 H       1  LIG1        0.1232
     81 C          21.8624    5.2845   -1.4491 C.1     1  LIG1       -0.0674
     82 C          22.9526    5.1074   -1.9455 C.1     1  LIG1       -0.1138
     83 H          23.9112    4.9665   -2.3887 H       1  LIG1        0.1232
     84 C          20.7208    7.9043   -0.4105 C.ar    1  LIG1        0.1553
     85 C          22.0142    8.2923   -0.6724 C.ar    1  LIG1       -0.0108
     86 C          22.0905    9.7024   -0.4819 C.ar    1  LIG1       -0.0039
     87 C          20.8168   10.0982   -0.1245 C.ar    1  LIG1        0.1422
     88 O          19.9910    9.0089   -0.0715 O.2     1  LIG1       -0.4529
     89 H          22.8293    7.6422   -0.9456 H       1  LIG1        0.0659
     90 C          23.3422   10.5223   -0.5913 C.3     1  LIG1       -0.0361
     91 H          23.3401   11.3572    0.1134 H       1  LIG1        0.0279
     92 H          23.4621   10.9474   -1.5929 H       1  LIG1        0.0279
     93 H          24.2179    9.9011   -0.3799 H       1  LIG1        0.0279
     94 C          20.5068   12.5972   -0.3219 C.ar    1  LIG1        0.1276
     95 C          19.8808   13.7714    0.1091 C.ar    1  LIG1       -0.0183
     96 C          20.1910   11.3584    0.2779 C.ar    1  LIG1        0.0600
     97 C          18.9183   13.7381    1.1093 C.ar    1  LIG1       -0.0428
     98 H          20.1415   14.7169   -0.3620 H       1  LIG1        0.0655
     99 C          19.2014   11.3440    1.2723 C.ar    1  LIG1       -0.0321
    100 C          18.5569   12.5142    1.7010 C.ar    1  LIG1        0.0256
    101 H          18.9312   10.3940    1.7181 H       1  LIG1        0.0638
    102 H          18.4365   14.6542    1.4333 H       1  LIG1        0.0631
    103 O          21.4099   12.6082   -1.3454 O.3     1  LIG1       -0.5061
    104 H          21.4973   13.5117   -1.6766 H       1  LIG1        0.2922
    105 C          17.5611   12.4659    2.7250 C.1     1  LIG1       -0.0696
    106 C          16.7176   12.4330    3.5924 C.1     1  LIG1       -0.1139
    107 H          15.9761   12.3961    4.3560 H       1  LIG1        0.1232
@<TRIPOS>BOND
     1    17    16    1
     2    16    15    3
     3    15     7    1
     4     8     6    1
     5    41    39    1
     6    83    82    1
     7    40    39    1
     8    82    81    3
     9    39    31    1
    10     7     6   ar
    11     7     4   ar
    12     6     3   ar
    13   104   103    1
    14    92    90    1
    15    81    74    1
    16    35    32    1
    17   103    94    1
    18    65    63    1
    19    77    73    1
    20    26    25    1
    21    25    18    1
    22    31    32   ar
    23    31    33   ar
    24    89    85    1
    25    74    73   ar
    26    74    75   ar
    27    32    34   ar
    28    73    72   ar
    29    66    59    1
    30    66    67    1
    31    18    23   ar
    32    18    19   ar
    33    85    86   ar
    34    85    84   ar
    35    23    22   ar
    36    90    86    1
    37    90    93    1
    38    90    91    1
    39     9     3    1
    40     3     1   ar
    41     4    19    1
    42     4     2   ar
    43    64    63    1
    44    86    87   ar
    45    63    58    1
    46    19    20   ar
    47    59    58   ar
    48    59    60   ar
    49    84    75    1
    50    84    88   ar
    51    75    76   ar
    52    98    95    1
    53    52    51    1
    54    51    44    1
    55    51    53    1
    56    94    95   ar
    57    94    96   ar
    58    58    57   ar
    59    22    33    1
    60    22    21   ar
    61    72    60    1
    62    72    71   ar
    63    29    27    1
    64    60    61   ar
    65    33    36   ar
    66    87    88   ar
    67    87    96    1
    68    49    44   ar
    69    49    48   ar
    70    44    45   ar
    71    20    21   ar
    72    20    24    1
    73    57    61   ar
    74    57    48    1
    75    34    45    1
    76    34    37   ar
    77    68    67    1
    78    61    62    1
    79    21    27    1
    80    48    47   ar
    81    76    71   ar
    82    95    97   ar
    83    45    46   ar
    84    71    78    1
    85    96    99   ar
    86    46    47   ar
    87    46    50    1
    88    67    70    1
    89    67    69    1
    90    47    54    1
    91    27    30    1
    92    27    28    1
    93    36    37   ar
    94    36    38    1
    95     2     1   ar
    96     2     5    1
    97     1    10    1
    98    37    42    1
    99    78    79    3
   100    54    55    3
   101    97   102    1
   102    97   100   ar
   103    14    11    1
   104    55    56    1
   105    79    80    1
   106    99   100   ar
   107    99   101    1
   108    42    43    1
   109    13    11    1
   110   100   105    1
   111    10    11    1
   112    11    12    1
   113   105   106    3
   114   106   107    1
