@<TRIPOS>MOLECULE
mol_data/opt/b3lyp/geoms/mol2/4lf.out
 17 17 0 0 0
SMALL
GASTEIGER

@<TRIPOS>ATOM
      1 C           0.0205    0.1421    0.0002 C.ar    1  LIG1        0.1203
      2 C           1.4220    0.0793   -0.0001 C.ar    1  LIG1       -0.0165
      3 C          -0.6083    1.3895    0.0001 C.ar    1  LIG1       -0.0165
      4 C           2.1819    1.2399   -0.0004 C.ar    1  LIG1       -0.0167
      5 H           1.8964   -0.8965    0.0000 H       1  LIG1        0.0655
      6 C           0.1617    2.5590   -0.0003 C.ar    1  LIG1       -0.0167
      7 C           1.5531    2.4925   -0.0005 C.ar    1  LIG1        0.1171
      8 H          -0.3377    3.5258   -0.0004 H       1  LIG1        0.0655
      9 H           3.2658    1.1964   -0.0007 H       1  LIG1        0.0655
     10 H          -1.6882    1.4730    0.0003 H       1  LIG1        0.0655
     11 O          -0.6301   -1.0642    0.0006 O.3     1  LIG1       -0.4951
     12 C          -2.0460   -1.0548    0.0008 C.3     1  LIG1        0.0788
     13 H          -2.3569   -2.1009    0.0010 H       1  LIG1        0.0660
     14 H          -2.4503   -0.5596    0.8942 H       1  LIG1        0.0660
     15 H          -2.4506   -0.5600   -0.8926 H       1  LIG1        0.0660
     16 O           2.3588    3.6027   -0.0009 O.3     1  LIG1       -0.5068
     17 H           1.8032    4.3928   -0.0009 H       1  LIG1        0.2921
@<TRIPOS>BOND
     1    15    12    1
     2    17    16    1
     3    16     7    1
     4     9     4    1
     5     7     4   ar
     6     7     6   ar
     7     4     2   ar
     8     8     6    1
     9     6     3   ar
    10     2     5    1
    11     2     1   ar
    12     3     1   ar
    13     3    10    1
    14     1    11    1
    15    11    12    1
    16    12    13    1
    17    12    14    1
