@<TRIPOS>MOLECULE
mol_data/opt/b3lyp/geoms/mol2/4lf13lf-13eh-12aa-4eh-12ah-4ie-4hf-.out
 100 107 0 0 0
SMALL
GASTEIGER

@<TRIPOS>ATOM
      1 C           0.7395   -0.6305    2.3808 C.ar    1  LIG1        0.1209
      2 C           1.8580   -0.4981    1.5542 C.ar    1  LIG1       -0.0072
      3 C           0.4457    0.3584    3.3225 C.ar    1  LIG1       -0.0165
      4 C           2.7228    0.6055    1.6363 C.ar    1  LIG1        0.0469
      5 H           2.0583   -1.2740    0.8277 H       1  LIG1        0.0662
      6 C           1.2898    1.4684    3.4136 C.ar    1  LIG1       -0.0161
      7 C           2.4042    1.6014    2.5963 C.ar    1  LIG1        0.1263
      8 H           1.0694    2.2473    4.1412 H       1  LIG1        0.0655
      9 H          -0.4146    0.2888    3.9761 H       1  LIG1        0.0655
     10 O          -0.0054   -1.7637    2.1846 O.3     1  LIG1       -0.4951
     11 C          -1.1611   -1.9443    2.9829 C.3     1  LIG1        0.0788
     12 H          -1.6028   -2.8906    2.6669 H       1  LIG1        0.0660
     13 H          -0.9141   -2.0030    4.0515 H       1  LIG1        0.0660
     14 H          -1.8919   -1.1387    2.8308 H       1  LIG1        0.0660
     15 O           3.2269    2.7107    2.7043 O.3     1  LIG1       -0.5061
     16 H           2.9153    3.2635    3.4318 H       1  LIG1        0.2922
     17 C           3.8909    0.6862    0.7624 C.ar    1  LIG1        0.0966
     18 C           4.4497   -0.2597   -0.1073 C.ar    1  LIG1        0.1875
     19 C           5.6153    0.3018   -0.6898 C.ar    1  LIG1        0.1865
     20 C           5.7663    1.5909   -0.1684 C.ar    1  LIG1        0.1104
     21 N           4.6900    1.8095    0.6765 N.ar    1  LIG1       -0.3470
     22 H           4.6529    2.5217    1.3912 H       1  LIG1        0.1662
     23 O           3.9048   -1.4786   -0.4022 O.3     1  LIG1       -0.4895
     24 C           4.7848   -2.5977   -0.2397 C.3     1  LIG1        0.0791
     25 H           4.1922   -3.4841   -0.4737 H       1  LIG1        0.0660
     26 H           5.6371   -2.5303   -0.9207 H       1  LIG1        0.0660
     27 H           5.1463   -2.6630    0.7941 H       1  LIG1        0.0660
     28 O           6.3387   -0.3329   -1.6496 O.3     1  LIG1       -0.5019
     29 H           7.2381    0.0372   -1.6871 H       1  LIG1        0.2924
     30 C           6.6953    2.6440   -0.4680 C.ar    1  LIG1        0.0845
     31 C           8.0260    2.6145   -0.9345 C.ar    1  LIG1        0.0728
     32 C           8.4687    3.9711   -1.0685 C.ar    1  LIG1        0.0695
     33 C           7.4194    4.7935   -0.6702 C.ar    1  LIG1        0.1047
     34 N           6.3623    3.9600   -0.3063 N.ar    1  LIG1       -0.3481
     35 H           5.4263    4.2951   -0.1424 H       1  LIG1        0.1661
     36 C           8.8167    1.4722   -1.1850 C.1     1  LIG1       -0.0656
     37 C           9.5100    0.5041   -1.4312 C.1     1  LIG1       -0.1138
     38 H          10.1375   -0.3439   -1.5813 H       1  LIG1        0.1232
     39 N           9.7390    4.3739   -1.4696 N.pl3   1  LIG1       -0.3553
     40 H          10.2551    3.6339   -1.9308 H       1  LIG1        0.1424
     41 H           9.7394    5.2190   -2.0294 H       1  LIG1        0.1424
     42 C           7.3262    6.2173   -0.6009 C.ar    1  LIG1        0.1536
     43 C           8.2472    7.2406   -0.6632 C.ar    1  LIG1       -0.0137
     44 C           7.5169    8.4518   -0.5333 C.ar    1  LIG1       -0.0152
     45 C           6.1878    8.1247   -0.3950 C.ar    1  LIG1        0.1370
     46 O           6.0722    6.7436   -0.4421 O.2     1  LIG1       -0.4533
     47 H           9.3189    7.1288   -0.7326 H       1  LIG1        0.0656
     48 H           7.9167    9.4519   -0.5350 H       1  LIG1        0.0656
     49 C           4.8989   10.2776   -0.0474 C.ar    1  LIG1        0.0361
     50 C           3.6458   10.8875    0.0789 C.ar    1  LIG1       -0.0332
     51 C           4.9482    8.8631   -0.2395 C.ar    1  LIG1        0.0344
     52 C           2.4306   10.1935    0.0423 C.ar    1  LIG1        0.0391
     53 H           3.6251   11.9653    0.1967 H       1  LIG1        0.0638
     54 C           3.7338    8.1676   -0.2866 C.ar    1  LIG1       -0.0285
     55 C           2.4807    8.7811   -0.1482 C.ar    1  LIG1        0.0361
     56 H           3.7598    7.0941   -0.4362 H       1  LIG1        0.0643
     57 C           6.0489   11.1192    0.0237 C.1     1  LIG1       -0.0689
     58 C           6.9768   11.8956    0.0965 C.1     1  LIG1       -0.1139
     59 H           7.8014   12.5664    0.1648 H       1  LIG1        0.1232
     60 N           1.3464    7.9948   -0.1432 N.pl3   1  LIG1       -0.3574
     61 H           0.4660    8.4487   -0.3316 H       1  LIG1        0.1423
     62 H           1.4441    7.0678   -0.5282 H       1  LIG1        0.1423
     63 C           1.1970   10.9495    0.2198 C.ar    1  LIG1        0.1393
     64 C           0.9447   12.1892    0.7533 C.ar    1  LIG1        0.0056
     65 C          -0.4599   12.4238    0.6356 C.ar    1  LIG1        0.0716
     66 C          -1.0100   11.2954    0.0655 C.ar    1  LIG1        0.1565
     67 O           0.0186   10.4040   -0.2121 O.2     1  LIG1       -0.4529
     68 H           1.6698   12.8596    1.1917 H       1  LIG1        0.0674
     69 N          -1.1268   13.5850    1.0428 N.pl3   1  LIG1       -0.3550
     70 H          -0.5148   14.3901    1.0892 H       1  LIG1        0.1424
     71 H          -1.9347   13.8001    0.4703 H       1  LIG1        0.1424
     72 C          -3.4968   11.0513    0.4356 C.ar    1  LIG1       -0.0391
     73 C          -4.7370   10.6853   -0.0978 C.ar    1  LIG1       -0.0492
     74 C          -2.3484   10.9166   -0.3851 C.ar    1  LIG1        0.0232
     75 C          -4.9043   10.1529   -1.3838 C.ar    1  LIG1       -0.0004
     76 H          -5.6179   10.7819    0.5298 H       1  LIG1        0.0627
     77 C          -2.4974   10.3765   -1.6710 C.ar    1  LIG1       -0.0348
     78 C          -3.7436    9.9891   -2.1849 C.ar    1  LIG1        0.0331
     79 H          -1.6216   10.2707   -2.3020 H       1  LIG1        0.0637
     80 C          -3.4045   11.4801    1.8797 C.3     1  LIG1       -0.0390
     81 H          -4.3732   11.3761    2.3745 H       1  LIG1        0.0278
     82 H          -3.0650   12.5138    2.0008 H       1  LIG1        0.0278
     83 H          -2.6762   10.8617    2.4163 H       1  LIG1        0.0278
     84 C          -3.7953    9.4848   -3.5236 C.1     1  LIG1       -0.0690
     85 C          -3.7817    9.0725   -4.6616 C.1     1  LIG1       -0.1139
     86 H          -3.7913    8.7150   -5.6650 H       1  LIG1        0.1232
     87 C          -7.3518   10.6324   -1.8277 C.ar    1  LIG1        0.0326
     88 C          -8.6091   10.1652   -2.2441 C.ar    1  LIG1       -0.0370
     89 C          -6.2589    9.7353   -1.8421 C.ar    1  LIG1        0.0074
     90 C          -8.8005    8.8557   -2.6653 C.ar    1  LIG1       -0.0184
     91 H          -9.4533   10.8505   -2.2351 H       1  LIG1        0.0637
     92 C          -6.4668    8.4158   -2.2745 C.ar    1  LIG1       -0.0107
     93 C          -7.7205    7.9697   -2.6839 C.ar    1  LIG1        0.1176
     94 H          -5.6223    7.7316   -2.2832 H       1  LIG1        0.0661
     95 H          -9.7773    8.5083   -2.9851 H       1  LIG1        0.0655
     96 N          -7.2193   11.9563   -1.3711 N.pl3   1  LIG1       -0.3575
     97 H          -6.2865   12.3349   -1.4759 H       1  LIG1        0.1423
     98 H          -7.9084   12.5843   -1.7648 H       1  LIG1        0.1423
     99 O          -7.9544    6.6838   -3.1059 O.3     1  LIG1       -0.5067
    100 H          -7.1210    6.1959   -3.0884 H       1  LIG1        0.2921
@<TRIPOS>BOND
     1    86    85    1
     2    85    84    3
     3    84    78    1
     4    99   100    1
     5    99    93    1
     6    95    90    1
     7    93    90   ar
     8    93    92   ar
     9    90    88   ar
    10    79    77    1
    11    94    92    1
    12    92    89   ar
    13    88    91    1
    14    88    87   ar
    15    78    77   ar
    16    78    75   ar
    17    41    39    1
    18    40    39    1
    19    89    87   ar
    20    89    75    1
    21    87    96    1
    22    98    96    1
    23    29    28    1
    24    77    74   ar
    25    28    19    1
    26    38    37    1
    27    97    96    1
    28    39    32    1
    29    37    36    3
    30    75    73   ar
    31    36    31    1
    32    32    31   ar
    33    32    33   ar
    34    31    30   ar
    35    26    24    1
    36    47    43    1
    37    19    20   ar
    38    19    18   ar
    39    33    42    1
    40    33    34   ar
    41    43    42   ar
    42    43    44   ar
    43    42    46   ar
    44    48    44    1
    45    44    45   ar
    46    62    60    1
    47    25    24    1
    48    30    34   ar
    49    30    20    1
    50    46    45   ar
    51    56    54    1
    52    23    24    1
    53    23    18    1
    54    45    51    1
    55    74    66    1
    56    74    72   ar
    57    61    60    1
    58    34    35    1
    59    54    51   ar
    60    54    55   ar
    61    24    27    1
    62    51    49   ar
    63    67    66   ar
    64    67    63   ar
    65    20    21   ar
    66    55    60    1
    67    55    52   ar
    68    18    17   ar
    69    73    72   ar
    70    73    76    1
    71    49    57    1
    72    49    50   ar
    73    57    58    3
    74    52    50   ar
    75    52    63    1
    76    66    65   ar
    77    50    53    1
    78    58    59    1
    79    63    64   ar
    80    72    80    1
    81    71    69    1
    82    65    64   ar
    83    65    69    1
    84    21    17   ar
    85    21    22    1
    86    64    68    1
    87    17     4    1
    88     5     2    1
    89    69    70    1
    90     2     4   ar
    91     2     1   ar
    92     4     7   ar
    93    80    82    1
    94    80    81    1
    95    80    83    1
    96    10     1    1
    97    10    11    1
    98     1     3   ar
    99     7    15    1
   100     7     6   ar
   101    12    11    1
   102    15    16    1
   103    14    11    1
   104    11    13    1
   105     3     6   ar
   106     3     9    1
   107     6     8    1
