@<TRIPOS>MOLECULE
mol_data/opt/b3lyp/geoms/mol2/4lf13ea13hf13hl-4fd13fl-13ld-4hd.out
 103 110 0 0 0
SMALL
GASTEIGER

@<TRIPOS>ATOM
      1 C          -0.8446    0.2414    0.2531 C.ar    1  LIG1        0.1209
      2 C           0.5402    0.2467    0.4167 C.ar    1  LIG1       -0.0073
      3 C          -1.5030    1.4153   -0.1168 C.ar    1  LIG1       -0.0165
      4 C           1.3177    1.4020    0.2287 C.ar    1  LIG1        0.0443
      5 H           1.0143   -0.6827    0.7005 H       1  LIG1        0.0662
      6 C          -0.7511    2.5742   -0.3176 C.ar    1  LIG1       -0.0161
      7 C           0.6321    2.5878   -0.1538 C.ar    1  LIG1        0.1262
      8 H          -1.2501    3.4927   -0.6073 H       1  LIG1        0.0655
      9 H          -2.5771    1.4491   -0.2536 H       1  LIG1        0.0655
     10 O          -1.4620   -0.9652    0.4752 O.3     1  LIG1       -0.4951
     11 C          -2.8665   -1.0246    0.3203 C.3     1  LIG1        0.0788
     12 H          -3.1535   -2.0545    0.5402 H       1  LIG1        0.0660
     13 H          -3.3845   -0.3520    1.0177 H       1  LIG1        0.0660
     14 H          -3.1766   -0.7778   -0.7045 H       1  LIG1        0.0660
     15 O           1.3473    3.7456   -0.3613 O.3     1  LIG1       -0.5061
     16 H           0.7351    4.4760   -0.5770 H       1  LIG1        0.2922
     17 C           2.7668    1.3352    0.4263 C.ar    1  LIG1        0.0662
     18 C           3.5955    0.2916    0.8919 C.ar    1  LIG1        0.0506
     19 C           4.9349    0.7657    0.8647 C.ar    1  LIG1       -0.0189
     20 C           4.9260    2.0730    0.3941 C.ar    1  LIG1        0.0665
     21 N           3.6067    2.3908    0.1374 N.ar    1  LIG1       -0.3519
     22 H           3.2264    3.2709   -0.1836 H       1  LIG1        0.1660
     23 C           3.2474   -1.0068    1.3452 C.1     1  LIG1       -0.0675
     24 C           3.0262   -2.1292    1.7462 C.1     1  LIG1       -0.1138
     25 H           2.8096   -3.1092    2.1014 H       1  LIG1        0.1232
     26 H           5.7973    0.2252    1.2214 H       1  LIG1        0.0652
     27 C           6.0491    2.9501    0.1823 C.ar    1  LIG1        0.0880
     28 C           7.3994    2.6132    0.1641 C.ar    1  LIG1        0.0944
     29 C           8.1380    3.8053   -0.0745 C.ar    1  LIG1        0.1650
     30 C           7.2405    4.8593   -0.1985 C.ar    1  LIG1        0.1092
     31 N           5.9487    4.3398    0.0096 N.ar    1  LIG1       -0.3474
     32 H           5.1916    4.7090   -0.5528 H       1  LIG1        0.1662
     33 N           7.9921    1.3670    0.3973 N.pl3   1  LIG1       -0.3534
     34 H           7.5125    0.6073   -0.0748 H       1  LIG1        0.1425
     35 H           8.9718    1.3833    0.1352 H       1  LIG1        0.1425
     36 O           9.4869    3.8178   -0.1179 O.3     1  LIG1       -0.5030
     37 H           9.7722    4.6885   -0.5079 H       1  LIG1        0.2923
     38 C           7.4792    6.2597   -0.3779 C.ar    1  LIG1        0.0916
     39 C           8.6235    6.9673   -0.7500 C.ar    1  LIG1        0.0947
     40 C           8.2981    8.3557   -0.7399 C.ar    1  LIG1        0.1666
     41 C           6.9643    8.4952   -0.3687 C.ar    1  LIG1        0.0946
     42 N           6.4806    7.1928   -0.1966 N.ar    1  LIG1       -0.3484
     43 H           5.6780    6.9932    0.3823 H       1  LIG1        0.1661
     44 N           9.8546    6.3499   -1.1546 N.pl3   1  LIG1       -0.3534
     45 H           9.9720    6.3906   -2.1665 H       1  LIG1        0.1425
     46 H          10.6555    6.8293   -0.7511 H       1  LIG1        0.1425
     47 O           9.1175    9.3568   -1.1878 O.3     1  LIG1       -0.4911
     48 C          10.1580    9.7371   -0.2871 C.3     1  LIG1        0.0790
     49 H          10.6771   10.5772   -0.7536 H       1  LIG1        0.0660
     50 H           9.7473   10.0474    0.6777 H       1  LIG1        0.0660
     51 H          10.8811    8.9255   -0.1268 H       1  LIG1        0.0660
     52 C           6.2868   10.9129    0.1242 C.ar    1  LIG1        0.1268
     53 C           5.2822   11.8759    0.2133 C.ar    1  LIG1       -0.0091
     54 C           6.0119    9.5950   -0.3307 C.ar    1  LIG1        0.0446
     55 C           3.9472   11.6048   -0.1277 C.ar    1  LIG1        0.0228
     56 H           5.5275   12.8630    0.5958 H       1  LIG1        0.0661
     57 C           4.6910    9.3427   -0.7157 C.ar    1  LIG1       -0.0310
     58 C           3.6716   10.2979   -0.6289 C.ar    1  LIG1        0.0618
     59 H           4.4477    8.3696   -1.1265 H       1  LIG1        0.0638
     60 O           7.5557   11.1914    0.5210 O.3     1  LIG1       -0.5061
     61 H           7.6025   12.1132    0.8092 H       1  LIG1        0.2922
     62 N           1.3176    9.5812   -1.4521 N.1     1  LIG1       -0.1908
     63 C           2.3813    9.9044   -1.0978 C.1     1  LIG1        0.0998
     64 C           2.9024   12.5964    0.0391 C.ar    1  LIG1        0.0941
     65 C           2.8824   13.9903    0.0353 C.ar    1  LIG1        0.1851
     66 C           1.5297   14.4242    0.0846 C.ar    1  LIG1        0.1889
     67 C           0.7144   13.2910    0.1471 C.ar    1  LIG1        0.1130
     68 N           1.5741   12.2154    0.1104 N.ar    1  LIG1       -0.3470
     69 H           1.2847   11.2947    0.3956 H       1  LIG1        0.1662
     70 O           3.9584   14.8134   -0.0746 O.3     1  LIG1       -0.5019
     71 H           3.6098   15.7174   -0.1236 H       1  LIG1        0.2924
     72 O           1.2329   15.7609    0.0553 O.3     1  LIG1       -0.4895
     73 C           0.2582   16.1739   -0.9176 C.3     1  LIG1        0.0791
     74 H           0.2855   17.2649   -0.9276 H       1  LIG1        0.0660
     75 H           0.5131   15.7878   -1.9108 H       1  LIG1        0.0660
     76 H          -0.7442   15.8405   -0.6350 H       1  LIG1        0.0660
     77 C          -0.6972   12.9703    0.0977 C.ar    1  LIG1        0.1106
     78 C          -1.8805   13.5221    0.5729 C.ar    1  LIG1        0.1647
     79 C          -2.9445   12.6068    0.2718 C.ar    1  LIG1        0.1192
     80 C          -2.3893   11.4958   -0.3872 C.ar    1  LIG1        0.0700
     81 N          -1.0499   11.7477   -0.4717 N.ar    1  LIG1       -0.3489
     82 H          -0.4167   11.1889   -1.0348 H       1  LIG1        0.1661
     83 O          -2.1029   14.7027    1.2040 O.3     1  LIG1       -0.4916
     84 C          -1.2711   15.0009    2.3372 C.3     1  LIG1        0.0789
     85 H          -1.7299   15.8646    2.8206 H       1  LIG1        0.0660
     86 H          -1.2532   14.1569    3.0351 H       1  LIG1        0.0660
     87 H          -0.2524   15.2540    2.0307 H       1  LIG1        0.0660
     88 N          -5.4137   12.9079    0.9565 N.1     1  LIG1       -0.1907
     89 C          -4.2902   12.7809    0.6703 C.1     1  LIG1        0.1050
     90 C          -4.1288    9.9986   -1.5500 C.ar    1  LIG1        0.0339
     91 C          -4.4257    8.7041   -2.0398 C.ar    1  LIG1       -0.0392
     92 C          -2.8888   10.1983   -0.8705 C.ar    1  LIG1        0.0215
     93 C          -3.5524    7.6433   -1.9010 C.ar    1  LIG1       -0.0426
     94 H          -5.3682    8.5549   -2.5591 H       1  LIG1        0.0636
     95 C          -2.0302    9.1009   -0.7200 C.ar    1  LIG1       -0.0334
     96 C          -2.3280    7.8337   -1.2327 C.ar    1  LIG1        0.0525
     97 H          -1.0910    9.2303   -0.1980 H       1  LIG1        0.0637
     98 H          -3.8099    6.6687   -2.3013 H       1  LIG1        0.0631
     99 N          -5.0031   11.0201   -1.8156 N.pl3   1  LIG1       -0.3575
    100 H          -5.0254   11.8300   -1.2139 H       1  LIG1        0.1423
    101 H          -5.9149   10.7515   -2.1550 H       1  LIG1        0.1423
    102 N          -0.5848    5.9382   -0.9435 N.1     1  LIG1       -0.1909
    103 C          -1.3796    6.7776   -1.0761 C.1     1  LIG1        0.0992
@<TRIPOS>BOND
     1    94    91    1
     2    98    93    1
     3    45    44    1
     4   101    99    1
     5    91    93   ar
     6    91    90   ar
     7    75    73    1
     8    93    96   ar
     9    99    90    1
    10    99   100    1
    11    90    92   ar
    12    62    63    3
    13    96   103    1
    14    96    95   ar
    15    47    40    1
    16    47    48    1
    17    44    46    1
    18    44    39    1
    19    59    57    1
    20    63    58    1
    21   103   102    3
    22    82    81    1
    23    74    73    1
    24    73    76    1
    25    73    72    1
    26    92    95   ar
    27    92    80    1
    28    49    48    1
    29    39    40   ar
    30    39    38   ar
    31    40    41   ar
    32    95    97    1
    33    57    58   ar
    34    57    54   ar
    35    14    11    1
    36    58    55   ar
    37     8     6    1
    38    16    15    1
    39    32    31    1
    40    37    36    1
    41    81    80   ar
    42    81    77   ar
    43    80    79   ar
    44    38    30    1
    45    38    42   ar
    46    41    54    1
    47    41    42   ar
    48    15     7    1
    49    54    52   ar
    50     6     7   ar
    51     6     3   ar
    52    48    51    1
    53    48    50    1
    54     9     3    1
    55    30    29   ar
    56    30    31   ar
    57    42    43    1
    58    22    21    1
    59     7     4   ar
    60    55    64    1
    61    55    53   ar
    62    71    70    1
    63    36    29    1
    64     3     1   ar
    65    34    33    1
    66    70    65    1
    67    29    28   ar
    68    31    27   ar
    69    65    64   ar
    70    65    66   ar
    71    64    68   ar
    72    72    66    1
    73    66    67   ar
    74    77    67    1
    75    77    78   ar
    76    68    67   ar
    77    68    69    1
    78    52    53   ar
    79    52    60    1
    80    35    33    1
    81    21    20   ar
    82    21    17   ar
    83    28    27   ar
    84    28    33    1
    85    27    20    1
    86    53    56    1
    87     4     2   ar
    88     4    17    1
    89     1     2   ar
    90     1    10    1
    91    79    78   ar
    92    79    89    1
    93    11    10    1
    94    11    12    1
    95    11    13    1
    96    20    19   ar
    97     2     5    1
    98    17    18   ar
    99    60    61    1
   100    78    83    1
   101    89    88    3
   102    19    18   ar
   103    19    26    1
   104    18    23    1
   105    83    84    1
   106    23    24    3
   107    24    25    1
   108    87    84    1
   109    84    85    1
   110    84    86    1
