@<TRIPOS>MOLECULE
mol_data/opt/b3lyp/geoms/mol2/4lf4lf-.out
 32 33 0 0 0
SMALL
GASTEIGER

@<TRIPOS>ATOM
      1 C           0.0055    0.3301    0.3801 C.ar    1  LIG1        0.1209
      2 C           1.4066    0.3179    0.3716 C.ar    1  LIG1       -0.0086
      3 C          -0.6736    1.3416   -0.2993 C.ar    1  LIG1       -0.0165
      4 C           2.1471    1.2933   -0.2956 C.ar    1  LIG1        0.0306
      5 H           1.9184   -0.4690    0.9155 H       1  LIG1        0.0661
      6 C           0.0585    2.3192   -0.9818 C.ar    1  LIG1       -0.0161
      7 C           1.4508    2.3048   -0.9917 C.ar    1  LIG1        0.1249
      8 H          -0.4728    3.0995   -1.5235 H       1  LIG1        0.0655
      9 H          -1.7558    1.3856   -0.3140 H       1  LIG1        0.0655
     10 O          -0.5933   -0.6843    1.0831 O.3     1  LIG1       -0.4951
     11 C          -2.0080   -0.7135    1.1232 C.3     1  LIG1        0.0788
     12 H          -2.2771   -1.5838    1.7241 H       1  LIG1        0.0660
     13 H          -2.4217    0.1890    1.5932 H       1  LIG1        0.0660
     14 H          -2.4428   -0.8218    0.1203 H       1  LIG1        0.0660
     15 O           2.1857    3.2283   -1.6870 O.3     1  LIG1       -0.5062
     16 H           1.5791    3.8504   -2.1083 H       1  LIG1        0.2922
     17 C           4.4279    2.2536    0.2497 C.ar    1  LIG1        0.1281
     18 C           5.8190    2.1451    0.2287 C.ar    1  LIG1       -0.0159
     19 C           3.6354    1.2207   -0.3024 C.ar    1  LIG1        0.0308
     20 C           6.4356    1.0157   -0.3203 C.ar    1  LIG1       -0.0167
     21 H           6.4407    2.9282    0.6454 H       1  LIG1        0.0655
     22 C           4.2680    0.0965   -0.8329 C.ar    1  LIG1       -0.0089
     23 C           5.6625   -0.0148   -0.8469 C.ar    1  LIG1        0.1177
     24 H           3.6750   -0.7035   -1.2632 H       1  LIG1        0.0661
     25 H           7.5215    0.9482   -0.3292 H       1  LIG1        0.0655
     26 O           3.7491    3.3018    0.8088 O.3     1  LIG1       -0.4945
     27 C           4.4976    4.3962    1.3009 C.3     1  LIG1        0.0788
     28 H           3.7683    5.1225    1.6636 H       1  LIG1        0.0660
     29 H           5.1534    4.1036    2.1323 H       1  LIG1        0.0660
     30 H           5.1069    4.8596    0.5135 H       1  LIG1        0.0660
     31 O           6.1987   -1.1521   -1.3975 O.3     1  LIG1       -0.5067
     32 H           7.1617   -1.0953   -1.3514 H       1  LIG1        0.2921
@<TRIPOS>BOND
     1    16    15    1
     2    15     7    1
     3     8     6    1
     4    31    32    1
     5    31    23    1
     6    24    22    1
     7     7     6   ar
     8     7     4   ar
     9     6     3   ar
    10    23    22   ar
    11    23    20   ar
    12    22    19   ar
    13    25    20    1
    14    20    18   ar
    15     9     3    1
    16    19     4    1
    17    19    17   ar
    18     3     1   ar
    19     4     2   ar
    20    14    11    1
    21    18    17   ar
    22    18    21    1
    23    17    26    1
    24     2     1   ar
    25     2     5    1
    26     1    10    1
    27    30    27    1
    28    26    27    1
    29    10    11    1
    30    11    13    1
    31    11    12    1
    32    27    28    1
    33    27    29    1
