@<TRIPOS>MOLECULE
mol_data/opt/b3lyp/geoms/mol2/4lf4lf-4lf-4lf-.out
 62 65 0 0 0
SMALL
GASTEIGER

@<TRIPOS>ATOM
      1 C          -0.1570    0.2022   -0.2060 C.ar    1  LIG1        0.1209
      2 C           1.2406    0.2401   -0.1152 C.ar    1  LIG1       -0.0086
      3 C          -0.8631    1.3907   -0.3911 C.ar    1  LIG1       -0.0165
      4 C           1.9530    1.4361   -0.2022 C.ar    1  LIG1        0.0306
      5 H           1.7724   -0.6921    0.0430 H       1  LIG1        0.0661
      6 C          -0.1589    2.5956   -0.4929 C.ar    1  LIG1       -0.0161
      7 C           1.2303    2.6319   -0.4067 C.ar    1  LIG1        0.1249
      8 H          -0.7095    3.5206   -0.6538 H       1  LIG1        0.0655
      9 H          -1.9439    1.4022   -0.4621 H       1  LIG1        0.0655
     10 O          -0.7260   -1.0416   -0.0949 O.3     1  LIG1       -0.4951
     11 C          -2.1358   -1.1316   -0.1785 C.3     1  LIG1        0.0788
     12 H          -2.3802   -2.1895   -0.0687 H       1  LIG1        0.0660
     13 H          -2.6298   -0.5644    0.6222 H       1  LIG1        0.0660
     14 H          -2.5114   -0.7756   -1.1476 H       1  LIG1        0.0660
     15 O           1.9389    3.7956   -0.5488 O.3     1  LIG1       -0.5062
     16 H           1.3148    4.5213   -0.6756 H       1  LIG1        0.2922
     17 C           4.1442    2.1160    0.8794 C.ar    1  LIG1        0.1287
     18 C           5.5348    2.0652    0.9159 C.ar    1  LIG1       -0.0080
     19 C           3.4403    1.4190   -0.1283 C.ar    1  LIG1        0.0309
     20 C           6.2706    1.3138   -0.0177 C.ar    1  LIG1        0.0306
     21 H           6.0834    2.6011    1.6789 H       1  LIG1        0.0661
     22 C           4.1712    0.6726   -1.0511 C.ar    1  LIG1       -0.0082
     23 C           5.5674    0.6107   -1.0101 C.ar    1  LIG1        0.1255
     24 H           3.6561    0.1389   -1.8427 H       1  LIG1        0.0661
     25 O           3.3798    2.7846    1.7987 O.3     1  LIG1       -0.4945
     26 C           4.0398    3.5793    2.7637 C.3     1  LIG1        0.0788
     27 H           3.2535    4.0561    3.3519 H       1  LIG1        0.0660
     28 H           4.6688    2.9758    3.4326 H       1  LIG1        0.0660
     29 H           4.6623    4.3540    2.2963 H       1  LIG1        0.0660
     30 O           6.1787   -0.1356   -1.9828 O.3     1  LIG1       -0.5061
     31 H           7.1377   -0.0397   -1.8850 H       1  LIG1        0.2922
     32 C           8.5677    2.4044    0.0558 C.ar    1  LIG1        0.1287
     33 C           9.9542    2.2861    0.1144 C.ar    1  LIG1       -0.0080
     34 C           7.7563    1.2430    0.0574 C.ar    1  LIG1        0.0309
     35 C          10.5907    1.0348    0.1795 C.ar    1  LIG1        0.0306
     36 H          10.5785    3.1695    0.1020 H       1  LIG1        0.0661
     37 C           8.3969   -0.0001    0.1152 C.ar    1  LIG1       -0.0082
     38 C           9.7896   -0.1187    0.1760 C.ar    1  LIG1        0.1255
     39 H           7.8081   -0.9114    0.1439 H       1  LIG1        0.0661
     40 O           7.9121    3.6062   -0.0112 O.3     1  LIG1       -0.4945
     41 C           8.6862    4.7889   -0.0928 C.3     1  LIG1        0.0788
     42 H           7.9721    5.6097   -0.1767 H       1  LIG1        0.0660
     43 H           9.3020    4.9382    0.8044 H       1  LIG1        0.0660
     44 H           9.3398    4.7869   -0.9750 H       1  LIG1        0.0660
     45 O          10.2954   -1.3886    0.2223 O.3     1  LIG1       -0.5061
     46 H          11.2627   -1.3360    0.2109 H       1  LIG1        0.2922
     47 C          12.9264    1.5258   -0.6916 C.ar    1  LIG1        0.1281
     48 C          14.3109    1.3936   -0.5700 C.ar    1  LIG1       -0.0159
     49 C          12.0743    0.9315    0.2726 C.ar    1  LIG1        0.0308
     50 C          14.8711    0.6761    0.4914 C.ar    1  LIG1       -0.0167
     51 H          14.9725    1.8412   -1.3014 H       1  LIG1        0.0655
     52 C          12.6578    0.2201    1.3289 C.ar    1  LIG1       -0.0089
     53 C          14.0463    0.0871    1.4459 C.ar    1  LIG1        0.1177
     54 H          12.0304   -0.2161    2.0998 H       1  LIG1        0.0661
     55 H          15.9522    0.5851    0.5662 H       1  LIG1        0.0655
     56 O          12.3127    2.2033   -1.7104 O.3     1  LIG1       -0.4945
     57 C          13.1217    2.7534   -2.7362 C.3     1  LIG1        0.0788
     58 H          12.4331    3.2085   -3.4494 H       1  LIG1        0.0660
     59 H          13.8021    3.5244   -2.3509 H       1  LIG1        0.0660
     60 H          13.7106    1.9805   -3.2469 H       1  LIG1        0.0660
     61 O          14.5195   -0.6230    2.5165 O.3     1  LIG1       -0.5067
     62 H          15.4851   -0.6300    2.4897 H       1  LIG1        0.2921
@<TRIPOS>BOND
     1    58    57    1
     2    60    57    1
     3    57    59    1
     4    57    56    1
     5    30    31    1
     6    30    23    1
     7    24    22    1
     8    56    47    1
     9    51    48    1
    10    14    11    1
    11    22    23   ar
    12    22    19   ar
    13    23    20   ar
    14    44    41    1
    15    47    48   ar
    16    47    49   ar
    17    16    15    1
    18     8     6    1
    19    48    50   ar
    20    15     7    1
    21     6     7   ar
    22     6     3   ar
    23     9     3    1
    24     7     4   ar
    25     3     1   ar
    26     1     2   ar
    27     1    10    1
    28     4    19    1
    29     4     2   ar
    30    11    10    1
    31    11    12    1
    32    11    13    1
    33    42    41    1
    34    19    17   ar
    35     2     5    1
    36    41    40    1
    37    41    43    1
    38    20    34    1
    39    20    18   ar
    40    40    32    1
    41    32    34   ar
    42    32    33   ar
    43    34    37   ar
    44    36    33    1
    45    33    35   ar
    46    37    39    1
    47    37    38   ar
    48    38    35   ar
    49    38    45    1
    50    35    49    1
    51    46    45    1
    52    49    52   ar
    53    50    55    1
    54    50    53   ar
    55    17    18   ar
    56    17    25    1
    57    18    21    1
    58    52    53   ar
    59    52    54    1
    60    53    61    1
    61    25    26    1
    62    29    26    1
    63    62    61    1
    64    26    27    1
    65    26    28    1
