@<TRIPOS>MOLECULE
mol_data/opt/b3lyp/geoms/mol2/4lf6aa-12lh12af-6fd4ih12hl6ei.out
 100 107 0 0 0
SMALL
GASTEIGER

@<TRIPOS>ATOM
      1 C          -0.0523   -1.6360    0.4285 C.ar    1  LIG1        0.1209
      2 C           1.3098   -1.3429    0.3007 C.ar    1  LIG1       -0.0087
      3 C          -0.8829   -0.7420    1.1068 C.ar    1  LIG1       -0.0165
      4 C           1.8759   -0.1793    0.8322 C.ar    1  LIG1        0.0285
      5 H           1.9280   -2.0413   -0.2531 H       1  LIG1        0.0661
      6 C          -0.3340    0.4254    1.6443 C.ar    1  LIG1       -0.0161
      7 C           1.0218    0.7167    1.5174 C.ar    1  LIG1        0.1248
      8 H          -0.9800    1.1188    2.1789 H       1  LIG1        0.0655
      9 H          -1.9430   -0.9304    1.2230 H       1  LIG1        0.0655
     10 O          -0.4641   -2.8077   -0.1484 O.3     1  LIG1       -0.4951
     11 C          -1.8385   -3.1426   -0.0601 C.3     1  LIG1        0.0788
     12 H          -1.9513   -4.0966   -0.5773 H       1  LIG1        0.0660
     13 H          -2.1629   -3.2587    0.9825 H       1  LIG1        0.0660
     14 H          -2.4724   -2.3914   -0.5493 H       1  LIG1        0.0660
     15 O           1.5721    1.8490    2.0603 O.3     1  LIG1       -0.5062
     16 H           0.8833    2.3427    2.5237 H       1  LIG1        0.2922
     17 C           3.8642    1.3327    0.3833 C.ar    1  LIG1        0.0362
     18 C           3.3310    0.0631    0.6819 C.ar    1  LIG1        0.0039
     19 C           4.2559   -0.9862    0.7984 C.ar    1  LIG1       -0.0503
     20 C           5.6103   -0.7472    0.6131 C.ar    1  LIG1       -0.0320
     21 C           6.0269    0.5592    0.3020 C.ar    1  LIG1        0.1097
     22 N           5.1574    1.5828    0.1928 N.ar    1  LIG1       -0.2512
     23 H           3.9128   -1.9820    1.0625 H       1  LIG1        0.0625
     24 H           3.1992    2.1853    0.2889 H       1  LIG1        0.0836
     25 H           6.3413   -1.5385    0.7355 H       1  LIG1        0.0640
     26 C           7.4367    0.8616    0.0974 C.ar    1  LIG1        0.1972
     27 C           8.5544    0.0728   -0.0999 C.ar    1  LIG1        0.1887
     28 C           9.6848    0.9359   -0.2075 C.ar    1  LIG1        0.1171
     29 C           9.1810    2.2161   -0.0714 C.ar    1  LIG1        0.1950
     30 O           7.8194    2.1695    0.0976 O.2     1  LIG1       -0.4445
     31 O           8.6369   -1.2928   -0.1927 O.3     1  LIG1       -0.4896
     32 C           8.2671   -1.8164   -1.4788 C.3     1  LIG1        0.0791
     33 H           8.4448   -2.8925   -1.4345 H       1  LIG1        0.0660
     34 H           7.2096   -1.6279   -1.6926 H       1  LIG1        0.0660
     35 H           8.8784   -1.3748   -2.2744 H       1  LIG1        0.0660
     36 N          11.0047    0.5319   -0.3639 N.pl3   1  LIG1       -0.3521
     37 H          11.0850   -0.4568   -0.5667 H       1  LIG1        0.1425
     38 H          11.5477    1.0945   -1.0079 H       1  LIG1        0.1425
     39 C           9.8194    3.4913   -0.0693 C.ar    1  LIG1        0.1762
     40 C          11.1370    3.8776    0.0250 C.ar    1  LIG1        0.0296
     41 C          11.1396    5.2980   -0.0293 C.ar    1  LIG1        0.1635
     42 C           9.8336    5.7226   -0.1688 C.ar    1  LIG1        0.1821
     43 O           9.0212    4.5972   -0.1875 O.2     1  LIG1       -0.4477
     44 H          11.9923    3.2391    0.1840 H       1  LIG1        0.0693
     45 O          12.2730    6.0415    0.0682 O.3     1  LIG1       -0.5032
     46 H          12.0440    6.9391    0.3472 H       1  LIG1        0.2923
     47 C           7.8407    7.2673    0.0978 C.ar    1  LIG1        0.2240
     48 C           9.2071    7.0236   -0.2579 C.ar    1  LIG1        0.0834
     49 C           9.9223    8.1385   -0.6993 C.ar    1  LIG1       -0.0263
     50 C           9.3463    9.4185   -0.6957 C.ar    1  LIG1        0.0786
     51 C           8.0184    9.5598   -0.2251 C.ar    1  LIG1        0.0924
     52 N           7.3041    8.4784    0.1195 N.ar    1  LIG1       -0.2111
     53 H          10.9242    8.0170   -1.0987 H       1  LIG1        0.0640
     54 O           6.9958    6.2833    0.4415 O.3     1  LIG1       -0.4919
     55 H           7.4167    5.4134    0.3314 H       1  LIG1        0.2938
     56 N          10.7390   11.3583   -1.7061 N.1     1  LIG1       -0.1908
     57 C          10.0948   10.5049   -1.2450 C.1     1  LIG1        0.1013
     58 C           7.8107   11.9988    0.5206 C.ar    1  LIG1       -0.0405
     59 C           7.0308   13.1548    0.4877 C.ar    1  LIG1       -0.0457
     60 C           7.3080   10.8655   -0.1582 C.ar    1  LIG1        0.0064
     61 C           5.7994   13.2567   -0.1859 C.ar    1  LIG1        0.0401
     62 H           7.3716   14.0159    1.0559 H       1  LIG1        0.0628
     63 C           6.0510   10.9245   -0.7699 C.ar    1  LIG1       -0.0309
     64 C           5.2765   12.0900   -0.8136 C.ar    1  LIG1        0.0360
     65 H           5.6676   10.0244   -1.2414 H       1  LIG1        0.0643
     66 C           9.0854   12.0009    1.3361 C.3     1  LIG1       -0.0391
     67 H           8.9971   12.7039    2.1697 H       1  LIG1        0.0278
     68 H           9.9544   12.3017    0.7413 H       1  LIG1        0.0278
     69 H           9.3031   11.0160    1.7587 H       1  LIG1        0.0278
     70 N           4.0804   12.0953   -1.5155 N.pl3   1  LIG1       -0.3574
     71 H           3.3686   12.7433   -1.2074 H       1  LIG1        0.1423
     72 H           3.7175   11.1800   -1.7400 H       1  LIG1        0.1423
     73 C           5.1355   14.5481   -0.2230 C.ar    1  LIG1        0.1617
     74 C           5.6180   15.8418   -0.1810 C.ar    1  LIG1        0.1140
     75 C           4.4762   16.6944   -0.2532 C.ar    1  LIG1        0.1871
     76 C           3.3509   15.8986   -0.3511 C.ar    1  LIG1        0.1816
     77 O           3.7603   14.5956   -0.3301 O.2     1  LIG1       -0.4490
     78 N           6.9314   16.3090   -0.0731 N.pl3   1  LIG1       -0.3522
     79 H           7.6167   15.6393   -0.4056 H       1  LIG1        0.1425
     80 H           7.0452   17.1943   -0.5563 H       1  LIG1        0.1425
     81 O           4.5390   18.0635   -0.2713 O.3     1  LIG1       -0.4896
     82 C           4.7953   18.6460    1.0189 C.3     1  LIG1        0.0791
     83 H           4.8760   19.7227    0.8588 H       1  LIG1        0.0660
     84 H           3.9708   18.4359    1.7095 H       1  LIG1        0.0660
     85 H           5.7295   18.2637    1.4438 H       1  LIG1        0.0660
     86 C           0.8847   15.2611   -0.3312 C.ar    1  LIG1        0.1239
     87 C           1.9391   16.2039   -0.4972 C.ar    1  LIG1        0.0550
     88 C           1.5632   17.5208   -0.8292 C.ar    1  LIG1       -0.0439
     89 C           0.2278   17.8713   -0.9866 C.ar    1  LIG1       -0.0316
     90 C          -0.7196   16.8522   -0.8012 C.ar    1  LIG1        0.0319
     91 N          -0.4122   15.5984   -0.4885 N.ar    1  LIG1       -0.2457
     92 H           2.3414   18.2633   -0.9685 H       1  LIG1        0.0629
     93 H          -1.7819   17.0697   -0.9101 H       1  LIG1        0.0832
     94 C           1.0939   13.8918    0.0432 C.1     1  LIG1       -0.0491
     95 C           1.1968   12.7306    0.3688 C.1     1  LIG1       -0.1124
     96 H           1.2940   11.7184    0.6868 H       1  LIG1        0.1232
     97 C          -0.1908   19.2671   -1.3733 C.3     1  LIG1       -0.0383
     98 H          -1.1910   19.5008   -0.9967 H       1  LIG1        0.0278
     99 H          -0.2178   19.3840   -2.4637 H       1  LIG1        0.0278
    100 H           0.5044   20.0158   -0.9828 H       1  LIG1        0.0278
@<TRIPOS>BOND
     1    99    97    1
     2    35    32    1
     3    72    70    1
     4    56    57    3
     5    34    32    1
     6    70    71    1
     7    70    64    1
     8    32    33    1
     9    32    31    1
    10    97    98    1
    11    97    89    1
    12    97   100    1
    13    57    50    1
    14    65    63    1
    15    53    49    1
    16    38    36    1
    17    89    88   ar
    18    89    90   ar
    19    92    88    1
    20    93    90    1
    21    88    87   ar
    22    64    63   ar
    23    64    61   ar
    24    90    91   ar
    25    63    60   ar
    26    49    50   ar
    27    49    48   ar
    28    50    51   ar
    29    12    11    1
    30    37    36    1
    31    80    78    1
    32    14    11    1
    33    87    76    1
    34    87    86   ar
    35    91    86   ar
    36    79    78    1
    37    36    28    1
    38    76    77   ar
    39    76    75   ar
    40    86    94    1
    41    77    73   ar
    42    81    75    1
    43    81    82    1
    44    48    42    1
    45    48    47   ar
    46    75    74   ar
    47     5     2    1
    48    51    60    1
    49    51    52   ar
    50    73    61    1
    51    73    74   ar
    52    28    27   ar
    53    28    29   ar
    54    31    27    1
    55    43    42   ar
    56    43    39   ar
    57    61    59   ar
    58    74    78    1
    59    42    41   ar
    60    60    58   ar
    61    10    11    1
    62    10     1    1
    63    27    26   ar
    64    29    39    1
    65    29    30   ar
    66    39    40   ar
    67    11    13    1
    68    41    40   ar
    69    41    45    1
    70    40    44    1
    71    94    95    3
    72    45    46    1
    73    26    30   ar
    74    26    21    1
    75    47    52   ar
    76    47    54    1
    77    22    21   ar
    78    22    17   ar
    79    24    17    1
    80     2     1   ar
    81     2     4   ar
    82    21    20   ar
    83    55    54    1
    84    95    96    1
    85    17    18   ar
    86     1     3   ar
    87    59    58   ar
    88    59    62    1
    89    58    66    1
    90    20    25    1
    91    20    19   ar
    92    18    19   ar
    93    18     4    1
    94    68    66    1
    95    19    23    1
    96     4     7   ar
    97    83    82    1
    98    82    85    1
    99    82    84    1
   100     3     9    1
   101     3     6   ar
   102    66    69    1
   103    66    67    1
   104     7     6   ar
   105     7    15    1
   106     6     8    1
   107    15    16    1
