@<TRIPOS>MOLECULE
mol_data/opt/b3lyp/geoms/mol2/4lg.out
 17 17 0 0 0
SMALL
GASTEIGER

@<TRIPOS>ATOM
      1 C           0.0039    0.1107    0.0002 C.ar    1  LIG1        0.1202
      2 C           1.4047    0.0445   -0.0000 C.ar    1  LIG1       -0.0189
      3 C          -0.6220    1.3606    0.0001 C.ar    1  LIG1       -0.0189
      4 C           2.1638    1.2059   -0.0004 C.ar    1  LIG1       -0.0451
      5 H           1.8782   -0.9316    0.0001 H       1  LIG1        0.0654
      6 C           0.1490    2.5270   -0.0003 C.ar    1  LIG1       -0.0451
      7 C           1.5428    2.4649   -0.0005 C.ar    1  LIG1        0.0050
      8 H          -0.3574    3.4880   -0.0004 H       1  LIG1        0.0630
      9 H           3.2477    1.1340   -0.0006 H       1  LIG1        0.0630
     10 H          -1.7020    1.4466    0.0003 H       1  LIG1        0.0654
     11 O          -0.6481   -1.0905    0.0006 O.3     1  LIG1       -0.4951
     12 C          -2.0662   -1.0809    0.0008 C.3     1  LIG1        0.0788
     13 H          -2.3752   -2.1272    0.0011 H       1  LIG1        0.0660
     14 H          -2.4687   -0.5865    0.8945 H       1  LIG1        0.0660
     15 H          -2.4690   -0.5868   -0.8929 H       1  LIG1        0.0660
     16 S           2.5910    3.9181   -0.0010 S.3     1  LIG1       -0.1426
     17 H           1.6006    4.8306   -0.0010 H       1  LIG1        0.1071
@<TRIPOS>BOND
     1    15    12    1
     2    16    17    1
     3    16     7    1
     4     9     4    1
     5     7     4   ar
     6     7     6   ar
     7     4     2   ar
     8     8     6    1
     9     6     3   ar
    10     2     5    1
    11     2     1   ar
    12     3     1   ar
    13     3    10    1
    14     1    11    1
    15    11    12    1
    16    12    13    1
    17    12    14    1
