@<TRIPOS>MOLECULE
mol_data/opt/b3lyp/geoms/mol2/4lh12ee-6hd-13ai.out
 52 55 0 0 0
SMALL
GASTEIGER

@<TRIPOS>ATOM
      1 C          -0.1657    0.0009   -0.3305 C.ar    1  LIG1        0.1209
      2 C           1.2240    0.0897   -0.3536 C.ar    1  LIG1       -0.0075
      3 C          -0.9034    1.0529    0.2232 C.ar    1  LIG1       -0.0182
      4 C           1.9059    1.1978    0.1751 C.ar    1  LIG1        0.0426
      5 H           1.7822   -0.7247   -0.7986 H       1  LIG1        0.0662
      6 C          -0.2399    2.1608    0.7437 C.ar    1  LIG1       -0.0369
      7 C           1.1587    2.2706    0.7464 C.ar    1  LIG1        0.0356
      8 H          -0.8245    2.9678    1.1785 H       1  LIG1        0.0637
      9 H          -1.9862    1.0269    0.2523 H       1  LIG1        0.0655
     10 O          -0.7047   -1.1330   -0.8822 O.3     1  LIG1       -0.4951
     11 C          -2.1152   -1.2593   -0.8879 C.3     1  LIG1        0.0788
     12 H          -2.3317   -2.2173   -1.3631 H       1  LIG1        0.0660
     13 H          -2.5294   -1.2621    0.1294 H       1  LIG1        0.0660
     14 H          -2.5950   -0.4568   -1.4646 H       1  LIG1        0.0660
     15 N           1.7533    3.3615    1.3739 N.pl3   1  LIG1       -0.3574
     16 H           2.6744    3.6380    1.0721 H       1  LIG1        0.1423
     17 H           1.1372    4.1409    1.5508 H       1  LIG1        0.1423
     18 C           3.3625    1.1912    0.1297 C.ar    1  LIG1        0.1541
     19 C           4.3203    0.1968    0.1351 C.ar    1  LIG1        0.0864
     20 C           5.6117    0.8542    0.0408 C.ar    1  LIG1        0.0865
     21 C           5.3641    2.2143   -0.0055 C.ar    1  LIG1        0.1555
     22 O           4.0029    2.4051    0.0400 O.2     1  LIG1       -0.4521
     23 C           4.1292   -1.2019    0.2374 C.1     1  LIG1       -0.0646
     24 C           3.9988   -2.4018    0.3222 C.1     1  LIG1       -0.1138
     25 H           3.8775   -3.4569    0.4054 H       1  LIG1        0.1232
     26 C           6.8573    0.1848   -0.0009 C.1     1  LIG1       -0.0646
     27 C           7.9089   -0.4139   -0.0351 C.1     1  LIG1       -0.1138
     28 H           8.8358   -0.9387   -0.0699 H       1  LIG1        0.1232
     29 C           5.7391    4.7044   -0.4123 C.ar    1  LIG1        0.1277
     30 C           6.2093    3.3934   -0.0682 C.ar    1  LIG1        0.0593
     31 C           7.5746    3.2947    0.2074 C.ar    1  LIG1       -0.0282
     32 C           8.4225    4.4053    0.1540 C.ar    1  LIG1        0.0799
     33 C           7.8620    5.6661   -0.1865 C.ar    1  LIG1        0.1065
     34 N           6.5467    5.7664   -0.4605 N.ar    1  LIG1       -0.2290
     35 H           7.9942    2.3329    0.4744 H       1  LIG1        0.0639
     36 N           4.4206    4.9707   -0.6877 N.pl3   1  LIG1       -0.3426
     37 H           4.2640    5.8689   -1.1213 H       1  LIG1        0.1437
     38 H           3.8231    4.2112   -0.9732 H       1  LIG1        0.1437
     39 N          10.9289    4.0344    0.6980 N.1     1  LIG1       -0.1908
     40 C           9.8052    4.2173    0.4518 C.1     1  LIG1        0.1014
     41 C           8.6042    6.9077   -0.2733 C.ar    1  LIG1        0.0665
     42 C           9.9415    7.2683   -0.0942 C.ar    1  LIG1       -0.0320
     43 C          10.0550    8.6621   -0.3202 C.ar    1  LIG1       -0.0325
     44 C           8.7796    9.1175   -0.6324 C.ar    1  LIG1        0.0051
     45 N           7.9218    8.0615   -0.6019 N.ar    1  LIG1       -0.3592
     46 H           6.9290    8.0544   -0.7785 H       1  LIG1        0.1654
     47 H           8.4375   10.1148   -0.8698 H       1  LIG1        0.0809
     48 H          10.7478    6.6015    0.1697 H       1  LIG1        0.0642
     49 C          11.3034    9.4920   -0.2408 C.3     1  LIG1       -0.0383
     50 H          11.0930   10.5442   -0.4544 H       1  LIG1        0.0278
     51 H          12.0597    9.1537   -0.9582 H       1  LIG1        0.0278
     52 H          11.7590    9.4409    0.7545 H       1  LIG1        0.0278
@<TRIPOS>BOND
     1    14    11    1
     2    12    11    1
     3    37    36    1
     4    38    36    1
     5    51    49    1
     6    11    10    1
     7    11    13    1
     8    10     1    1
     9    47    44    1
    10     5     2    1
    11    46    45    1
    12    36    29    1
    13    44    45   ar
    14    44    43   ar
    15    45    41   ar
    16    34    29   ar
    17    34    33   ar
    18    50    49    1
    19    29    30   ar
    20     2     1   ar
    21     2     4   ar
    22     1     3   ar
    23    43    49    1
    24    43    42   ar
    25    41    33    1
    26    41    42   ar
    27    49    52    1
    28    33    32   ar
    29    42    48    1
    30    28    27    1
    31    30    21    1
    32    30    31   ar
    33    27    26    3
    34    21    22   ar
    35    21    20   ar
    36    26    20    1
    37    22    18   ar
    38    20    19   ar
    39    18    19   ar
    40    18     4    1
    41    19    23    1
    42    32    31   ar
    43    32    40    1
    44     4     7   ar
    45    31    35    1
    46     3     9    1
    47     3     6   ar
    48    23    24    3
    49    24    25    1
    50    40    39    3
    51     6     7   ar
    52     6     8    1
    53     7    15    1
    54    16    15    1
    55    15    17    1
