@<TRIPOS>MOLECULE
mol_data/opt/b3lyp/geoms/mol2/4li.out
 19 19 0 0 0
SMALL
GASTEIGER

@<TRIPOS>ATOM
      1 C          -0.0108    0.1021   -0.0213 C.ar    1  LIG1        0.1201
      2 C           1.3896    0.0362   -0.0769 C.ar    1  LIG1       -0.0197
      3 C          -0.6364    1.3496    0.0438 C.ar    1  LIG1       -0.0197
      4 C           2.1426    1.2017   -0.0670 C.ar    1  LIG1       -0.0554
      5 H           1.8606   -0.9402   -0.1271 H       1  LIG1        0.0654
      6 C           0.1428    2.5123    0.0526 C.ar    1  LIG1       -0.0554
      7 C           1.5362    2.4680   -0.0020 C.ar    1  LIG1       -0.0502
      8 H          -0.3587    3.4757    0.1036 H       1  LIG1        0.0621
      9 H           3.2269    1.1299   -0.1107 H       1  LIG1        0.0621
     10 H          -1.7157    1.4336    0.0878 H       1  LIG1        0.0654
     11 O          -0.6626   -1.1006   -0.0363 O.3     1  LIG1       -0.4951
     12 C          -2.0789   -1.0922    0.0181 C.3     1  LIG1        0.0788
     13 H          -2.3888   -2.1381   -0.0047 H       1  LIG1        0.0660
     14 H          -2.4478   -0.6277    0.9420 H       1  LIG1        0.0660
     15 H          -2.5160   -0.5687   -0.8424 H       1  LIG1        0.0660
     16 C           2.3706    3.7273    0.0077 C.3     1  LIG1       -0.0397
     17 H           1.7424    4.6208    0.0629 H       1  LIG1        0.0278
     18 H           2.9858    3.8103   -0.8961 H       1  LIG1        0.0278
     19 H           3.0554    3.7505    0.8637 H       1  LIG1        0.0278
@<TRIPOS>BOND
     1    18    16    1
     2    15    12    1
     3     5     2    1
     4     9     4    1
     5     2     4   ar
     6     2     1   ar
     7     4     7   ar
     8    11     1    1
     9    11    12    1
    10     1     3   ar
    11    13    12    1
    12     7    16    1
    13     7     6   ar
    14    16    17    1
    15    16    19    1
    16    12    14    1
    17     3     6   ar
    18     3    10    1
    19     6     8    1
