@<TRIPOS>MOLECULE
mol_data/opt/b3lyp/geoms/mol2/4li12ll12fl13ia.out
 57 60 0 0 0
SMALL
GASTEIGER

@<TRIPOS>ATOM
      1 C          -0.3743   -0.0457   -0.5563 C.ar    1  LIG1        0.1208
      2 C           1.0045    0.0190   -0.3479 C.ar    1  LIG1       -0.0089
      3 C          -1.1289    1.1293   -0.5588 C.ar    1  LIG1       -0.0197
      4 C           1.6577    1.2425   -0.1270 C.ar    1  LIG1        0.0274
      5 H           1.5693   -0.9044   -0.3586 H       1  LIG1        0.0661
      6 C          -0.4749    2.3442   -0.3420 C.ar    1  LIG1       -0.0547
      7 C           0.8991    2.4481   -0.1220 C.ar    1  LIG1       -0.0395
      8 H          -1.0676    3.2556   -0.3386 H       1  LIG1        0.0622
      9 H          -2.1999    1.1182   -0.7208 H       1  LIG1        0.0654
     10 O          -0.8825   -1.3014   -0.7545 O.3     1  LIG1       -0.4951
     11 C          -2.2748   -1.4260   -0.9854 C.3     1  LIG1        0.0788
     12 H          -2.4653   -2.4923   -1.1179 H       1  LIG1        0.0660
     13 H          -2.8638   -1.0591   -0.1344 H       1  LIG1        0.0660
     14 H          -2.5876   -0.8901   -1.8913 H       1  LIG1        0.0660
     15 C           1.4922    3.8179    0.1224 C.3     1  LIG1       -0.0390
     16 H           0.6926    4.5599    0.2038 H       1  LIG1        0.0278
     17 H           2.1619    4.1242   -0.6876 H       1  LIG1        0.0278
     18 H           2.0839    3.8521    1.0421 H       1  LIG1        0.0278
     19 C           3.0989    1.1961    0.0993 C.ar    1  LIG1        0.1814
     20 C           3.9657    0.1803    0.4499 C.ar    1  LIG1        0.2086
     21 C           5.2804    0.7409    0.5219 C.ar    1  LIG1        0.2118
     22 C           5.1565    2.0721    0.1952 C.ar    1  LIG1        0.2195
     23 O           3.8393    2.3466   -0.0620 O.2     1  LIG1       -0.4440
     24 O           3.6487   -1.1303    0.6717 O.3     1  LIG1       -0.4884
     25 C           3.8464   -1.5610    2.0277 C.3     1  LIG1        0.0791
     26 H           3.6057   -2.6253    2.0474 H       1  LIG1        0.0660
     27 H           4.8835   -1.4072    2.3407 H       1  LIG1        0.0660
     28 H           3.1755   -1.0208    2.7057 H       1  LIG1        0.0660
     29 O           6.4139    0.1003    0.9270 O.3     1  LIG1       -0.4883
     30 C           6.9504   -0.8161   -0.0392 C.3     1  LIG1        0.0791
     31 H           7.7925   -1.3120    0.4473 H       1  LIG1        0.0660
     32 H           6.2028   -1.5615   -0.3318 H       1  LIG1        0.0660
     33 H           7.3069   -0.2746   -0.9212 H       1  LIG1        0.0660
     34 C           6.0954    3.1458    0.0720 C.ar    1  LIG1        0.2194
     35 C           7.4444    3.2105   -0.1799 C.ar    1  LIG1        0.2093
     36 C           7.8028    4.5901   -0.1999 C.ar    1  LIG1        0.2099
     37 C           6.6627    5.3191    0.0564 C.ar    1  LIG1        0.1973
     38 O           5.6195    4.4379    0.2131 O.2     1  LIG1       -0.4425
     39 O           8.2988    2.1862   -0.4240 O.3     1  LIG1       -0.5007
     40 H           9.1775    2.5843   -0.5258 H       1  LIG1        0.2924
     41 O           9.0902    4.9856   -0.4642 O.3     1  LIG1       -0.4884
     42 C           9.2511    5.6836   -1.7107 C.3     1  LIG1        0.0791
     43 H          10.3184    5.8892   -1.8107 H       1  LIG1        0.0660
     44 H           8.9116    5.0651   -2.5496 H       1  LIG1        0.0660
     45 H           8.6941    6.6254   -1.7074 H       1  LIG1        0.0660
     46 C           6.3204    6.7165    0.1549 C.ar    1  LIG1        0.0889
     47 C           7.0487    7.8592    0.4926 C.ar    1  LIG1       -0.0221
     48 C           6.1383    8.9526    0.4268 C.ar    1  LIG1       -0.0408
     49 C           4.8989    8.4624    0.0730 C.ar    1  LIG1        0.0025
     50 N           5.0164    7.1102   -0.0920 N.ar    1  LIG1       -0.3580
     51 H           4.2770    6.4669   -0.3262 H       1  LIG1        0.1654
     52 H           3.9538    8.9643   -0.0709 H       1  LIG1        0.0807
     53 C           8.4857    7.9394    0.9229 C.3     1  LIG1       -0.0376
     54 H           8.5667    8.3590    1.9326 H       1  LIG1        0.0278
     55 H           9.0691    8.5927    0.2621 H       1  LIG1        0.0278
     56 H           8.9655    6.9591    0.9301 H       1  LIG1        0.0278
     57 H           6.3733    9.9875    0.6350 H       1  LIG1        0.0635
@<TRIPOS>BOND
     1    44    42    1
     2    14    11    1
     3    43    42    1
     4    42    45    1
     5    42    41    1
     6    12    11    1
     7    11    10    1
     8    11    13    1
     9    33    30    1
    10    10     1    1
    11     9     3    1
    12    17    15    1
    13     3     1   ar
    14     3     6   ar
    15     1     2   ar
    16    40    39    1
    17    41    36    1
    18    39    35    1
    19     5     2    1
    20     2     4   ar
    21     6     8    1
    22     6     7   ar
    23    32    30    1
    24    51    50    1
    25    36    35   ar
    26    36    37   ar
    27    35    34   ar
    28     4     7   ar
    29     4    19    1
    30     7    15    1
    31    50    49   ar
    32    50    46   ar
    33    52    49    1
    34    23    19   ar
    35    23    22   ar
    36    30    31    1
    37    30    29    1
    38    37    46    1
    39    37    38   ar
    40    34    22    1
    41    34    38   ar
    42    49    48   ar
    43    19    20   ar
    44    15    16    1
    45    15    18    1
    46    46    47   ar
    47    22    21   ar
    48    55    53    1
    49    48    47   ar
    50    48    57    1
    51    20    21   ar
    52    20    24    1
    53    47    53    1
    54    21    29    1
    55    24    25    1
    56    53    56    1
    57    53    54    1
    58    25    26    1
    59    25    27    1
    60    25    28    1
