@<TRIPOS>MOLECULE
mol_data/opt/b3lyp/geoms/mol2/4li4li-4li-4li-.out
 70 73 0 0 0
SMALL
GASTEIGER

@<TRIPOS>ATOM
      1 C          -0.1722    0.2283    0.1334 C.ar    1  LIG1        0.1207
      2 C           1.2269    0.2676    0.0935 C.ar    1  LIG1       -0.0119
      3 C          -0.8918    1.4238    0.1184 C.ar    1  LIG1       -0.0197
      4 C           1.9196    1.4782    0.0323 C.ar    1  LIG1       -0.0080
      5 H           1.7689   -0.6723    0.0992 H       1  LIG1        0.0660
      6 C          -0.1926    2.6336    0.0692 C.ar    1  LIG1       -0.0548
      7 C           1.2005    2.6982    0.0262 C.ar    1  LIG1       -0.0424
      8 H          -0.7600    3.5612    0.0733 H       1  LIG1        0.0622
      9 H          -1.9748    1.4328    0.1506 H       1  LIG1        0.0654
     10 O          -0.7294   -1.0220    0.1860 O.3     1  LIG1       -0.4951
     11 C          -2.1421   -1.1167    0.2283 C.3     1  LIG1        0.0788
     12 H          -2.3738   -2.1825    0.2641 H       1  LIG1        0.0660
     13 H          -2.5568   -0.6287    1.1204 H       1  LIG1        0.0660
     14 H          -2.6073   -0.6777   -0.6642 H       1  LIG1        0.0660
     15 C           1.8985    4.0365   -0.0018 C.3     1  LIG1       -0.0391
     16 H           1.1942    4.8468    0.2077 H       1  LIG1        0.0278
     17 H           2.3534    4.2237   -0.9799 H       1  LIG1        0.0278
     18 H           2.7029    4.0861    0.7396 H       1  LIG1        0.0278
     19 C           4.1875    1.8584   -1.0634 C.ar    1  LIG1        0.1284
     20 C           5.5786    1.7677   -1.0140 C.ar    1  LIG1       -0.0113
     21 C           3.4134    1.4322    0.0354 C.ar    1  LIG1        0.0244
     22 C           6.2383    1.2481    0.1103 C.ar    1  LIG1       -0.0080
     23 H           6.1794    2.0951   -1.8531 H       1  LIG1        0.0660
     24 C           4.0915    0.9180    1.1435 C.ar    1  LIG1       -0.0470
     25 C           5.4869    0.8149    1.2175 C.ar    1  LIG1       -0.0418
     26 H           3.4967    0.5967    1.9947 H       1  LIG1        0.0628
     27 O           3.4958    2.3324   -2.1474 O.3     1  LIG1       -0.4945
     28 C           4.2288    2.7218   -3.2967 C.3     1  LIG1        0.0788
     29 H           3.4876    3.0386   -4.0321 H       1  LIG1        0.0660
     30 H           4.9073    3.5582   -3.0844 H       1  LIG1        0.0660
     31 H           4.8110    1.8872   -3.7078 H       1  LIG1        0.0660
     32 C           6.1327    0.2713    2.4728 C.3     1  LIG1       -0.0391
     33 H           7.0040    0.8639    2.7668 H       1  LIG1        0.0278
     34 H           6.4814   -0.7604    2.3463 H       1  LIG1        0.0278
     35 H           5.4210    0.2751    3.3034 H       1  LIG1        0.0278
     36 C           8.5510    2.2906    0.0621 C.ar    1  LIG1        0.1284
     37 C           9.9393    2.1522    0.0222 C.ar    1  LIG1       -0.0113
     38 C           7.7292    1.1443    0.0820 C.ar    1  LIG1        0.0244
     39 C          10.5459    0.8878   -0.0056 C.ar    1  LIG1       -0.0080
     40 H          10.5779    3.0267    0.0159 H       1  LIG1        0.0660
     41 C           8.3559   -0.1033    0.0629 C.ar    1  LIG1       -0.0470
     42 C           9.7463   -0.2691    0.0182 C.ar    1  LIG1       -0.0418
     43 H           7.7250   -0.9884    0.0765 H       1  LIG1        0.0628
     44 O           7.9077    3.4991    0.0901 O.3     1  LIG1       -0.4945
     45 C           8.6920    4.6788    0.1210 C.3     1  LIG1        0.0788
     46 H           7.9841    5.5084    0.1608 H       1  LIG1        0.0660
     47 H           9.3392    4.7141    1.0068 H       1  LIG1        0.0660
     48 H           9.3147    4.7799   -0.7777 H       1  LIG1        0.0660
     49 C          10.3375   -1.6613    0.0118 C.3     1  LIG1       -0.0391
     50 H          11.1788   -1.7451    0.7063 H       1  LIG1        0.0278
     51 H          10.7155   -1.9467   -0.9768 H       1  LIG1        0.0278
     52 H           9.5846   -2.4007    0.2991 H       1  LIG1        0.0278
     53 C          12.8560    1.2160    0.9890 C.ar    1  LIG1        0.1278
     54 C          14.2466    1.1451    0.8740 C.ar    1  LIG1       -0.0191
     55 C          12.0374    0.8099   -0.0898 C.ar    1  LIG1        0.0244
     56 C          14.8293    0.6755   -0.3065 C.ar    1  LIG1       -0.0553
     57 H          14.8854    1.4491    1.6945 H       1  LIG1        0.0654
     58 C          12.6575    0.3466   -1.2514 C.ar    1  LIG1       -0.0476
     59 C          14.0513    0.2690   -1.3900 C.ar    1  LIG1       -0.0496
     60 H          12.0237    0.0463   -2.0825 H       1  LIG1        0.0627
     61 H          15.9133    0.6292   -0.3749 H       1  LIG1        0.0621
     62 O          12.2032    1.6564    2.1078 O.3     1  LIG1       -0.4945
     63 C          12.9776    2.0453    3.2293 C.3     1  LIG1        0.0788
     64 H          12.2634    2.3433    3.9984 H       1  LIG1        0.0660
     65 H          13.5897    1.2165    3.6081 H       1  LIG1        0.0660
     66 H          13.6332    2.8950    2.9979 H       1  LIG1        0.0660
     67 C          14.6745   -0.2281   -2.6733 C.3     1  LIG1       -0.0397
     68 H          15.7635   -0.2850   -2.5898 H       1  LIG1        0.0278
     69 H          14.4414    0.4326   -3.5168 H       1  LIG1        0.0278
     70 H          14.3088   -1.2267   -2.9385 H       1  LIG1        0.0278
@<TRIPOS>BOND
     1    29    28    1
     2    31    28    1
     3    69    67    1
     4    28    30    1
     5    28    27    1
     6    70    67    1
     7    67    68    1
     8    67    59    1
     9    27    19    1
    10    60    58    1
    11    23    20    1
    12    59    58   ar
    13    59    56   ar
    14    58    55   ar
    15    19    20   ar
    16    19    21   ar
    17    20    22   ar
    18    17    15    1
    19    51    49    1
    20    48    45    1
    21    14    11    1
    22    61    56    1
    23    56    54   ar
    24    55    39    1
    25    55    53   ar
    26    39    42   ar
    27    39    37   ar
    28    15     7    1
    29    15    16    1
    30    15    18    1
    31    49    42    1
    32    49    52    1
    33    49    50    1
    34    40    37    1
    35    42    41   ar
    36    37    36   ar
    37     7     4   ar
    38     7     6   ar
    39     4    21    1
    40     4     2   ar
    41    21    24   ar
    42    36    38   ar
    43    36    44    1
    44    41    43    1
    45    41    38   ar
    46     6     8    1
    47     6     3   ar
    48    38    22    1
    49    44    45    1
    50     2     5    1
    51     2     1   ar
    52    22    25   ar
    53     3     1   ar
    54     3     9    1
    55    45    46    1
    56    45    47    1
    57     1    10    1
    58    10    11    1
    59    11    12    1
    60    11    13    1
    61    54    53   ar
    62    54    57    1
    63    53    62    1
    64    24    25   ar
    65    24    26    1
    66    25    32    1
    67    62    63    1
    68    34    32    1
    69    32    33    1
    70    32    35    1
    71    66    63    1
    72    63    65    1
    73    63    64    1
