@<TRIPOS>MOLECULE
mol_data/opt/b3lyp/geoms/mol2/4li4li-.out
 36 37 0 0 0
SMALL
GASTEIGER

@<TRIPOS>ATOM
      1 C          -0.0131    0.3739   -0.5205 C.ar    1  LIG1        0.1207
      2 C           1.3868    0.3910   -0.5579 C.ar    1  LIG1       -0.0119
      3 C          -0.6890    1.3201    0.2511 C.ar    1  LIG1       -0.0197
      4 C           2.1214    1.3399    0.1550 C.ar    1  LIG1       -0.0080
      5 H           1.8944   -0.3481   -1.1689 H       1  LIG1        0.0660
      6 C           0.0527    2.2603    0.9725 C.ar    1  LIG1       -0.0548
      7 C           1.4471    2.2997    0.9483 C.ar    1  LIG1       -0.0424
      8 H          -0.4814    2.9845    1.5828 H       1  LIG1        0.0622
      9 H          -1.7710    1.3357    0.3067 H       1  LIG1        0.0654
     10 O          -0.6142   -0.6024   -1.2690 O.3     1  LIG1       -0.4951
     11 C          -2.0301   -0.6590   -1.2718 C.3     1  LIG1        0.0788
     12 H          -2.2987   -1.4915   -1.9241 H       1  LIG1        0.0660
     13 H          -2.4326   -0.8450   -0.2673 H       1  LIG1        0.0660
     14 H          -2.4737    0.2647   -1.6664 H       1  LIG1        0.0660
     15 C           2.1932    3.3271    1.7649 C.3     1  LIG1       -0.0391
     16 H           1.5200    3.8337    2.4622 H       1  LIG1        0.0278
     17 H           2.6508    4.0855    1.1214 H       1  LIG1        0.0278
     18 H           3.0012    2.8702    2.3461 H       1  LIG1        0.0278
     19 C           4.3930    2.2767   -0.5114 C.ar    1  LIG1        0.1278
     20 C           5.7824    2.1472   -0.5691 C.ar    1  LIG1       -0.0191
     21 C           3.6136    1.2645    0.0936 C.ar    1  LIG1        0.0244
     22 C           6.4047    1.0155   -0.0347 C.ar    1  LIG1       -0.0553
     23 H           6.3902    2.9141   -1.0341 H       1  LIG1        0.0654
     24 C           4.2721    0.1444    0.6064 C.ar    1  LIG1       -0.0476
     25 C           5.6662   -0.0060    0.5610 C.ar    1  LIG1       -0.0496
     26 H           3.6667   -0.6343    1.0639 H       1  LIG1        0.0627
     27 H           7.4874    0.9353   -0.0911 H       1  LIG1        0.0621
     28 O           3.7047    3.3402   -1.0306 O.3     1  LIG1       -0.4945
     29 C           4.4346    4.3477   -1.7106 C.3     1  LIG1        0.0788
     30 H           3.6950    5.0688   -2.0617 H       1  LIG1        0.0660
     31 H           5.1459    4.8558   -1.0464 H       1  LIG1        0.0660
     32 H           4.9792    3.9405   -2.5721 H       1  LIG1        0.0660
     33 C           6.3319   -1.2271    1.1510 C.3     1  LIG1       -0.0397
     34 H           7.3961   -1.2595    0.9007 H       1  LIG1        0.0278
     35 H           5.8740   -2.1520    0.7833 H       1  LIG1        0.0278
     36 H           6.2498   -1.2420    2.2447 H       1  LIG1        0.0278
@<TRIPOS>BOND
     1    32    29    1
     2    30    29    1
     3    12    11    1
     4    29    31    1
     5    29    28    1
     6    14    11    1
     7    11    10    1
     8    11    13    1
     9    10     1    1
    10     5     2    1
    11    23    20    1
    12    28    19    1
    13    20    19   ar
    14    20    22   ar
    15     2     1   ar
    16     2     4   ar
    17     1     3   ar
    18    19    21   ar
    19    27    22    1
    20    22    25   ar
    21    21     4    1
    22    21    24   ar
    23     4     7   ar
    24     3     9    1
    25     3     6   ar
    26    25    24   ar
    27    25    33    1
    28    24    26    1
    29    35    33    1
    30    34    33    1
    31     7     6   ar
    32     7    15    1
    33     6     8    1
    34    17    15    1
    35    33    36    1
    36    15    18    1
    37    15    16    1
