@<TRIPOS>MOLECULE
mol_data/opt/b3lyp/geoms/mol2/4li4dd-13hi-12ed-.out
 54 57 0 0 0
SMALL
GASTEIGER

@<TRIPOS>ATOM
      1 C          -0.1507    0.1872   -0.6898 C.ar    1  LIG1        0.1207
      2 C           1.2443    0.2414   -0.5853 C.ar    1  LIG1       -0.0120
      3 C          -0.9174    1.2108   -0.1280 C.ar    1  LIG1       -0.0197
      4 C           1.8794    1.3011    0.0652 C.ar    1  LIG1       -0.0103
      5 H           1.8215   -0.5606   -1.0328 H       1  LIG1        0.0660
      6 C          -0.2742    2.2614    0.5298 C.ar    1  LIG1       -0.0548
      7 C           1.1150    2.3425    0.6447 C.ar    1  LIG1       -0.0425
      8 H          -0.8821    3.0428    0.9784 H       1  LIG1        0.0622
      9 H          -1.9991    1.1999   -0.1857 H       1  LIG1        0.0654
     10 O          -0.6514   -0.8921   -1.3561 O.3     1  LIG1       -0.4951
     11 C          -2.0612   -1.0151   -1.4672 C.3     1  LIG1        0.0788
     12 H          -2.2399   -1.9427   -2.0125 H       1  LIG1        0.0660
     13 H          -2.5402   -1.0776   -0.4820 H       1  LIG1        0.0660
     14 H          -2.4982   -0.1781   -2.0270 H       1  LIG1        0.0660
     15 C           1.7431    3.4953    1.3962 C.3     1  LIG1       -0.0391
     16 H           0.9888    4.0171    1.9910 H       1  LIG1        0.0278
     17 H           2.1949    4.2369    0.7268 H       1  LIG1        0.0278
     18 H           2.5311    3.1587    2.0770 H       1  LIG1        0.0278
     19 C           4.1121    0.2891    0.7704 C.ar    1  LIG1        0.0602
     20 C           5.5103    0.2925    0.7721 C.ar    1  LIG1       -0.0333
     21 C           3.3698    1.3046    0.1184 C.ar    1  LIG1        0.0011
     22 C           6.2640    1.2892    0.1208 C.ar    1  LIG1        0.0187
     23 H           6.0265   -0.4738    1.3371 H       1  LIG1        0.0637
     24 C           4.1067    2.3111   -0.5023 C.ar    1  LIG1       -0.0347
     25 C           5.5104    2.3211   -0.5143 C.ar    1  LIG1        0.0616
     26 H           3.5821    3.1070   -1.0192 H       1  LIG1        0.0637
     27 N           2.9628   -1.6358    2.0862 N.1     1  LIG1       -0.1908
     28 C           3.4514   -0.7652    1.4896 C.1     1  LIG1        0.0998
     29 N           6.6506    4.3041   -1.7417 N.1     1  LIG1       -0.1908
     30 C           6.1407    3.4067   -1.2009 C.1     1  LIG1        0.0998
     31 C           7.7140    1.2197    0.1491 C.ar    1  LIG1        0.0695
     32 C           8.5581    0.1151    0.3798 C.ar    1  LIG1        0.0539
     33 C           9.9035    0.5625    0.3708 C.ar    1  LIG1       -0.0009
     34 C           9.8615    1.9337    0.0988 C.ar    1  LIG1        0.0885
     35 N           8.5497    2.3096   -0.0244 N.ar    1  LIG1       -0.3500
     36 H           8.2562    3.2425   -0.2719 H       1  LIG1        0.1661
     37 N           8.1705   -1.2060    0.6360 N.pl3   1  LIG1       -0.3561
     38 H           7.3782   -1.5172    0.0860 H       1  LIG1        0.1424
     39 H           8.9361   -1.8597    0.5257 H       1  LIG1        0.1424
     40 C          11.0937   -0.2955    0.6786 C.3     1  LIG1       -0.0358
     41 H          11.9584    0.3061    0.9606 H       1  LIG1        0.0279
     42 H          11.4010   -0.9100   -0.1770 H       1  LIG1        0.0279
     43 H          10.8758   -0.9707    1.5145 H       1  LIG1        0.0279
     44 C          10.8960    2.9277   -0.0383 C.ar    1  LIG1        0.1678
     45 C          12.2092    2.9342   -0.4726 C.ar    1  LIG1        0.0892
     46 C          12.6468    4.3172   -0.3710 C.ar    1  LIG1        0.1054
     47 C          11.5767    5.0318    0.0830 C.ar    1  LIG1        0.1112
     48 O          10.5210    4.2124    0.2895 O.2     1  LIG1       -0.4589
     49 H          11.4309    6.0789    0.2951 H       1  LIG1        0.1043
     50 C          12.9809    1.8754   -1.0041 C.1     1  LIG1       -0.0645
     51 C          13.6752    1.0076   -1.4825 C.1     1  LIG1       -0.1138
     52 H          14.2874    0.2479   -1.9110 H       1  LIG1        0.1232
     53 N          14.9798    5.2524   -0.9667 N.1     1  LIG1       -0.1907
     54 C          13.9288    4.8317   -0.6996 C.1     1  LIG1        0.1036
@<TRIPOS>BOND
     1    14    11    1
     2    12    11    1
     3    52    51    1
     4    29    30    3
     5    51    50    3
     6    11    10    1
     7    11    13    1
     8    10     1    1
     9    30    25    1
    10     5     2    1
    11    26    24    1
    12    50    45    1
    13    53    54    3
    14    54    46    1
    15     1     2   ar
    16     1     3   ar
    17     2     4   ar
    18    25    24   ar
    19    25    22   ar
    20    24    21   ar
    21    45    46   ar
    22    45    44   ar
    23    46    47   ar
    24    36    35    1
    25     9     3    1
    26    42    40    1
    27     3     6   ar
    28    44    34    1
    29    44    48   ar
    30    35    34   ar
    31    35    31   ar
    32     4    21    1
    33     4     7   ar
    34    47    48   ar
    35    47    49    1
    36    38    37    1
    37    34    33   ar
    38    21    19   ar
    39    22    31    1
    40    22    20   ar
    41    31    32   ar
    42    33    32   ar
    43    33    40    1
    44    32    37    1
    45    39    37    1
    46     6     7   ar
    47     6     8    1
    48     7    15    1
    49    40    41    1
    50    40    43    1
    51    17    15    1
    52    19    20   ar
    53    19    28    1
    54    20    23    1
    55    15    16    1
    56    15    18    1
    57    28    27    3
