@<TRIPOS>MOLECULE
mol_data/opt/b3lyp/geoms/mol2/4li6dd-4hi-6le-.out
 60 63 0 0 0
SMALL
GASTEIGER

@<TRIPOS>ATOM
      1 C          -0.1962    0.2585   -0.6673 C.ar    1  LIG1        0.1207
      2 C           1.2013    0.3317   -0.6365 C.ar    1  LIG1       -0.0119
      3 C          -0.9418    1.1516    0.1067 C.ar    1  LIG1       -0.0197
      4 C           1.8559    1.2887    0.1428 C.ar    1  LIG1       -0.0088
      5 H           1.7656   -0.3647   -1.2480 H       1  LIG1        0.0660
      6 C          -0.2767    2.0923    0.8950 C.ar    1  LIG1       -0.0548
      7 C           1.1158    2.1936    0.9393 C.ar    1  LIG1       -0.0424
      8 H          -0.8684    2.7702    1.5043 H       1  LIG1        0.0622
      9 H          -2.0247    1.1224    0.1118 H       1  LIG1        0.0654
     10 O          -0.7207   -0.7095   -1.4722 O.3     1  LIG1       -0.4951
     11 C          -2.1343   -0.8200   -1.5517 C.3     1  LIG1        0.0788
     12 H          -2.3331   -1.6379   -2.2453 H       1  LIG1        0.0660
     13 H          -2.5770   -1.0587   -0.5762 H       1  LIG1        0.0660
     14 H          -2.5905    0.1002   -1.9379 H       1  LIG1        0.0660
     15 C           1.7703    3.2269    1.8273 C.3     1  LIG1       -0.0391
     16 H           1.0760    3.5578    2.6042 H       1  LIG1        0.0278
     17 H           2.0732    4.1140    1.2602 H       1  LIG1        0.0278
     18 H           2.6628    2.8349    2.3245 H       1  LIG1        0.0278
     19 C           4.1316    2.3163   -0.4256 C.ar    1  LIG1        0.1485
     20 C           3.3477    1.2825    0.1281 C.ar    1  LIG1        0.0196
     21 C           4.0616    0.2054    0.6579 C.ar    1  LIG1       -0.0318
     22 C           5.4612    0.1872    0.6249 C.ar    1  LIG1        0.0784
     23 C           6.1532    1.2695    0.0146 C.ar    1  LIG1        0.0916
     24 N           5.4716    2.3093   -0.4829 N.ar    1  LIG1       -0.2344
     25 H           3.5258   -0.6135    1.1260 H       1  LIG1        0.0638
     26 N           3.0059    4.4101   -1.4963 N.1     1  LIG1       -0.1893
     27 C           3.5042    3.4751   -1.0187 C.1     1  LIG1        0.1197
     28 N           6.6333   -1.7632    1.8718 N.1     1  LIG1       -0.1908
     29 C           6.1423   -0.8865    1.2865 C.1     1  LIG1        0.1013
     30 C           8.4238    0.3408   -0.6510 C.ar    1  LIG1        0.0345
     31 C           9.8182    0.4935   -0.6221 C.ar    1  LIG1       -0.0323
     32 C           7.6347    1.3476   -0.0541 C.ar    1  LIG1        0.0226
     33 C          10.4355    1.6124   -0.0599 C.ar    1  LIG1       -0.0081
     34 H          10.4375   -0.2744   -1.0785 H       1  LIG1        0.0642
     35 C           8.2657    2.4831    0.4740 C.ar    1  LIG1       -0.0473
     36 C           9.6488    2.6455    0.4995 C.ar    1  LIG1       -0.0418
     37 H           7.6358    3.2570    0.9026 H       1  LIG1        0.0627
     38 N           7.8553   -0.7873   -1.2402 N.pl3   1  LIG1       -0.3574
     39 H           6.9608   -0.6494   -1.6893 H       1  LIG1        0.1423
     40 H           8.4855   -1.3273   -1.8163 H       1  LIG1        0.1423
     41 C          10.2593    3.8741    1.1289 C.3     1  LIG1       -0.0391
     42 H           9.5062    4.4415    1.6821 H       1  LIG1        0.0278
     43 H          10.6911    4.5344    0.3699 H       1  LIG1        0.0278
     44 H          11.0626    3.6136    1.8263 H       1  LIG1        0.0278
     45 C          12.6826    2.6010   -0.7802 C.ar    1  LIG1        0.2224
     46 C          11.9266    1.6514   -0.0446 C.ar    1  LIG1        0.0451
     47 C          12.6553    0.7068    0.6668 C.ar    1  LIG1       -0.0320
     48 C          14.0663    0.7248    0.6631 C.ar    1  LIG1        0.0436
     49 C          14.6852    1.7284   -0.0917 C.ar    1  LIG1        0.0468
     50 N          14.0102    2.6400   -0.7988 N.ar    1  LIG1       -0.2196
     51 H          12.1299   -0.0491    1.2415 H       1  LIG1        0.0638
     52 H          15.7699    1.7928   -0.1260 H       1  LIG1        0.0843
     53 O          11.9932    3.5002   -1.5141 O.3     1  LIG1       -0.4792
     54 C          12.7520    4.4372   -2.2880 C.3     1  LIG1        0.0804
     55 H          12.0103    5.0480   -2.8034 H       1  LIG1        0.0660
     56 H          13.3819    5.0594   -1.6467 H       1  LIG1        0.0660
     57 H          13.3915    3.9218   -3.0093 H       1  LIG1        0.0660
     58 C          14.8322   -0.2301    1.3949 C.1     1  LIG1       -0.0681
     59 C          15.4830   -1.0403    2.0151 C.1     1  LIG1       -0.1139
     60 H          16.0556   -1.7528    2.5623 H       1  LIG1        0.1232
@<TRIPOS>BOND
     1    57    54    1
     2    55    54    1
     3    54    56    1
     4    54    53    1
     5    12    11    1
     6    14    11    1
     7    40    38    1
     8    39    38    1
     9    11    10    1
    10    11    13    1
    11    53    45    1
    12    26    27    3
    13    10     1    1
    14     5     2    1
    15    38    30    1
    16    34    31    1
    17    27    19    1
    18    50    45   ar
    19    50    49   ar
    20    45    46   ar
    21     1     2   ar
    22     1     3   ar
    23    30    31   ar
    24    30    32   ar
    25     2     4   ar
    26    31    33   ar
    27    24    19   ar
    28    24    23   ar
    29    19    20   ar
    30    52    49    1
    31    49    48   ar
    32    33    46    1
    33    33    36   ar
    34    32    23    1
    35    32    35   ar
    36    46    47   ar
    37    23    22   ar
    38     3     9    1
    39     3     6   ar
    40    20     4    1
    41    20    21   ar
    42     4     7   ar
    43    43    41    1
    44    35    36   ar
    45    35    37    1
    46    36    41    1
    47    22    21   ar
    48    22    29    1
    49    21    25    1
    50    48    47   ar
    51    48    58    1
    52    47    51    1
    53     6     7   ar
    54     6     8    1
    55     7    15    1
    56    41    42    1
    57    41    44    1
    58    17    15    1
    59    29    28    3
    60    58    59    3
    61    15    18    1
    62    15    16    1
    63    59    60    1
