@<TRIPOS>MOLECULE
mol_data/opt/b3lyp/geoms/mol2/4ll.out
 20 20 0 0 0
SMALL
GASTEIGER

@<TRIPOS>ATOM
      1 C          -0.0161    0.0751    0.0002 C.ar    1  LIG1        0.1203
      2 C           1.3767   -0.0411   -0.0000 C.ar    1  LIG1       -0.0165
      3 C          -0.5959    1.3506    0.0001 C.ar    1  LIG1       -0.0165
      4 C           2.1885    1.0916   -0.0004 C.ar    1  LIG1       -0.0165
      5 H           1.8139   -1.0342    0.0001 H       1  LIG1        0.0655
      6 C           0.2160    2.4833   -0.0003 C.ar    1  LIG1       -0.0165
      7 C           1.6089    2.3672   -0.0006 C.ar    1  LIG1        0.1203
      8 H          -0.2212    3.4764   -0.0004 H       1  LIG1        0.0655
      9 H           3.2642    0.9668   -0.0007 H       1  LIG1        0.0655
     10 H          -1.6724    1.4755    0.0003 H       1  LIG1        0.0655
     11 O          -0.7174   -1.1029    0.0007 O.3     1  LIG1       -0.4951
     12 C          -2.1319   -1.0337    0.0009 C.3     1  LIG1        0.0788
     13 H          -2.4857   -2.0660    0.0012 H       1  LIG1        0.0660
     14 H          -2.5158   -0.5229    0.8941 H       1  LIG1        0.0660
     15 H          -2.5161   -0.5233   -0.8925 H       1  LIG1        0.0660
     16 O           2.3099    3.5454   -0.0010 O.3     1  LIG1       -0.4951
     17 C           3.7243    3.4768   -0.0013 C.3     1  LIG1        0.0788
     18 H           4.0777    4.5092   -0.0016 H       1  LIG1        0.0660
     19 H           4.1090    2.9665    0.8920 H       1  LIG1        0.0660
     20 H           4.1085    2.9662   -0.8946 H       1  LIG1        0.0660
@<TRIPOS>BOND
     1    20    17    1
     2    15    12    1
     3    18    17    1
     4    17    16    1
     5    17    19    1
     6    16     7    1
     7     9     4    1
     8     7     4   ar
     9     7     6   ar
    10     4     2   ar
    11     8     6    1
    12     6     3   ar
    13     2     5    1
    14     2     1   ar
    15     3     1   ar
    16     3    10    1
    17     1    11    1
    18    11    12    1
    19    12    13    1
    20    12    14    1
