@<TRIPOS>MOLECULE
mol_data/opt/b3lyp/geoms/mol2/4ll12lf-12ae4dd-12fe-12hf-4ai13ii-.out
 100 107 0 0 0
SMALL
GASTEIGER

@<TRIPOS>ATOM
      1 C           1.0837   -1.5479    1.8732 C.ar    1  LIG1        0.1210
      2 C           2.1855   -1.1396    1.1186 C.ar    1  LIG1       -0.0056
      3 C           0.5164   -0.6791    2.8105 C.ar    1  LIG1       -0.0165
      4 C           2.7635    0.1313    1.2824 C.ar    1  LIG1        0.0661
      5 H           2.5865   -1.8270    0.3857 H       1  LIG1        0.0662
      6 C           1.0803    0.5862    2.9777 C.ar    1  LIG1       -0.0158
      7 C           2.1847    1.0045    2.2416 C.ar    1  LIG1        0.1311
      8 H           0.6544    1.2873    3.6885 H       1  LIG1        0.0655
      9 H          -0.3466   -0.9639    3.3999 H       1  LIG1        0.0655
     10 O           0.6302   -2.8124    1.6098 O.3     1  LIG1       -0.4951
     11 C          -0.4995   -3.2777    2.3279 C.3     1  LIG1        0.0788
     12 H          -0.6914   -4.2892    1.9666 H       1  LIG1        0.0660
     13 H          -0.3093   -3.3125    3.4087 H       1  LIG1        0.0660
     14 H          -1.3850   -2.6558    2.1419 H       1  LIG1        0.0660
     15 O           2.6422    2.2891    2.4420 O.3     1  LIG1       -0.4944
     16 C           3.6998    2.4113    3.3906 C.3     1  LIG1        0.0788
     17 H           3.9290    3.4762    3.4631 H       1  LIG1        0.0660
     18 H           3.3934    2.0364    4.3764 H       1  LIG1        0.0660
     19 H           4.5987    1.8745    3.0656 H       1  LIG1        0.0660
     20 C           3.9134    0.4855    0.4571 C.ar    1  LIG1        0.1847
     21 C           4.6961   -0.2551   -0.4159 C.ar    1  LIG1        0.2085
     22 C           5.6664    0.6364   -0.9619 C.ar    1  LIG1        0.2092
     23 C           5.4412    1.8641   -0.3829 C.ar    1  LIG1        0.2156
     24 O           4.3675    1.7794    0.4600 O.2     1  LIG1       -0.4440
     25 O           4.5171   -1.5630   -0.7463 O.3     1  LIG1       -0.4884
     26 C           5.6748   -2.3994   -0.6049 C.3     1  LIG1        0.0791
     27 H           5.3551   -3.4032   -0.8884 H       1  LIG1        0.0660
     28 H           6.4839   -2.0702   -1.2625 H       1  LIG1        0.0660
     29 H           6.0243   -2.4062    0.4343 H       1  LIG1        0.0660
     30 O           6.5984    0.2882   -1.8904 O.3     1  LIG1       -0.5007
     31 H           6.9100    1.0918   -2.3329 H       1  LIG1        0.2924
     32 C           6.1208    3.1119   -0.5603 C.ar    1  LIG1        0.1756
     33 C           7.3772    3.4079   -1.0279 C.ar    1  LIG1        0.0034
     34 C           7.4863    4.8389   -1.0446 C.ar    1  LIG1        0.0711
     35 C           6.2858    5.3243   -0.5491 C.ar    1  LIG1        0.1524
     36 O           5.4511    4.2687   -0.2763 O.2     1  LIG1       -0.4503
     37 H           8.1635    2.7113   -1.2792 H       1  LIG1        0.0669
     38 C           8.5837    5.5726   -1.5585 C.1     1  LIG1       -0.0658
     39 C           9.5275    6.1642   -2.0299 C.1     1  LIG1       -0.1138
     40 H          10.3603    6.7074   -2.4125 H       1  LIG1        0.1232
     41 C           6.4339    7.7696    0.1273 C.ar    1  LIG1        0.0632
     42 C           5.8272    9.0216    0.2266 C.ar    1  LIG1       -0.0316
     43 C           5.7104    6.6475   -0.3615 C.ar    1  LIG1        0.0371
     44 C           4.4775    9.2376   -0.1186 C.ar    1  LIG1        0.0396
     45 H           6.4109    9.8489    0.6086 H       1  LIG1        0.0638
     46 C           4.3599    6.8492   -0.6680 C.ar    1  LIG1       -0.0317
     47 C           3.7382    8.0997   -0.5605 C.ar    1  LIG1        0.0633
     48 H           3.7731    6.0093   -1.0202 H       1  LIG1        0.0638
     49 N           8.8303    7.6200    1.1143 N.1     1  LIG1       -0.1908
     50 C           7.7688    7.6566    0.6399 C.1     1  LIG1        0.0999
     51 N           1.2570    8.0674   -1.3166 N.1     1  LIG1       -0.1908
     52 C           2.3608    8.1430   -0.9571 C.1     1  LIG1        0.0999
     53 C           3.9327   10.5612    0.0064 C.ar    1  LIG1        0.1795
     54 C           4.4904   11.7902    0.2951 C.ar    1  LIG1        0.1792
     55 C           3.4497   12.7724    0.2694 C.ar    1  LIG1        0.1156
     56 C           2.2774   12.0695   -0.0384 C.ar    1  LIG1        0.1915
     57 O           2.5772   10.7562   -0.1937 O.2     1  LIG1       -0.4466
     58 O           5.7927   12.0354    0.5519 O.3     1  LIG1       -0.5024
     59 H           5.8961   12.9864    0.7148 H       1  LIG1        0.2923
     60 C           3.7007   14.1388    0.5189 C.1     1  LIG1       -0.0621
     61 C           4.0509   15.2809    0.7415 C.1     1  LIG1       -0.1137
     62 H           4.3234   16.2877    0.9614 H       1  LIG1        0.1232
     63 C           0.9169   12.4266   -0.2177 C.ar    1  LIG1        0.1962
     64 C           0.2048   13.6257   -0.2158 C.ar    1  LIG1        0.1169
     65 C          -1.1409   13.2645   -0.5120 C.ar    1  LIG1        0.1846
     66 C          -1.1982   11.8954   -0.6607 C.ar    1  LIG1        0.1789
     67 O           0.0537   11.3844   -0.4953 O.2     1  LIG1       -0.4460
     68 N           0.5965   14.9113    0.0479 N.pl3   1  LIG1       -0.3521
     69 H           1.5799   15.1350    0.0033 H       1  LIG1        0.1425
     70 H          -0.0340   15.6247   -0.2886 H       1  LIG1        0.1425
     71 O          -2.1224   14.2122   -0.6290 O.3     1  LIG1       -0.5020
     72 H          -2.7718   13.9091   -1.2786 H       1  LIG1        0.2924
     73 C          -3.6222   11.3566   -0.8564 C.ar    1  LIG1       -0.0503
     74 C          -4.6279   10.4601   -1.1903 C.ar    1  LIG1       -0.0517
     75 C          -2.2734   10.9746   -0.9767 C.ar    1  LIG1        0.0213
     76 C          -4.3464    9.1534   -1.6329 C.ar    1  LIG1        0.0015
     77 H          -5.6641   10.7733   -1.1180 H       1  LIG1        0.0624
     78 C          -1.9830    9.6673   -1.4062 C.ar    1  LIG1       -0.0474
     79 C          -2.9864    8.7528   -1.7268 C.ar    1  LIG1       -0.0407
     80 H          -0.9464    9.3513   -1.4681 H       1  LIG1        0.0627
     81 H          -3.8877   12.3335   -0.4636 H       1  LIG1        0.0625
     82 C          -2.5748    7.3537   -2.1317 C.3     1  LIG1       -0.0391
     83 H          -1.5519    7.1525   -1.8058 H       1  LIG1        0.0278
     84 H          -2.5900    7.2153   -3.2210 H       1  LIG1        0.0278
     85 H          -3.2395    6.5993   -1.7016 H       1  LIG1        0.0278
     86 C          -5.4700    8.2622   -1.9560 C.ar    1  LIG1        0.0499
     87 C          -6.6662    8.0208   -1.2819 C.ar    1  LIG1       -0.0223
     88 C          -7.4210    7.0882   -2.0627 C.ar    1  LIG1       -0.0297
     89 C          -6.6707    6.7950   -3.1826 C.ar    1  LIG1        0.0053
     90 N          -5.4924    7.4906   -3.1044 N.ar    1  LIG1       -0.3602
     91 H          -4.7892    7.5240   -3.8232 H       1  LIG1        0.1654
     92 H          -6.8844    6.1438   -4.0179 H       1  LIG1        0.0810
     93 C          -7.0880    8.5674    0.0514 C.3     1  LIG1       -0.0375
     94 H          -7.4866    7.7731    0.6934 H       1  LIG1        0.0278
     95 H          -7.8798    9.3231   -0.0405 H       1  LIG1        0.0278
     96 H          -6.2515    9.0309    0.5803 H       1  LIG1        0.0278
     97 C          -8.7665    6.5218   -1.7169 C.3     1  LIG1       -0.0380
     98 H          -9.1075    5.8188   -2.4827 H       1  LIG1        0.0278
     99 H          -9.5291    7.3051   -1.6250 H       1  LIG1        0.0278
    100 H          -8.7496    5.9831   -0.7611 H       1  LIG1        0.0278
@<TRIPOS>BOND
     1    92    89    1
     2    91    90    1
     3    84    82    1
     4    89    90   ar
     5    89    88   ar
     6    90    86   ar
     7    98    97    1
     8    40    39    1
     9    31    30    1
    10    82    83    1
    11    82    79    1
    12    82    85    1
    13    88    97    1
    14    88    87   ar
    15    39    38    3
    16    86    76    1
    17    86    87   ar
    18    30    22    1
    19    79    76   ar
    20    79    78   ar
    21    97    99    1
    22    97   100    1
    23    76    74   ar
    24    38    34    1
    25    80    78    1
    26    78    75   ar
    27    51    52    3
    28    87    93    1
    29    37    33    1
    30    72    71    1
    31    28    26    1
    32    74    77    1
    33    74    73   ar
    34    34    33   ar
    35    34    35   ar
    36    33    32   ar
    37    48    46    1
    38    75    73   ar
    39    75    66    1
    40    22    21   ar
    41    22    23   ar
    42    52    47    1
    43    27    26    1
    44    73    81    1
    45    25    26    1
    46    25    21    1
    47    46    47   ar
    48    46    43   ar
    49    66    65   ar
    50    66    67   ar
    51    71    65    1
    52    26    29    1
    53    47    44   ar
    54    32    23    1
    55    32    36   ar
    56    35    43    1
    57    35    36   ar
    58    65    64   ar
    59    67    63   ar
    60    21    20   ar
    61    23    24   ar
    62    43    41   ar
    63    70    68    1
    64    63    64   ar
    65    63    56    1
    66    64    68    1
    67    57    56   ar
    68    57    53   ar
    69    44    53    1
    70    44    42   ar
    71    95    93    1
    72    56    55   ar
    73    69    68    1
    74    53    54   ar
    75    93    96    1
    76    93    94    1
    77    41    42   ar
    78    41    50    1
    79    42    45    1
    80    55    54   ar
    81    55    60    1
    82    54    58    1
    83     5     2    1
    84    20    24   ar
    85    20     4    1
    86    60    61    3
    87    58    59    1
    88    50    49    3
    89    61    62    1
    90     2     4   ar
    91     2     1   ar
    92     4     7   ar
    93    10     1    1
    94    10    11    1
    95     1     3   ar
    96    12    11    1
    97    14    11    1
    98     7    15    1
    99     7     6   ar
   100    11    13    1
   101    15    16    1
   102     3     6   ar
   103     3     9    1
   104     6     8    1
   105    19    16    1
   106    16    17    1
   107    16    18    1
