@<TRIPOS>MOLECULE
mol_data/opt/b3lyp/geoms/mol2/4ll12he6ei-12aa13le-13ha-6aa-6al-.out
 98 105 0 0 0
SMALL
GASTEIGER

@<TRIPOS>ATOM
      1 C          -0.5364    0.5033    0.5186 C.ar    1  LIG1        0.1210
      2 C           0.8599    0.5896    0.5424 C.ar    1  LIG1       -0.0057
      3 C          -1.2595    1.3468   -0.3234 C.ar    1  LIG1       -0.0165
      4 C           1.5564    1.4869   -0.2774 C.ar    1  LIG1        0.0642
      5 H           1.4011   -0.0390    1.2413 H       1  LIG1        0.0662
      6 C          -0.5810    2.2542   -1.1469 C.ar    1  LIG1       -0.0158
      7 C           0.8111    2.3285   -1.1476 C.ar    1  LIG1        0.1310
      8 H          -1.1611    2.9134   -1.7808 H       1  LIG1        0.0655
      9 H          -2.3419    1.3200   -0.3544 H       1  LIG1        0.0655
     10 O          -1.0866   -0.4247    1.3664 O.3     1  LIG1       -0.4951
     11 C          -2.4986   -0.5145    1.4194 C.3     1  LIG1        0.0788
     12 H          -2.7263   -1.2904    2.1522 H       1  LIG1        0.0660
     13 H          -2.9552    0.4306    1.7426 H       1  LIG1        0.0660
     14 H          -2.9265   -0.8008    0.4490 H       1  LIG1        0.0660
     15 O           1.5291    3.1595   -1.9552 O.3     1  LIG1       -0.4944
     16 C           0.8326    3.8887   -2.9551 C.3     1  LIG1        0.0788
     17 H           1.5913    4.4748   -3.4757 H       1  LIG1        0.0660
     18 H           0.3386    3.2147   -3.6682 H       1  LIG1        0.0660
     19 H           0.0780    4.5592   -2.5291 H       1  LIG1        0.0660
     20 C           3.0139    1.4869   -0.2283 C.ar    1  LIG1        0.1611
     21 C           3.9136    0.4612   -0.0283 C.ar    1  LIG1        0.0873
     22 C           5.2236    1.0529   -0.0396 C.ar    1  LIG1        0.0917
     23 C           5.0347    2.4213   -0.2399 C.ar    1  LIG1        0.1555
     24 O           3.7109    2.6675   -0.3556 O.2     1  LIG1       -0.4514
     25 N           3.6629   -0.8880    0.1957 N.pl3   1  LIG1       -0.3541
     26 H           2.7989   -1.2205   -0.2145 H       1  LIG1        0.1425
     27 H           4.4489   -1.4800   -0.0454 H       1  LIG1        0.1425
     28 C           6.4084    0.3008    0.1385 C.1     1  LIG1       -0.0640
     29 C           7.3682   -0.4261    0.2862 C.1     1  LIG1       -0.1137
     30 H           8.2253   -1.0399    0.4392 H       1  LIG1        0.1232
     31 C           5.5877    4.9093   -0.2560 C.ar    1  LIG1        0.1246
     32 C           5.9616    3.5351   -0.3198 C.ar    1  LIG1        0.0526
     33 C           7.3406    3.2830   -0.4494 C.ar    1  LIG1       -0.0433
     34 C           8.2900    4.2942   -0.4924 C.ar    1  LIG1       -0.0207
     35 C           7.8086    5.6256   -0.3954 C.ar    1  LIG1        0.1103
     36 N           6.4964    5.8933   -0.2897 N.ar    1  LIG1       -0.2343
     37 H           7.6785    2.2557   -0.5176 H       1  LIG1        0.0629
     38 C           4.2355    5.3773   -0.1429 C.1     1  LIG1       -0.0491
     39 C           3.1301    5.8626   -0.0535 C.1     1  LIG1       -0.1124
     40 H           2.1551    6.3000    0.0171 H       1  LIG1        0.1232
     41 C           9.7490    3.9476   -0.6317 C.3     1  LIG1       -0.0376
     42 H          10.3387    4.3485    0.2006 H       1  LIG1        0.0278
     43 H          10.1743    4.3543   -1.5567 H       1  LIG1        0.0278
     44 H           9.8864    2.8638   -0.6501 H       1  LIG1        0.0278
     45 C           8.6671    6.8068   -0.3896 C.ar    1  LIG1        0.1542
     46 C          10.0083    7.0921   -0.5566 C.ar    1  LIG1       -0.0137
     47 C          10.1674    8.5011   -0.4329 C.ar    1  LIG1       -0.0136
     48 C           8.9115    9.0074   -0.1959 C.ar    1  LIG1        0.1555
     49 O           8.0052    7.9889   -0.1697 O.2     1  LIG1       -0.4517
     50 H          10.7985    6.3861   -0.7515 H       1  LIG1        0.0656
     51 H          11.0801    9.0732   -0.4991 H       1  LIG1        0.0656
     52 C           8.3243   10.2958    0.0283 C.ar    1  LIG1        0.1260
     53 C           8.8117   11.5939    0.0142 C.ar    1  LIG1        0.1642
     54 C           7.7213   12.4848    0.3052 C.ar    1  LIG1        0.0937
     55 C           6.5808   11.6775    0.5089 C.ar    1  LIG1        0.0844
     56 N           6.9764   10.3786    0.3272 N.ar    1  LIG1       -0.3466
     57 H           6.4207    9.5645    0.5452 H       1  LIG1        0.1662
     58 O          10.1186   11.9041   -0.2125 O.3     1  LIG1       -0.4916
     59 C          10.3708   12.7267   -1.3587 C.3     1  LIG1        0.0789
     60 H          11.4535   12.8572   -1.4052 H       1  LIG1        0.0660
     61 H          10.0211   12.2362   -2.2753 H       1  LIG1        0.0660
     62 H           9.8894   13.7042   -1.2633 H       1  LIG1        0.0660
     63 C           7.7728   13.8977    0.3343 C.1     1  LIG1       -0.0638
     64 C           7.8214   15.1106    0.3592 C.1     1  LIG1       -0.1137
     65 H           7.8790   16.1742    0.3537 H       1  LIG1        0.1232
     66 C           5.1971   11.9505    0.7954 C.ar    1  LIG1        0.0856
     67 C           4.5249   12.9450    1.5204 C.ar    1  LIG1        0.0523
     68 C           3.1474   12.5890    1.5411 C.ar    1  LIG1       -0.0150
     69 C           2.9916   11.3911    0.8561 C.ar    1  LIG1        0.0502
     70 N           4.2431   10.9944    0.4399 N.ar    1  LIG1       -0.3515
     71 H           4.3790   10.3729   -0.3443 H       1  LIG1        0.1660
     72 N           5.0918   13.9984    2.2260 N.pl3   1  LIG1       -0.3563
     73 H           5.9644   14.3481    1.8465 H       1  LIG1        0.1424
     74 H           4.4449   14.7501    2.4227 H       1  LIG1        0.1424
     75 H           2.3715   13.1149    2.0809 H       1  LIG1        0.0657
     76 C           1.9382    9.2032    0.2921 C.ar    1  LIG1        0.0374
     77 C           1.8184   10.5777    0.5846 C.ar    1  LIG1        0.0165
     78 C           0.5118   11.0953    0.5926 C.ar    1  LIG1       -0.0492
     79 C          -0.5614   10.2628    0.3076 C.ar    1  LIG1       -0.0350
     80 C          -0.3330    8.9092    0.0063 C.ar    1  LIG1        0.0726
     81 N           0.9169    8.4026    0.0072 N.ar    1  LIG1       -0.2543
     82 H           0.3475   12.1501    0.7909 H       1  LIG1        0.0625
     83 H           2.9137    8.7203    0.3145 H       1  LIG1        0.0836
     84 H          -1.5661   10.6705    0.2767 H       1  LIG1        0.0639
     85 C          -1.1423    6.8505   -1.1443 C.ar    1  LIG1        0.0370
     86 C          -1.4239    7.9747   -0.3563 C.ar    1  LIG1        0.0219
     87 C          -2.7533    8.1709    0.0522 C.ar    1  LIG1       -0.0078
     88 C          -3.7210    7.2480   -0.3435 C.ar    1  LIG1        0.1387
     89 C          -3.3248    6.1558   -1.1343 C.ar    1  LIG1        0.0692
     90 N          -2.0673    5.9611   -1.5263 N.ar    1  LIG1       -0.2590
     91 H          -3.0105    9.0095    0.6879 H       1  LIG1        0.0662
     92 H          -4.0744    5.4300   -1.4412 H       1  LIG1        0.0867
     93 H          -0.1251    6.6778   -1.4785 H       1  LIG1        0.0836
     94 O          -5.0424    7.3002   -0.0195 O.3     1  LIG1       -0.4936
     95 C          -5.4925    8.3773    0.7893 C.3     1  LIG1        0.0789
     96 H          -6.5647    8.2273    0.9202 H       1  LIG1        0.0660
     97 H          -5.0053    8.3753    1.7727 H       1  LIG1        0.0660
     98 H          -5.3204    9.3466    0.3040 H       1  LIG1        0.0660
@<TRIPOS>BOND
     1    18    16    1
     2    17    16    1
     3    16    19    1
     4    16    15    1
     5    61    59    1
     6    15     7    1
     7     8     6    1
     8    43    41    1
     9    90    85   ar
    10    90    89   ar
    11    93    85    1
    12    92    89    1
    13    60    59    1
    14    59    62    1
    15    59    58    1
    16     7     6   ar
    17     7     4   ar
    18     6     3   ar
    19    85    86   ar
    20    89    88   ar
    21    50    46    1
    22    44    41    1
    23    41    34    1
    24    41    42    1
    25    46    47   ar
    26    46    45   ar
    27    37    33    1
    28    51    47    1
    29    34    33   ar
    30    34    35   ar
    31    33    32   ar
    32    47    48   ar
    33    35    45    1
    34    35    36   ar
    35    45    49   ar
    36    86    80    1
    37    86    87   ar
    38    24    23   ar
    39    24    20   ar
    40     9     3    1
    41    71    70    1
    42    88    94    1
    43    88    87   ar
    44     3     1   ar
    45    32    31   ar
    46    32    23    1
    47    36    31   ar
    48     4    20    1
    49     4     2   ar
    50    31    38    1
    51    23    22   ar
    52    20    21   ar
    53    26    25    1
    54    58    53    1
    55    48    49   ar
    56    48    52    1
    57    38    39    3
    58    39    40    1
    59    27    25    1
    60    22    21   ar
    61    22    28    1
    62    21    25    1
    63    94    95    1
    64    80    81   ar
    65    80    79   ar
    66    81    76   ar
    67    53    52   ar
    68    53    54   ar
    69    52    56   ar
    70    87    91    1
    71    28    29    3
    72    84    79    1
    73    29    30    1
    74    76    83    1
    75    76    77   ar
    76    98    95    1
    77    54    63    1
    78    54    55   ar
    79    79    78   ar
    80    56    55   ar
    81    56    57    1
    82    63    64    3
    83    65    64    1
    84    70    66   ar
    85    70    69   ar
    86    14    11    1
    87    55    66    1
    88     1     2   ar
    89     1    10    1
    90     2     5    1
    91    77    78   ar
    92    77    69    1
    93    78    82    1
    94    95    96    1
    95    95    97    1
    96    66    67   ar
    97    69    68   ar
    98    10    11    1
    99    11    13    1
   100    11    12    1
   101    67    68   ar
   102    67    72    1
   103    68    75    1
   104    73    72    1
   105    72    74    1
