@<TRIPOS>MOLECULE
mol_data/opt/b3lyp/geoms/mol2/512-12-4-.out
 33 36 0 0 0
SMALL
GASTEIGER

@<TRIPOS>ATOM
      1 C          -2.5677   -1.8071   -0.0003 C.ar    1  LIG1       -0.0236
      2 C          -1.2033   -1.8999   -0.0009 C.ar    1  LIG1       -0.0540
      3 C          -0.5583   -0.6313   -0.0002 C.ar    1  LIG1       -0.0440
      4 C          -1.4430    0.4261    0.0009 C.ar    1  LIG1        0.0544
      5 S          -3.0976   -0.1526    0.0011 S.2     1  LIG1       -0.0936
      6 H          -3.2986   -2.6031   -0.0006 H       1  LIG1        0.0693
      7 H          -0.6722   -2.8448   -0.0017 H       1  LIG1        0.0623
      8 H           0.5150   -0.4886   -0.0005 H       1  LIG1        0.0630
      9 C          -1.1417    1.8337    0.0017 C.ar    1  LIG1        0.1424
     10 C          -1.9059    2.9774    0.0025 C.ar    1  LIG1       -0.0146
     11 C          -1.0045    4.0745    0.0031 C.ar    1  LIG1       -0.0121
     12 C           0.2634    3.5401    0.0026 C.ar    1  LIG1        0.1706
     13 O           0.1868    2.1740    0.0018 O.2     1  LIG1       -0.4512
     14 H          -2.9853    3.0228    0.0026 H       1  LIG1        0.0656
     15 H          -1.2548    5.1251    0.0037 H       1  LIG1        0.0657
     16 C           1.5685    4.1367    0.0029 C.ar    1  LIG1        0.1706
     17 C           1.9935    5.4454    0.0032 C.ar    1  LIG1       -0.0122
     18 C           3.4128    5.4064    0.0033 C.ar    1  LIG1       -0.0151
     19 C           3.7814    4.0814    0.0030 C.ar    1  LIG1        0.1358
     20 O           2.6512    3.3036    0.0027 O.2     1  LIG1       -0.4517
     21 H           1.3632    6.3225    0.0033 H       1  LIG1        0.0657
     22 H           4.0793    6.2562    0.0036 H       1  LIG1        0.0656
     23 C           6.2664    4.1243    0.0030 C.ar    1  LIG1       -0.0511
     24 C           7.4931    3.4687    0.0030 C.ar    1  LIG1       -0.0611
     25 C           5.0635    3.3933    0.0030 C.ar    1  LIG1        0.0173
     26 C           7.5481    2.0725    0.0030 C.ar    1  LIG1       -0.0617
     27 H           8.4109    4.0495    0.0030 H       1  LIG1        0.0618
     28 C           5.1286    1.9879    0.0030 C.ar    1  LIG1       -0.0511
     29 C           6.3605    1.3387    0.0030 C.ar    1  LIG1       -0.0611
     30 H           4.2079    1.4154    0.0030 H       1  LIG1        0.0625
     31 H           8.5070    1.5631    0.0030 H       1  LIG1        0.0618
     32 H           6.2379    5.2095    0.0029 H       1  LIG1        0.0625
     33 H           6.3926    0.2529    0.0030 H       1  LIG1        0.0618
@<TRIPOS>BOND
     1     7     2    1
     2     2     1   ar
     3     2     3   ar
     4     6     1    1
     5     8     3    1
     6     1     5   ar
     7     3     4   ar
     8     4     5   ar
     9     4     9    1
    10     9    13   ar
    11     9    10   ar
    12    13    12   ar
    13    10    14    1
    14    10    11   ar
    15    12    16    1
    16    12    11   ar
    17    20    16   ar
    18    20    19   ar
    19    16    17   ar
    20    32    23    1
    21    27    24    1
    22    23    24   ar
    23    23    25   ar
    24    24    26   ar
    25    25    28   ar
    26    25    19    1
    27    26    29   ar
    28    26    31    1
    29    29    28   ar
    30    29    33    1
    31    28    30    1
    32    19    18   ar
    33    11    15    1
    34    17    18   ar
    35    17    21    1
    36    18    22    1
