@<TRIPOS>MOLECULE
mol_data/opt/b3lyp/geoms/mol2/512-12.out
 23 25 0 0 0
SMALL
GASTEIGER

@<TRIPOS>ATOM
      1 C          -2.1531   -1.8594   -0.0004 C.ar    1  LIG1       -0.0236
      2 C          -0.7856   -1.8630   -0.0005 C.ar    1  LIG1       -0.0540
      3 C          -0.2251   -0.5546    0.0001 C.ar    1  LIG1       -0.0440
      4 C          -1.1764    0.4429    0.0008 C.ar    1  LIG1        0.0544
      5 S          -2.7894   -0.2428    0.0007 S.2     1  LIG1       -0.0936
      6 H          -2.8306   -2.7013   -0.0008 H       1  LIG1        0.0693
      7 H          -0.1938   -2.7712   -0.0011 H       1  LIG1        0.0623
      8 H           0.8370   -0.3432    0.0001 H       1  LIG1        0.0630
      9 C          -0.9699    1.8682    0.0015 C.ar    1  LIG1        0.1424
     10 C          -1.8089    2.9568    0.0020 C.ar    1  LIG1       -0.0146
     11 C          -0.9841    4.1154    0.0026 C.ar    1  LIG1       -0.0121
     12 C           0.3134    3.6675    0.0025 C.ar    1  LIG1        0.1706
     13 O           0.3342    2.2987    0.0019 O.2     1  LIG1       -0.4512
     14 H          -2.8891    2.9273    0.0018 H       1  LIG1        0.0656
     15 H          -1.2966    5.1486    0.0030 H       1  LIG1        0.0657
     16 C           1.5844    4.3342    0.0030 C.ar    1  LIG1        0.1697
     17 C           2.8819    3.8891    0.0032 C.ar    1  LIG1       -0.0128
     18 C           3.7055    5.0574    0.0038 C.ar    1  LIG1       -0.0232
     19 C           2.8587    6.1240    0.0039 C.ar    1  LIG1        0.0927
     20 O           1.5601    5.7036    0.0034 O.2     1  LIG1       -0.4598
     21 H           3.0049    7.1923    0.0043 H       1  LIG1        0.1029
     22 H           3.1978    2.8569    0.0030 H       1  LIG1        0.0656
     23 H           4.7850    5.0956    0.0041 H       1  LIG1        0.0649
@<TRIPOS>BOND
     1     7     2    1
     2     6     1    1
     3     2     1   ar
     4     2     3   ar
     5     1     5   ar
     6     8     3    1
     7     3     4   ar
     8     5     4   ar
     9     4     9    1
    10     9    13   ar
    11     9    10   ar
    12    14    10    1
    13    13    12   ar
    14    10    11   ar
    15    12    11   ar
    16    12    16    1
    17    11    15    1
    18    22    17    1
    19    16    17   ar
    20    16    20   ar
    21    17    18   ar
    22    20    19   ar
    23    18    19   ar
    24    18    23    1
    25    19    21    1
