@<TRIPOS>MOLECULE
mol_data/opt/b3lyp/geoms/mol2/512-8-5.out
 29 32 0 0 0
SMALL
GASTEIGER

@<TRIPOS>ATOM
      1 C          -2.3831   -1.8453   -0.0004 C.ar    1  LIG1       -0.0236
      2 C          -1.0167   -1.9250   -0.0006 C.ar    1  LIG1       -0.0540
      3 C          -0.3868   -0.6502    0.0001 C.ar    1  LIG1       -0.0440
      4 C          -1.2858    0.3954    0.0008 C.ar    1  LIG1        0.0544
      5 S          -2.9330   -0.2000    0.0007 S.2     1  LIG1       -0.0936
      6 H          -3.1045   -2.6500   -0.0009 H       1  LIG1        0.0693
      7 H          -0.4759   -2.8642   -0.0011 H       1  LIG1        0.0623
      8 H           0.6849   -0.4930    0.0001 H       1  LIG1        0.0630
      9 C          -0.9966    1.8058    0.0016 C.ar    1  LIG1        0.1424
     10 C          -1.7800    2.9423    0.0021 C.ar    1  LIG1       -0.0146
     11 C          -0.8925    4.0450    0.0027 C.ar    1  LIG1       -0.0120
     12 C           0.3803    3.5224    0.0025 C.ar    1  LIG1        0.1760
     13 O           0.3209    2.1556    0.0019 O.2     1  LIG1       -0.4511
     14 H          -2.8599    2.9727    0.0020 H       1  LIG1        0.0656
     15 H          -1.1361    5.0964    0.0032 H       1  LIG1        0.0657
     16 C           1.6776    4.1533    0.0030 C.ar    1  LIG1        0.2381
     17 N           1.6882    5.5087    0.0035 N.ar    1  LIG1       -0.1220
     18 C           3.9652    5.3347    0.0037 C.ar    1  LIG1        0.2099
     19 N           2.7870    3.3764    0.0028 N.ar    1  LIG1       -0.1220
     20 N           2.8515    6.1063    0.0039 N.ar    1  LIG1       -0.1246
     21 N           3.9513    3.9817    0.0032 N.ar    1  LIG1       -0.1246
     22 C           5.2510    6.0028    0.0041 C.ar    1  LIG1        0.0598
     23 C           6.5022    5.4232    0.0040 C.ar    1  LIG1       -0.0438
     24 C           7.5516    6.3787    0.0045 C.ar    1  LIG1       -0.0540
     25 C           7.0872    7.6698    0.0051 C.ar    1  LIG1       -0.0236
     26 S           5.3593    7.7486    0.0049 S.2     1  LIG1       -0.0934
     27 H           7.6651    8.5839    0.0056 H       1  LIG1        0.0693
     28 H           6.6384    4.3489    0.0035 H       1  LIG1        0.0630
     29 H           8.6044    6.1218    0.0044 H       1  LIG1        0.0623
@<TRIPOS>BOND
     1     7     2    1
     2     6     1    1
     3     2     1   ar
     4     2     3   ar
     5     1     5   ar
     6     8     3    1
     7     3     4   ar
     8     5     4   ar
     9     4     9    1
    10     9    13   ar
    11     9    10   ar
    12    13    12   ar
    13    14    10    1
    14    10    11   ar
    15    12    11   ar
    16    12    16    1
    17    11    15    1
    18    19    16   ar
    19    19    21   ar
    20    16    17   ar
    21    21    18   ar
    22    28    23    1
    23    17    20   ar
    24    18    20   ar
    25    18    22    1
    26    23    22   ar
    27    23    24   ar
    28    22    26   ar
    29    29    24    1
    30    24    25   ar
    31    26    25   ar
    32    25    27    1
