@<TRIPOS>MOLECULE
mol_data/opt/b3lyp/geoms/mol2/512-.out
 16 17 0 0 0
SMALL
GASTEIGER

@<TRIPOS>ATOM
      1 C          -2.0601   -1.8149   -0.0003 C.ar    1  LIG1       -0.0236
      2 C          -0.6932   -1.7898   -0.0006 C.ar    1  LIG1       -0.0540
      3 C          -0.1610   -0.4690    0.0001 C.ar    1  LIG1       -0.0440
      4 C          -1.1327    0.5071    0.0008 C.ar    1  LIG1        0.0544
      5 S          -2.7300   -0.2119    0.0007 S.2     1  LIG1       -0.0936
      6 H          -2.7200   -2.6715   -0.0006 H       1  LIG1        0.0693
      7 H          -0.0821   -2.6857   -0.0013 H       1  LIG1        0.0623
      8 H           0.8959   -0.2343   -0.0000 H       1  LIG1        0.0630
      9 C          -0.9557    1.9401    0.0016 C.ar    1  LIG1        0.1413
     10 C          -1.8160    3.0091    0.0020 C.ar    1  LIG1       -0.0154
     11 C          -1.0052    4.1862    0.0027 C.ar    1  LIG1       -0.0233
     12 C           0.2868    3.7576    0.0026 C.ar    1  LIG1        0.0926
     13 O           0.3382    2.3948    0.0019 O.2     1  LIG1       -0.4624
     14 H           1.2399    4.2630    0.0030 H       1  LIG1        0.1029
     15 H          -2.8952    2.9601    0.0019 H       1  LIG1        0.0655
     16 H          -1.3424    5.2129    0.0032 H       1  LIG1        0.0649
@<TRIPOS>BOND
     1     7     2    1
     2     6     1    1
     3     2     1   ar
     4     2     3   ar
     5     1     5   ar
     6     8     3    1
     7     3     4   ar
     8     5     4   ar
     9     4     9    1
    10     9    13   ar
    11     9    10   ar
    12    15    10    1
    13    13    12   ar
    14    10    11   ar
    15    12    11   ar
    16    12    14    1
    17    11    16    1
