@<TRIPOS>MOLECULE
mol_data/opt/b3lyp/geoms/mol2/512-124-.out
 33 36 0 0 0
SMALL
GASTEIGER

@<TRIPOS>ATOM
      1 C          -2.1855   -1.9578    0.0004 C.ar    1  LIG1       -0.0236
      2 C          -0.8180   -1.9589    0.0003 C.ar    1  LIG1       -0.0540
      3 C          -0.2598   -0.6497    0.0006 C.ar    1  LIG1       -0.0440
      4 C          -1.2134    0.3462    0.0010 C.ar    1  LIG1        0.0544
      5 S          -2.8251   -0.3426    0.0009 S.2     1  LIG1       -0.0936
      6 H          -2.8613   -2.8010    0.0002 H       1  LIG1        0.0693
      7 H          -0.2245   -2.8659    0.0000 H       1  LIG1        0.0623
      8 H           0.8018   -0.4369    0.0006 H       1  LIG1        0.0630
      9 C          -1.0104    1.7713    0.0013 C.ar    1  LIG1        0.1424
     10 C          -1.8532    2.8579    0.0014 C.ar    1  LIG1       -0.0146
     11 C          -1.0330    4.0183    0.0018 C.ar    1  LIG1       -0.0121
     12 C           0.2674    3.5751    0.0019 C.ar    1  LIG1        0.1706
     13 O           0.2921    2.2057    0.0017 O.2     1  LIG1       -0.4512
     14 H          -2.9332    2.8256    0.0012 H       1  LIG1        0.0656
     15 H          -1.3504    5.0500    0.0020 H       1  LIG1        0.0657
     16 C           1.5338    4.2436    0.0023 C.ar    1  LIG1        0.1706
     17 C           2.8339    3.7997    0.0027 C.ar    1  LIG1       -0.0122
     18 C           3.6522    4.9616    0.0030 C.ar    1  LIG1       -0.0151
     19 C           2.8129    6.0506    0.0028 C.ar    1  LIG1        0.1358
     20 O           1.5113    5.6110    0.0024 O.2     1  LIG1       -0.4517
     21 H           3.1512    2.7680    0.0028 H       1  LIG1        0.0657
     22 H           4.7319    4.9875    0.0034 H       1  LIG1        0.0656
     23 C           1.9489    8.3872    0.0027 C.ar    1  LIG1       -0.0511
     24 C           2.1707    9.7619    0.0029 C.ar    1  LIG1       -0.0611
     25 C           3.0319    7.4891    0.0029 C.ar    1  LIG1        0.0173
     26 C           3.4710   10.2696    0.0032 C.ar    1  LIG1       -0.0617
     27 H           1.3222   10.4400    0.0027 H       1  LIG1        0.0618
     28 C           4.3391    8.0112    0.0033 C.ar    1  LIG1       -0.0511
     29 C           4.5531    9.3855    0.0035 C.ar    1  LIG1       -0.0611
     30 H           5.1897    7.3366    0.0035 H       1  LIG1        0.0625
     31 H           3.6409   11.3420    0.0034 H       1  LIG1        0.0618
     32 H           0.9371    7.9979    0.0024 H       1  LIG1        0.0625
     33 H           5.5692    9.7692    0.0037 H       1  LIG1        0.0618
@<TRIPOS>BOND
     1     7     2    1
     2     6     1    1
     3     2     1   ar
     4     2     3   ar
     5     1     5   ar
     6     8     3    1
     7     3     4   ar
     8     5     4   ar
     9     4     9    1
    10    14    10    1
    11     9    10   ar
    12     9    13   ar
    13    10    11   ar
    14    13    12   ar
    15    11    12   ar
    16    11    15    1
    17    12    16    1
    18    16    20   ar
    19    16    17   ar
    20    20    19   ar
    21    32    23    1
    22    27    24    1
    23    23    24   ar
    24    23    25   ar
    25    17    21    1
    26    17    18   ar
    27    19    25    1
    28    19    18   ar
    29    24    26   ar
    30    25    28   ar
    31    18    22    1
    32    26    31    1
    33    26    29   ar
    34    28    29   ar
    35    28    30    1
    36    29    33    1
