@<TRIPOS>MOLECULE
mol_data/opt/b3lyp/geoms/mol2/512-12-13-.out
 31 34 0 0 0
SMALL
GASTEIGER

@<TRIPOS>ATOM
      1 C          -2.4629   -1.8358   -0.0004 C.ar    1  LIG1       -0.0236
      2 C          -1.0975   -1.9104   -0.0008 C.ar    1  LIG1       -0.0540
      3 C          -0.4694   -0.6332   -0.0001 C.ar    1  LIG1       -0.0440
      4 C          -1.3672    0.4133    0.0008 C.ar    1  LIG1        0.0544
      5 S          -3.0140   -0.1878    0.0008 S.2     1  LIG1       -0.0936
      6 H          -3.1834   -2.6412   -0.0008 H       1  LIG1        0.0693
      7 H          -0.5540   -2.8483   -0.0016 H       1  LIG1        0.0623
      8 H           0.6020   -0.4771   -0.0003 H       1  LIG1        0.0630
      9 C          -1.0868    1.8248    0.0016 C.ar    1  LIG1        0.1424
     10 C          -1.8684    2.9561    0.0022 C.ar    1  LIG1       -0.0146
     11 C          -0.9859    4.0684    0.0028 C.ar    1  LIG1       -0.0121
     12 C           0.2913    3.5555    0.0026 C.ar    1  LIG1        0.1706
     13 O           0.2377    2.1874    0.0019 O.2     1  LIG1       -0.4512
     14 H          -2.9485    2.9840    0.0021 H       1  LIG1        0.0656
     15 H          -1.2539    5.1146    0.0034 H       1  LIG1        0.0657
     16 C           1.5853    4.1729    0.0030 C.ar    1  LIG1        0.1706
     17 C           1.9961    5.4850    0.0033 C.ar    1  LIG1       -0.0121
     18 C           3.4174    5.4720    0.0037 C.ar    1  LIG1       -0.0137
     19 C           3.8014    4.1523    0.0036 C.ar    1  LIG1        0.1519
     20 O           2.6859    3.3516    0.0031 O.2     1  LIG1       -0.4503
     21 H           1.3532    6.3531    0.0033 H       1  LIG1        0.0657
     22 H           4.0773    6.3268    0.0040 H       1  LIG1        0.0656
     23 C           5.0684    3.4731    0.0038 C.ar    1  LIG1        0.0821
     24 C           6.3750    3.9492    0.0043 C.ar    1  LIG1       -0.0334
     25 C           7.2384    2.8252    0.0043 C.ar    1  LIG1       -0.0437
     26 C           6.4472    1.6923    0.0038 C.ar    1  LIG1        0.0023
     27 N           5.1376    2.0952    0.0034 N.ar    1  LIG1       -0.3583
     28 H           4.3263    1.4973    0.0032 H       1  LIG1        0.1654
     29 H           6.7098    0.6452    0.0036 H       1  LIG1        0.0807
     30 H           6.6644    4.9903    0.0046 H       1  LIG1        0.0640
     31 H           8.3187    2.8413    0.0046 H       1  LIG1        0.0633
@<TRIPOS>BOND
     1     7     2    1
     2     2     1   ar
     3     2     3   ar
     4     6     1    1
     5     1     5   ar
     6     8     3    1
     7     3     4   ar
     8     4     5   ar
     9     4     9    1
    10     9    13   ar
    11     9    10   ar
    12    13    12   ar
    13    14    10    1
    14    10    11   ar
    15    12    11   ar
    16    12    16    1
    17    11    15    1
    18    16    20   ar
    19    16    17   ar
    20    20    19   ar
    21    28    27    1
    22    21    17    1
    23    17    18   ar
    24    27    23   ar
    25    27    26   ar
    26    19    18   ar
    27    19    23    1
    28    29    26    1
    29    18    22    1
    30    23    24   ar
    31    26    25   ar
    32    25    24   ar
    33    25    31    1
    34    24    30    1
