@<TRIPOS>MOLECULE
mol_data/opt/b3lyp/geoms/mol2/512-5.out
 23 25 0 0 0
SMALL
GASTEIGER

@<TRIPOS>ATOM
      1 C          -2.2084   -1.8721   -0.0003 C.ar    1  LIG1       -0.0236
      2 C          -0.8410   -1.8921   -0.0007 C.ar    1  LIG1       -0.0540
      3 C          -0.2650   -0.5905   -0.0000 C.ar    1  LIG1       -0.0440
      4 C          -1.2044    0.4183    0.0008 C.ar    1  LIG1        0.0544
      5 S          -2.8255   -0.2483    0.0009 S.2     1  LIG1       -0.0936
      6 H          -2.8958   -2.7060   -0.0007 H       1  LIG1        0.0693
      7 H          -0.2600   -2.8072   -0.0014 H       1  LIG1        0.0623
      8 H           0.7994   -0.3920   -0.0002 H       1  LIG1        0.0630
      9 C          -0.9811    1.8410    0.0016 C.ar    1  LIG1        0.1422
     10 C          -1.8083    2.9385    0.0021 C.ar    1  LIG1       -0.0147
     11 C          -0.9689    4.0855    0.0027 C.ar    1  LIG1       -0.0147
     12 C           0.3273    3.6289    0.0025 C.ar    1  LIG1        0.1422
     13 O           0.3261    2.2571    0.0018 O.2     1  LIG1       -0.4538
     14 H          -2.8886    2.9223    0.0021 H       1  LIG1        0.0656
     15 H          -1.2801    5.1201    0.0032 H       1  LIG1        0.0656
     16 C           1.6159    4.2721    0.0028 C.ar    1  LIG1        0.0544
     17 C           2.8616    3.6817    0.0026 C.ar    1  LIG1       -0.0440
     18 C           3.9280    4.6243    0.0031 C.ar    1  LIG1       -0.0540
     19 C           3.4954    5.9216    0.0037 C.ar    1  LIG1       -0.0236
     20 S           1.7610    6.0188    0.0035 S.2     1  LIG1       -0.0936
     21 H           4.0824    6.8290    0.0041 H       1  LIG1        0.0693
     22 H           2.9942    2.6071    0.0022 H       1  LIG1        0.0630
     23 H           4.9760    4.3473    0.0031 H       1  LIG1        0.0623
@<TRIPOS>BOND
     1     7     2    1
     2     6     1    1
     3     2     1   ar
     4     2     3   ar
     5     1     5   ar
     6     8     3    1
     7     3     4   ar
     8     4     5   ar
     9     4     9    1
    10     9    13   ar
    11     9    10   ar
    12    13    12   ar
    13    14    10    1
    14    10    11   ar
    15    22    17    1
    16    12    11   ar
    17    12    16    1
    18    17    16   ar
    19    17    18   ar
    20    11    15    1
    21    16    20   ar
    22    23    18    1
    23    18    19   ar
    24    20    19   ar
    25    19    21    1
