@<TRIPOS>MOLECULE
mol_data/opt/b3lyp/geoms/mol2/512-48.out
 32 35 0 0 0
SMALL
GASTEIGER

@<TRIPOS>ATOM
      1 C          -2.3143   -1.9020   -0.0015 C.ar    1  LIG1       -0.0236
      2 C          -0.9468   -1.9379   -0.0009 C.ar    1  LIG1       -0.0540
      3 C          -0.3574   -0.6430    0.0002 C.ar    1  LIG1       -0.0440
      4 C          -1.2867    0.3753    0.0004 C.ar    1  LIG1        0.0544
      5 S          -2.9145   -0.2732   -0.0007 S.2     1  LIG1       -0.0936
      6 H          -3.0105   -2.7286   -0.0023 H       1  LIG1        0.0693
      7 H          -0.3762   -2.8593   -0.0012 H       1  LIG1        0.0623
      8 H           0.7094   -0.4571    0.0008 H       1  LIG1        0.0630
      9 C          -1.0496    1.7959    0.0013 C.ar    1  LIG1        0.1422
     10 C          -1.8715    2.8998    0.0013 C.ar    1  LIG1       -0.0147
     11 C          -1.0241    4.0375    0.0024 C.ar    1  LIG1       -0.0152
     12 C           0.2721    3.5760    0.0031 C.ar    1  LIG1        0.1357
     13 O           0.2558    2.2025    0.0024 O.2     1  LIG1       -0.4543
     14 H          -2.9517    2.8913    0.0005 H       1  LIG1        0.0656
     15 H          -1.3347    5.0718    0.0027 H       1  LIG1        0.0656
     16 C           2.7595    3.4796    0.0054 C.ar    1  LIG1       -0.0504
     17 C           3.9941    4.1112    0.0067 C.ar    1  LIG1       -0.0503
     18 C           1.5663    4.2291    0.0044 C.ar    1  LIG1        0.0173
     19 C           4.0806    5.5141    0.0069 C.ar    1  LIG1        0.0227
     20 H           4.9069    3.5271    0.0075 H       1  LIG1        0.0625
     21 C           1.6594    5.6360    0.0046 C.ar    1  LIG1       -0.0504
     22 C           2.8923    6.2675    0.0059 C.ar    1  LIG1       -0.0503
     23 H           0.7559    6.2370    0.0038 H       1  LIG1        0.0625
     24 H           2.7064    2.3970    0.0053 H       1  LIG1        0.0625
     25 H           2.9537    7.3496    0.0061 H       1  LIG1        0.0625
     26 C           5.3891    6.1836    0.0083 C.ar    1  LIG1        0.2033
     27 N           6.4998    5.4099    0.0090 N.ar    1  LIG1       -0.1258
     28 C           7.6716    7.3513    0.0107 C.ar    1  LIG1        0.1605
     29 N           5.4116    7.5368    0.0087 N.ar    1  LIG1       -0.1258
     30 N           7.6721    6.0119    0.0102 N.ar    1  LIG1       -0.1339
     31 N           6.5860    8.1353    0.0099 N.ar    1  LIG1       -0.1339
     32 H           8.6375    7.8454    0.0114 H       1  LIG1        0.1085
@<TRIPOS>BOND
     1     6     1    1
     2     1     2   ar
     3     1     5   ar
     4     7     2    1
     5     2     3   ar
     6     5     4   ar
     7     3     4   ar
     8     3     8    1
     9     4     9    1
    10    14    10    1
    11     9    10   ar
    12     9    13   ar
    13    10    11   ar
    14    13    12   ar
    15    11    15    1
    16    11    12   ar
    17    12    18    1
    18    23    21    1
    19    18    21   ar
    20    18    16   ar
    21    21    22   ar
    22    24    16    1
    23    16    17   ar
    24    22    25    1
    25    22    19   ar
    26    17    19   ar
    27    17    20    1
    28    19    26    1
    29    26    29   ar
    30    26    27   ar
    31    29    31   ar
    32    27    30   ar
    33    31    28   ar
    34    30    28   ar
    35    28    32    1
