@<TRIPOS>MOLECULE
mol_data/opt/b3lyp/geoms/mol2/512-12-.out
 23 25 0 0 0
SMALL
GASTEIGER

@<TRIPOS>ATOM
      1 C          -2.2154   -1.8546   -0.0005 C.ar    1  LIG1       -0.0236
      2 C          -0.8481   -1.8838   -0.0006 C.ar    1  LIG1       -0.0540
      3 C          -0.2627   -0.5864    0.0001 C.ar    1  LIG1       -0.0440
      4 C          -1.1954    0.4284    0.0008 C.ar    1  LIG1        0.0544
      5 S          -2.8213   -0.2263    0.0006 S.2     1  LIG1       -0.0936
      6 H          -2.9085   -2.6837   -0.0010 H       1  LIG1        0.0693
      7 H          -0.2737   -2.8030   -0.0012 H       1  LIG1        0.0623
      8 H           0.8029   -0.3934    0.0001 H       1  LIG1        0.0630
      9 C          -0.9603    1.8493    0.0016 C.ar    1  LIG1        0.1424
     10 C          -1.7771    2.9552    0.0020 C.ar    1  LIG1       -0.0146
     11 C          -0.9271    4.0940    0.0027 C.ar    1  LIG1       -0.0121
     12 C           0.3630    3.6194    0.0026 C.ar    1  LIG1        0.1706
     13 O           0.3506    2.2517    0.0019 O.2     1  LIG1       -0.4512
     14 H          -2.8576    2.9499    0.0019 H       1  LIG1        0.0656
     15 H          -1.2261    5.1319    0.0032 H       1  LIG1        0.0657
     16 C           1.6420    4.2774    0.0031 C.ar    1  LIG1        0.1697
     17 C           2.0047    5.6025    0.0035 C.ar    1  LIG1       -0.0128
     18 C           3.4325    5.6288    0.0039 C.ar    1  LIG1       -0.0232
     19 C           3.8385    4.3284    0.0038 C.ar    1  LIG1        0.0927
     20 O           2.7622    3.4916    0.0034 O.2     1  LIG1       -0.4598
     21 H           4.8043    3.8488    0.0040 H       1  LIG1        0.1029
     22 H           1.3340    6.4492    0.0034 H       1  LIG1        0.0656
     23 H           4.0696    6.5011    0.0043 H       1  LIG1        0.0649
@<TRIPOS>BOND
     1     7     2    1
     2     6     1    1
     3     2     1   ar
     4     2     3   ar
     5     1     5   ar
     6     3     8    1
     7     3     4   ar
     8     5     4   ar
     9     4     9    1
    10     9    13   ar
    11     9    10   ar
    12    14    10    1
    13    13    12   ar
    14    10    11   ar
    15    12    11   ar
    16    12    16    1
    17    11    15    1
    18    16    20   ar
    19    16    17   ar
    20    22    17    1
    21    20    19   ar
    22    17    18   ar
    23    19    18   ar
    24    19    21    1
    25    18    23    1
