@<TRIPOS>MOLECULE
mol_data/opt/b3lyp/geoms/mol2/512-13-.out
 24 26 0 0 0
SMALL
GASTEIGER

@<TRIPOS>ATOM
      1 C          -2.1756   -1.8701   -0.0002 C.ar    1  LIG1       -0.0236
      2 C          -0.8086   -1.8770   -0.0005 C.ar    1  LIG1       -0.0540
      3 C          -0.2441   -0.5699    0.0001 C.ar    1  LIG1       -0.0440
      4 C          -1.1914    0.4319    0.0008 C.ar    1  LIG1        0.0544
      5 S          -2.8069   -0.2506    0.0008 S.2     1  LIG1       -0.0936
      6 H          -2.8556   -2.7099   -0.0004 H       1  LIG1        0.0693
      7 H          -0.2188   -2.7865   -0.0011 H       1  LIG1        0.0623
      8 H           0.8191   -0.3654   -0.0000 H       1  LIG1        0.0630
      9 C          -0.9861    1.8564    0.0015 C.ar    1  LIG1        0.1423
     10 C          -1.8235    2.9445    0.0020 C.ar    1  LIG1       -0.0147
     11 C          -1.0016    4.1057    0.0025 C.ar    1  LIG1       -0.0138
     12 C           0.2999    3.6677    0.0024 C.ar    1  LIG1        0.1518
     13 O           0.3198    2.2939    0.0018 O.2     1  LIG1       -0.4528
     14 H          -2.9036    2.9142    0.0019 H       1  LIG1        0.0656
     15 H          -1.3268    5.1353    0.0029 H       1  LIG1        0.0656
     16 C           1.5782    4.3270    0.0028 C.ar    1  LIG1        0.0821
     17 C           1.9204    5.6747    0.0034 C.ar    1  LIG1       -0.0334
     18 C           3.3356    5.7560    0.0038 C.ar    1  LIG1       -0.0437
     19 C           3.8269    4.4648    0.0029 C.ar    1  LIG1        0.0023
     20 N           2.7563    3.6089    0.0026 N.ar    1  LIG1       -0.3583
     21 H           2.7966    2.6024    0.0023 H       1  LIG1        0.1654
     22 H           4.8400    4.0923    0.0027 H       1  LIG1        0.0807
     23 H           1.2225    6.4996    0.0036 H       1  LIG1        0.0640
     24 H           3.9302    6.6582    0.0044 H       1  LIG1        0.0633
@<TRIPOS>BOND
     1     7     2    1
     2     2     1   ar
     3     2     3   ar
     4     6     1    1
     5     1     5   ar
     6     8     3    1
     7     3     4   ar
     8     4     5   ar
     9     4     9    1
    10     9    13   ar
    11     9    10   ar
    12    13    12   ar
    13    14    10    1
    14    10    11   ar
    15    21    20    1
    16    12    11   ar
    17    12    16    1
    18    11    15    1
    19    20    16   ar
    20    20    19   ar
    21    22    19    1
    22    16    17   ar
    23    19    18   ar
    24    17    23    1
    25    17    18   ar
    26    18    24    1
