@<TRIPOS>MOLECULE
mol_data/opt/b3lyp/geoms/mol2/512.out
 16 17 0 0 0
SMALL
GASTEIGER

@<TRIPOS>ATOM
      1 C          -2.0337   -1.8296   -0.0003 C.ar    1  LIG1       -0.0236
      2 C          -0.6664   -1.7808   -0.0006 C.ar    1  LIG1       -0.0540
      3 C          -0.1603   -0.4509    0.0000 C.ar    1  LIG1       -0.0440
      4 C          -1.1511    0.5074    0.0008 C.ar    1  LIG1        0.0544
      5 S          -2.7342   -0.2422    0.0008 S.2     1  LIG1       -0.0936
      6 H          -2.6753   -2.6993   -0.0006 H       1  LIG1        0.0693
      7 H          -0.0377   -2.6637   -0.0012 H       1  LIG1        0.0623
      8 H           0.8957   -0.2068   -0.0001 H       1  LIG1        0.0630
      9 C          -1.0062    1.9437    0.0015 C.ar    1  LIG1        0.1413
     10 C           0.0793    2.7841    0.0021 C.ar    1  LIG1       -0.0154
     11 C          -0.4368    4.1169    0.0027 C.ar    1  LIG1       -0.0233
     12 C          -1.7935    4.0022    0.0025 C.ar    1  LIG1        0.0926
     13 O          -2.1575    2.6877    0.0017 O.2     1  LIG1       -0.4624
     14 H          -2.6034    4.7139    0.0027 H       1  LIG1        0.1029
     15 H           1.1174    2.4860    0.0021 H       1  LIG1        0.0655
     16 H           0.1297    5.0368    0.0033 H       1  LIG1        0.0649
@<TRIPOS>BOND
     1     7     2    1
     2     6     1    1
     3     2     1   ar
     4     2     3   ar
     5     1     5   ar
     6     8     3    1
     7     3     4   ar
     8     4     5   ar
     9     4     9    1
    10     9    13   ar
    11     9    10   ar
    12    13    12   ar
    13    10    15    1
    14    10    11   ar
    15    12    11   ar
    16    12    14    1
    17    11    16    1
