@<TRIPOS>MOLECULE
mol_data/opt/b3lyp/geoms/mol2/51212-.out
 23 25 0 0 0
SMALL
GASTEIGER

@<TRIPOS>ATOM
      1 C          -1.9805   -1.8998   -0.0002 C.ar    1  LIG1       -0.0236
      2 C          -0.6136   -1.8324   -0.0006 C.ar    1  LIG1       -0.0540
      3 C          -0.1249   -0.4970   -0.0000 C.ar    1  LIG1       -0.0440
      4 C          -1.1291    0.4493    0.0008 C.ar    1  LIG1        0.0544
      5 S          -2.7026   -0.3222    0.0009 S.2     1  LIG1       -0.0936
      6 H          -2.6101   -2.7782   -0.0006 H       1  LIG1        0.0693
      7 H           0.0266   -2.7070   -0.0013 H       1  LIG1        0.0623
      8 H           0.9280   -0.2394   -0.0003 H       1  LIG1        0.0630
      9 C          -1.0022    1.8838    0.0015 C.ar    1  LIG1        0.1424
     10 C           0.0741    2.7397    0.0020 C.ar    1  LIG1       -0.0146
     11 C          -0.4492    4.0618    0.0027 C.ar    1  LIG1       -0.0121
     12 C          -1.8167    3.9399    0.0025 C.ar    1  LIG1        0.1706
     13 O          -2.1633    2.6156    0.0018 O.2     1  LIG1       -0.4512
     14 H           1.1153    2.4523    0.0019 H       1  LIG1        0.0656
     15 H           0.1026    4.9897    0.0032 H       1  LIG1        0.0657
     16 C          -2.8909    4.8915    0.0030 C.ar    1  LIG1        0.1697
     17 C          -4.2571    4.7700    0.0031 C.ar    1  LIG1       -0.0128
     18 C          -4.7764    6.1018    0.0037 C.ar    1  LIG1       -0.0232
     19 C          -3.6987    6.9345    0.0038 C.ar    1  LIG1        0.0927
     20 O          -2.5386    6.2151    0.0035 O.2     1  LIG1       -0.4598
     21 H          -3.5845    8.0066    0.0041 H       1  LIG1        0.1029
     22 H          -4.8112    3.8436    0.0029 H       1  LIG1        0.0656
     23 H          -5.8153    6.3976    0.0039 H       1  LIG1        0.0649
@<TRIPOS>BOND
     1     7     2    1
     2     2     1   ar
     3     2     3   ar
     4     6     1    1
     5     8     3    1
     6     1     5   ar
     7     3     4   ar
     8     4     5   ar
     9     4     9    1
    10     9    13   ar
    11     9    10   ar
    12    13    12   ar
    13    14    10    1
    14    10    11   ar
    15    12    11   ar
    16    12    16    1
    17    11    15    1
    18    22    17    1
    19    16    17   ar
    20    16    20   ar
    21    17    18   ar
    22    20    19   ar
    23    18    19   ar
    24    18    23    1
    25    19    21    1
