@<TRIPOS>MOLECULE
mol_data/opt/b3lyp/geoms/mol2/51213-12.out
 31 34 0 0 0
SMALL
GASTEIGER

@<TRIPOS>ATOM
      1 C          -1.9203   -1.9768   -0.0001 C.ar    1  LIG1       -0.0236
      2 C          -0.5541   -1.8961   -0.0002 C.ar    1  LIG1       -0.0540
      3 C          -0.0781   -0.5561    0.0003 C.ar    1  LIG1       -0.0440
      4 C          -1.0915    0.3809    0.0008 C.ar    1  LIG1        0.0544
      5 S          -2.6575   -0.4059    0.0007 S.2     1  LIG1       -0.0936
      6 H          -2.5415   -2.8612   -0.0005 H       1  LIG1        0.0693
      7 H           0.0945   -2.7644   -0.0007 H       1  LIG1        0.0623
      8 H           0.9722   -0.2889    0.0003 H       1  LIG1        0.0630
      9 C          -0.9793    1.8160    0.0015 C.ar    1  LIG1        0.1423
     10 C           0.0879    2.6820    0.0021 C.ar    1  LIG1       -0.0147
     11 C          -0.4503    3.9980    0.0026 C.ar    1  LIG1       -0.0138
     12 C          -1.8207    3.8679    0.0021 C.ar    1  LIG1        0.1518
     13 O          -2.1471    2.5378    0.0015 O.2     1  LIG1       -0.4528
     14 H           1.1322    2.4065    0.0023 H       1  LIG1        0.0656
     15 H           0.1112    4.9215    0.0032 H       1  LIG1        0.0656
     16 C          -2.9122    4.7996    0.0023 C.ar    1  LIG1        0.0826
     17 C          -4.2876    4.5849    0.0026 C.ar    1  LIG1       -0.0327
     18 C          -4.9206    5.8456    0.0027 C.ar    1  LIG1       -0.0327
     19 C          -3.9277    6.8204    0.0026 C.ar    1  LIG1        0.0826
     20 N          -2.7140    6.1659    0.0023 N.ar    1  LIG1       -0.3494
     21 H          -1.8150    6.6190    0.0023 H       1  LIG1        0.1661
     22 H          -4.7623    3.6151    0.0026 H       1  LIG1        0.0640
     23 H          -5.9819    6.0439    0.0029 H       1  LIG1        0.0640
     24 C          -4.0246    8.2559    0.0026 C.ar    1  LIG1        0.1509
     25 C          -3.1035    9.2754    0.0023 C.ar    1  LIG1       -0.0144
     26 C          -3.8480   10.4966    0.0026 C.ar    1  LIG1       -0.0233
     27 C          -5.1617   10.1424    0.0030 C.ar    1  LIG1        0.0926
     28 O          -5.2886    8.7830    0.0030 O.2     1  LIG1       -0.4615
     29 H          -6.0850   10.6993    0.0033 H       1  LIG1        0.1029
     30 H          -2.0272    9.1761    0.0019 H       1  LIG1        0.0656
     31 H          -3.4532   11.5021    0.0025 H       1  LIG1        0.0649
@<TRIPOS>BOND
     1     7     2    1
     2     6     1    1
     3     2     1   ar
     4     2     3   ar
     5     1     5   ar
     6     8     3    1
     7     3     4   ar
     8     5     4   ar
     9     4     9    1
    10     9    13   ar
    11     9    10   ar
    12    13    12   ar
    13    30    25    1
    14    10    14    1
    15    10    11   ar
    16    12    16    1
    17    12    11   ar
    18    20    21    1
    19    20    16   ar
    20    20    19   ar
    21    25    26   ar
    22    25    24   ar
    23    16    17   ar
    24    31    26    1
    25    11    15    1
    26    19    24    1
    27    19    18   ar
    28    17    22    1
    29    17    18   ar
    30    26    27   ar
    31    24    28   ar
    32    18    23    1
    33    27    28   ar
    34    27    29    1
