@<TRIPOS>MOLECULE
mol_data/opt/b3lyp/geoms/mol2/51213-.out
 24 26 0 0 0
SMALL
GASTEIGER

@<TRIPOS>ATOM
      1 C          -1.9619   -1.9187   -0.0003 C.ar    1  LIG1       -0.0236
      2 C          -0.5952   -1.8491   -0.0005 C.ar    1  LIG1       -0.0540
      3 C          -0.1081   -0.5129    0.0001 C.ar    1  LIG1       -0.0440
      4 C          -1.1133    0.4325    0.0007 C.ar    1  LIG1        0.0544
      5 S          -2.6858   -0.3413    0.0007 S.2     1  LIG1       -0.0936
      6 H          -2.5905   -2.7979   -0.0007 H       1  LIG1        0.0693
      7 H           0.0464   -2.7229   -0.0011 H       1  LIG1        0.0623
      8 H           0.9445   -0.2543   -0.0000 H       1  LIG1        0.0630
      9 C          -0.9899    1.8672    0.0015 C.ar    1  LIG1        0.1423
     10 C           0.0823    2.7257    0.0020 C.ar    1  LIG1       -0.0147
     11 C          -0.4481    4.0462    0.0026 C.ar    1  LIG1       -0.0138
     12 C          -1.8182    3.9247    0.0023 C.ar    1  LIG1        0.1518
     13 O          -2.1530    2.5975    0.0016 O.2     1  LIG1       -0.4528
     14 H           1.1250    2.4436    0.0021 H       1  LIG1        0.0656
     15 H           0.1192    4.9663    0.0033 H       1  LIG1        0.0656
     16 C          -2.9068    4.8647    0.0027 C.ar    1  LIG1        0.0821
     17 C          -4.2810    4.6605    0.0031 C.ar    1  LIG1       -0.0334
     18 C          -4.9047    5.9339    0.0030 C.ar    1  LIG1       -0.0437
     19 C          -3.9058    6.8863    0.0033 C.ar    1  LIG1        0.0023
     20 N          -2.6997    6.2309    0.0027 N.ar    1  LIG1       -0.3583
     21 H          -1.7977    6.6781    0.0026 H       1  LIG1        0.1654
     22 H          -3.9533    7.9647    0.0036 H       1  LIG1        0.0807
     23 H          -4.7633    3.6944    0.0032 H       1  LIG1        0.0640
     24 H          -5.9667    6.1328    0.0029 H       1  LIG1        0.0633
@<TRIPOS>BOND
     1     7     2    1
     2     6     1    1
     3     2     1   ar
     4     2     3   ar
     5     1     5   ar
     6     8     3    1
     7     3     4   ar
     8     5     4   ar
     9     4     9    1
    10     9    13   ar
    11     9    10   ar
    12    13    12   ar
    13    10    14    1
    14    10    11   ar
    15    12    11   ar
    16    12    16    1
    17    21    20    1
    18    11    15    1
    19    16    20   ar
    20    16    17   ar
    21    20    19   ar
    22    24    18    1
    23    18    17   ar
    24    18    19   ar
    25    17    23    1
    26    19    22    1
