@<TRIPOS>MOLECULE
mol_data/opt/b3lyp/geoms/mol2/512138.out
 30 33 0 0 0
SMALL
GASTEIGER

@<TRIPOS>ATOM
      1 C          -1.8957   -1.9441   -0.0002 C.ar    1  LIG1       -0.0236
      2 C          -0.5291   -1.8632   -0.0008 C.ar    1  LIG1       -0.0540
      3 C          -0.0542   -0.5233   -0.0003 C.ar    1  LIG1       -0.0440
      4 C          -1.0690    0.4121    0.0007 C.ar    1  LIG1        0.0544
      5 S          -2.6341   -0.3750    0.0012 S.2     1  LIG1       -0.0936
      6 H          -2.5168   -2.8287   -0.0004 H       1  LIG1        0.0693
      7 H           0.1195   -2.7315   -0.0016 H       1  LIG1        0.0623
      8 H           0.9959   -0.2549   -0.0007 H       1  LIG1        0.0630
      9 C          -0.9550    1.8467    0.0014 C.ar    1  LIG1        0.1423
     10 C           0.1140    2.7130    0.0017 C.ar    1  LIG1       -0.0147
     11 C          -0.4194    4.0293    0.0025 C.ar    1  LIG1       -0.0138
     12 C          -1.7877    3.9023    0.0026 C.ar    1  LIG1        0.1518
     13 O          -2.1210    2.5702    0.0020 O.2     1  LIG1       -0.4528
     14 H           1.1575    2.4348    0.0014 H       1  LIG1        0.0656
     15 H           0.1339    4.9569    0.0029 H       1  LIG1        0.0656
     16 C          -2.8749    4.8391    0.0034 C.ar    1  LIG1        0.0826
     17 C          -2.8721    6.2416    0.0036 C.ar    1  LIG1       -0.0327
     18 C          -4.2085    6.6685    0.0045 C.ar    1  LIG1       -0.0325
     19 C          -5.0134    5.5279    0.0044 C.ar    1  LIG1        0.0880
     20 N          -4.1796    4.4313    0.0039 N.ar    1  LIG1       -0.3492
     21 H          -4.5074    3.4760    0.0038 H       1  LIG1        0.1661
     22 H          -1.9907    6.8662    0.0033 H       1  LIG1        0.0640
     23 H          -4.5767    7.6832    0.0049 H       1  LIG1        0.0640
     24 C          -6.4415    5.3717    0.0050 C.ar    1  LIG1        0.2193
     25 N          -7.2111    6.4911    0.0056 N.ar    1  LIG1       -0.1243
     26 C          -8.9793    5.0625    0.0063 C.ar    1  LIG1        0.1605
     27 N          -6.9255    4.1035    0.0050 N.ar    1  LIG1       -0.1243
     28 N          -8.5147    6.3232    0.0062 N.ar    1  LIG1       -0.1338
     29 N          -8.2342    3.9502    0.0056 N.ar    1  LIG1       -0.1338
     30 H         -10.0564    4.9354    0.0065 H       1  LIG1        0.1085
@<TRIPOS>BOND
     1     7     2    1
     2     2     3   ar
     3     2     1   ar
     4     8     3    1
     5     6     1    1
     6     3     4   ar
     7     1     5   ar
     8     4     5   ar
     9     4     9    1
    10    14    10    1
    11     9    10   ar
    12     9    13   ar
    13    10    11   ar
    14    13    12   ar
    15    11    12   ar
    16    11    15    1
    17    12    16    1
    18    22    17    1
    19    16    17   ar
    20    16    20   ar
    21    17    18   ar
    22    21    20    1
    23    20    19   ar
    24    19    18   ar
    25    19    24    1
    26    18    23    1
    27    27    24   ar
    28    27    29   ar
    29    24    25   ar
    30    29    26   ar
    31    25    28   ar
    32    28    26   ar
    33    26    30    1
