@<TRIPOS>MOLECULE
mol_data/opt/b3lyp/geoms/mol2/5124-8.out
 32 35 0 0 0
SMALL
GASTEIGER

@<TRIPOS>ATOM
      1 C          -1.8633   -1.9986   -0.0002 C.ar    1  LIG1       -0.0236
      2 C          -0.4972   -1.9089    0.0003 C.ar    1  LIG1       -0.0540
      3 C          -0.0321   -0.5657    0.0009 C.ar    1  LIG1       -0.0440
      4 C          -1.0533    0.3624    0.0010 C.ar    1  LIG1        0.0544
      5 S          -2.6128   -0.4352    0.0003 S.2     1  LIG1       -0.0936
      6 H          -2.4778   -2.8877   -0.0007 H       1  LIG1        0.0693
      7 H           0.1573   -2.7728    0.0001 H       1  LIG1        0.0623
      8 H           1.0161   -0.2898    0.0012 H       1  LIG1        0.0630
      9 C          -0.9484    1.7985    0.0015 C.ar    1  LIG1        0.1422
     10 C           0.1203    2.6666    0.0025 C.ar    1  LIG1       -0.0147
     11 C          -0.4219    3.9772    0.0026 C.ar    1  LIG1       -0.0152
     12 C          -1.7924    3.8501    0.0018 C.ar    1  LIG1        0.1357
     13 O          -2.1124    2.5143    0.0011 O.2     1  LIG1       -0.4543
     14 H           1.1648    2.3927    0.0030 H       1  LIG1        0.0656
     15 H           0.1340    4.9031    0.0034 H       1  LIG1        0.0656
     16 C          -4.2273    4.3664    0.0007 C.ar    1  LIG1       -0.0504
     17 C          -5.2686    5.2825    0.0005 C.ar    1  LIG1       -0.0503
     18 C          -2.8866    4.8005    0.0015 C.ar    1  LIG1        0.0173
     19 C          -5.0077    6.6636    0.0009 C.ar    1  LIG1        0.0227
     20 H          -6.2969    4.9405   -0.0001 H       1  LIG1        0.0625
     21 C          -2.6309    6.1871    0.0019 C.ar    1  LIG1       -0.0504
     22 C          -3.6707    7.1022    0.0016 C.ar    1  LIG1       -0.0503
     23 H          -1.6074    6.5479    0.0024 H       1  LIG1        0.0625
     24 H          -4.4422    3.3040    0.0004 H       1  LIG1        0.0625
     25 H          -3.4645    8.1662    0.0020 H       1  LIG1        0.0625
     26 C          -6.1114    7.6343    0.0006 C.ar    1  LIG1        0.2033
     27 N          -5.8002    8.9514    0.0009 N.ar    1  LIG1       -0.1258
     28 C          -8.0363    9.3278    0.0003 C.ar    1  LIG1        0.1605
     29 N          -7.3783    7.1577    0.0002 N.ar    1  LIG1       -0.1258
     30 N          -6.7912    9.8206    0.0006 N.ar    1  LIG1       -0.1339
     31 N          -8.3664    8.0297   -0.0001 N.ar    1  LIG1       -0.1339
     32 H          -8.8510   10.0444   -0.0002 H       1  LIG1        0.1085
@<TRIPOS>BOND
     1     6     1    1
     2    32    28    1
     3     1     2   ar
     4     1     5   ar
     5    20    17    1
     6    31    29   ar
     7    31    28   ar
     8     7     2    1
     9    29    26   ar
    10     2     3   ar
    11    28    30   ar
    12     5     4   ar
    13    24    16    1
    14    17    16   ar
    15    17    19   ar
    16    30    27   ar
    17    26    27   ar
    18    26    19    1
    19    16    18   ar
    20     3     4   ar
    21     3     8    1
    22    19    22   ar
    23     4     9    1
    24    13     9   ar
    25    13    12   ar
    26    18    12    1
    27    18    21   ar
    28     9    10   ar
    29    22    21   ar
    30    22    25    1
    31    12    11   ar
    32    21    23    1
    33    10    11   ar
    34    10    14    1
    35    11    15    1
