@<TRIPOS>MOLECULE
mol_data/opt/b3lyp/geoms/mol2/5124-.out
 26 28 0 0 0
SMALL
GASTEIGER

@<TRIPOS>ATOM
      1 C          -1.9393   -1.9437   -0.0003 C.ar    1  LIG1       -0.0236
      2 C          -0.5727   -1.8695   -0.0003 C.ar    1  LIG1       -0.0540
      3 C          -0.0910   -0.5314    0.0003 C.ar    1  LIG1       -0.0440
      4 C          -1.0999    0.4096    0.0007 C.ar    1  LIG1        0.0544
      5 S          -2.6690   -0.3698    0.0004 S.2     1  LIG1       -0.0936
      6 H          -2.5645   -2.8253   -0.0008 H       1  LIG1        0.0693
      7 H           0.0720   -2.7409   -0.0007 H       1  LIG1        0.0623
      8 H           0.9604   -0.2682    0.0004 H       1  LIG1        0.0630
      9 C          -0.9805    1.8452    0.0014 C.ar    1  LIG1        0.1422
     10 C           0.0925    2.7048    0.0021 C.ar    1  LIG1       -0.0147
     11 C          -0.4414    4.0219    0.0025 C.ar    1  LIG1       -0.0152
     12 C          -1.8108    3.9045    0.0020 C.ar    1  LIG1        0.1357
     13 O          -2.1404    2.5719    0.0013 O.2     1  LIG1       -0.4543
     14 H           1.1353    2.4237    0.0024 H       1  LIG1        0.0656
     15 H           0.1214    4.9437    0.0032 H       1  LIG1        0.0656
     16 C          -4.2442    4.4356    0.0016 C.ar    1  LIG1       -0.0511
     17 C          -5.2827    5.3633    0.0017 C.ar    1  LIG1       -0.0611
     18 C          -2.9044    4.8647    0.0020 C.ar    1  LIG1        0.0173
     19 C          -5.0100    6.7323    0.0021 C.ar    1  LIG1       -0.0617
     20 H          -6.3111    5.0137    0.0014 H       1  LIG1        0.0618
     21 C          -2.6398    6.2471    0.0024 C.ar    1  LIG1       -0.0511
     22 C          -3.6823    7.1680    0.0025 C.ar    1  LIG1       -0.0611
     23 H          -1.6131    6.6001    0.0027 H       1  LIG1        0.0625
     24 H          -5.8220    7.4530    0.0022 H       1  LIG1        0.0618
     25 H          -4.4616    3.3735    0.0013 H       1  LIG1        0.0625
     26 H          -3.4582    8.2308    0.0028 H       1  LIG1        0.0618
@<TRIPOS>BOND
     1     6     1    1
     2     7     2    1
     3     1     2   ar
     4     1     5   ar
     5     2     3   ar
     6     3     8    1
     7     3     4   ar
     8     5     4   ar
     9     4     9    1
    10    13     9   ar
    11    13    12   ar
    12    25    16    1
    13    20    17    1
    14     9    10   ar
    15    16    17   ar
    16    16    18   ar
    17    17    19   ar
    18    12    18    1
    19    12    11   ar
    20    18    21   ar
    21    19    24    1
    22    19    22   ar
    23    10    14    1
    24    10    11   ar
    25    21    22   ar
    26    21    23    1
    27    22    26    1
    28    11    15    1
