@<TRIPOS>MOLECULE
mol_data/opt/b3lyp/geoms/mol2/5124.out
 26 28 0 0 0
SMALL
GASTEIGER

@<TRIPOS>ATOM
      1 C          -1.9089   -1.9541   -0.0005 C.ar    1  LIG1       -0.0236
      2 C          -0.5429   -1.8685   -0.0011 C.ar    1  LIG1       -0.0540
      3 C          -0.0724   -0.5265   -0.0005 C.ar    1  LIG1       -0.0440
      4 C          -1.0891    0.4061    0.0007 C.ar    1  LIG1        0.0544
      5 S          -2.6517   -0.3863    0.0011 S.2     1  LIG1       -0.0936
      6 H          -2.5268   -2.8409   -0.0008 H       1  LIG1        0.0693
      7 H           0.1089   -2.7345   -0.0021 H       1  LIG1        0.0623
      8 H           0.9768   -0.2545   -0.0009 H       1  LIG1        0.0630
      9 C          -0.9816    1.8427    0.0016 C.ar    1  LIG1        0.1422
     10 C           0.0842    2.7111    0.0020 C.ar    1  LIG1       -0.0147
     11 C          -0.4606    4.0237    0.0030 C.ar    1  LIG1       -0.0152
     12 C          -1.8290    3.8949    0.0031 C.ar    1  LIG1        0.1357
     13 O          -2.1475    2.5597    0.0023 O.2     1  LIG1       -0.4543
     14 H           1.1293    2.4387    0.0016 H       1  LIG1        0.0656
     15 H           0.0945    4.9502    0.0036 H       1  LIG1        0.0656
     16 C          -2.6775    6.2306    0.0045 C.ar    1  LIG1       -0.0511
     17 C          -3.7277    7.1427    0.0053 C.ar    1  LIG1       -0.0611
     18 C          -2.9306    4.8459    0.0040 C.ar    1  LIG1        0.0173
     19 C          -5.0516    6.6960    0.0056 C.ar    1  LIG1       -0.0617
     20 H          -3.5123    8.2073    0.0057 H       1  LIG1        0.0618
     21 C          -4.2667    4.4058    0.0043 C.ar    1  LIG1       -0.0511
     22 C          -5.3130    5.3247    0.0051 C.ar    1  LIG1       -0.0611
     23 H          -4.4755    3.3419    0.0039 H       1  LIG1        0.0625
     24 H          -5.8698    7.4098    0.0063 H       1  LIG1        0.0618
     25 H          -1.6537    6.5919    0.0043 H       1  LIG1        0.0625
     26 H          -6.3385    4.9667    0.0053 H       1  LIG1        0.0618
@<TRIPOS>BOND
     1     7     2    1
     2     2     1   ar
     3     2     3   ar
     4     8     3    1
     5     6     1    1
     6     1     5   ar
     7     3     4   ar
     8     4     5   ar
     9     4     9    1
    10     9    10   ar
    11     9    13   ar
    12    14    10    1
    13    10    11   ar
    14    13    12   ar
    15    11    12   ar
    16    11    15    1
    17    12    18    1
    18    23    21    1
    19    18    21   ar
    20    18    16   ar
    21    25    16    1
    22    21    22   ar
    23    16    17   ar
    24    22    26    1
    25    22    19   ar
    26    17    19   ar
    27    17    20    1
    28    19    24    1
