@<TRIPOS>MOLECULE
mol_data/opt/b3lyp/geoms/mol2/51254.out
 33 36 0 0 0
SMALL
GASTEIGER

@<TRIPOS>ATOM
      1 C          -1.7944   -1.9960    0.0004 C.ar    1  LIG1       -0.0236
      2 C          -0.4285   -1.9059   -0.0004 C.ar    1  LIG1       -0.0540
      3 C           0.0372   -0.5628   -0.0003 C.ar    1  LIG1       -0.0440
      4 C          -0.9836    0.3663    0.0007 C.ar    1  LIG1        0.0544
      5 S          -2.5437   -0.4314    0.0014 S.2     1  LIG1       -0.0936
      6 H          -2.4093   -2.8848    0.0005 H       1  LIG1        0.0693
      7 H           0.2261   -2.7697   -0.0012 H       1  LIG1        0.0623
      8 H           1.0854   -0.2874   -0.0009 H       1  LIG1        0.0630
      9 C          -0.8785    1.8015    0.0011 C.ar    1  LIG1        0.1422
     10 C           0.1871    2.6724    0.0011 C.ar    1  LIG1       -0.0147
     11 C          -0.3534    3.9849    0.0018 C.ar    1  LIG1       -0.0147
     12 C          -1.7238    3.8524    0.0021 C.ar    1  LIG1        0.1423
     13 O          -2.0461    2.5195    0.0017 O.2     1  LIG1       -0.4538
     14 H           1.2321    2.3993    0.0008 H       1  LIG1        0.0656
     15 H           0.1960    4.9149    0.0020 H       1  LIG1        0.0656
     16 C          -2.8069    4.7960    0.0028 C.ar    1  LIG1        0.0550
     17 C          -2.7368    6.1752    0.0026 C.ar    1  LIG1       -0.0434
     18 C          -4.0054    6.7998    0.0035 C.ar    1  LIG1       -0.0462
     19 C          -5.0692    5.9196    0.0043 C.ar    1  LIG1        0.0200
     20 S          -4.4745    4.2663    0.0040 S.2     1  LIG1       -0.0852
     21 H          -1.7994    6.7193    0.0019 H       1  LIG1        0.0630
     22 H          -4.1264    7.8764    0.0035 H       1  LIG1        0.0629
     23 C          -6.9645    7.5470    0.0067 C.ar    1  LIG1       -0.0535
     24 C          -8.3250    7.8372    0.0076 C.ar    1  LIG1       -0.0612
     25 C          -6.5056    6.2144    0.0053 C.ar    1  LIG1       -0.0113
     26 C          -9.2693    6.8084    0.0071 C.ar    1  LIG1       -0.0617
     27 H          -8.6493    8.8739    0.0087 H       1  LIG1        0.0618
     28 C          -7.4712    5.1900    0.0048 C.ar    1  LIG1       -0.0535
     29 C          -8.8323    5.4833    0.0057 C.ar    1  LIG1       -0.0612
     30 H          -7.1571    4.1503    0.0036 H       1  LIG1        0.0624
     31 H         -10.3307    7.0368    0.0078 H       1  LIG1        0.0618
     32 H          -6.2508    8.3641    0.0072 H       1  LIG1        0.0624
     33 H          -9.5535    4.6712    0.0053 H       1  LIG1        0.0618
@<TRIPOS>BOND
     1     7     2    1
     2     8     3    1
     3     2     3   ar
     4     2     1   ar
     5     3     4   ar
     6     1     6    1
     7     1     5   ar
     8     4     9    1
     9     4     5   ar
    10    14    10    1
    11     9    10   ar
    12     9    13   ar
    13    10    11   ar
    14    13    12   ar
    15    11    15    1
    16    11    12   ar
    17    21    17    1
    18    12    16    1
    19    17    16   ar
    20    17    18   ar
    21    16    20   ar
    22    22    18    1
    23    18    19   ar
    24    30    28    1
    25    20    19   ar
    26    19    25    1
    27    28    25   ar
    28    28    29   ar
    29    25    23   ar
    30    33    29    1
    31    29    26   ar
    32    23    32    1
    33    23    24   ar
    34    26    24   ar
    35    26    31    1
    36    24    27    1
