@<TRIPOS>MOLECULE
mol_data/opt/b3lyp/geoms/mol2/5125-.out
 23 25 0 0 0
SMALL
GASTEIGER

@<TRIPOS>ATOM
      1 C          -1.9312   -1.9425   -0.0003 C.ar    1  LIG1       -0.0236
      2 C          -0.5652   -1.8578   -0.0007 C.ar    1  LIG1       -0.0540
      3 C          -0.0936   -0.5163   -0.0002 C.ar    1  LIG1       -0.0440
      4 C          -1.1099    0.4171    0.0007 C.ar    1  LIG1        0.0544
      5 S          -2.6734   -0.3744    0.0010 S.2     1  LIG1       -0.0936
      6 H          -2.5496   -2.8289   -0.0005 H       1  LIG1        0.0693
      7 H           0.0860   -2.7243   -0.0015 H       1  LIG1        0.0623
      8 H           0.9558   -0.2454   -0.0005 H       1  LIG1        0.0630
      9 C          -1.0008    1.8529    0.0015 C.ar    1  LIG1        0.1422
     10 C           0.0662    2.7202    0.0019 C.ar    1  LIG1       -0.0147
     11 C          -0.4739    4.0345    0.0027 C.ar    1  LIG1       -0.0147
     12 C          -1.8423    3.9040    0.0027 C.ar    1  LIG1        0.1422
     13 O          -2.1685    2.5715    0.0019 O.2     1  LIG1       -0.4538
     14 H           1.1107    2.4456    0.0017 H       1  LIG1        0.0656
     15 H           0.0771    4.9640    0.0032 H       1  LIG1        0.0656
     16 C          -2.9384    4.8377    0.0033 C.ar    1  LIG1        0.0544
     17 C          -4.2897    4.5648    0.0037 C.ar    1  LIG1       -0.0440
     18 C          -5.0970    5.7370    0.0042 C.ar    1  LIG1       -0.0540
     19 C          -4.3645    6.8918    0.0042 C.ar    1  LIG1       -0.0236
     20 S          -2.6576    6.5681    0.0036 S.2     1  LIG1       -0.0936
     21 H          -4.7153    7.9138    0.0046 H       1  LIG1        0.0693
     22 H          -4.6777    3.5538    0.0036 H       1  LIG1        0.0630
     23 H          -6.1808    5.7209    0.0046 H       1  LIG1        0.0623
@<TRIPOS>BOND
     1     7     2    1
     2     2     1   ar
     3     2     3   ar
     4     6     1    1
     5     8     3    1
     6     1     5   ar
     7     3     4   ar
     8     4     5   ar
     9     4     9    1
    10     9    10   ar
    11     9    13   ar
    12    14    10    1
    13    10    11   ar
    14    13    12   ar
    15    12    11   ar
    16    12    16    1
    17    11    15    1
    18    16    20   ar
    19    16    17   ar
    20    20    19   ar
    21    22    17    1
    22    17    18   ar
    23    19    18   ar
    24    19    21    1
    25    18    23    1
