@<TRIPOS>MOLECULE
mol_data/opt/b3lyp/geoms/mol2/513-512-.out
 31 34 0 0 0
SMALL
GASTEIGER

@<TRIPOS>ATOM
      1 C          -2.2359   -1.9639    0.0006 C.ar    1  LIG1       -0.0237
      2 C          -0.8695   -1.9751    0.0000 C.ar    1  LIG1       -0.0541
      3 C          -0.3032   -0.6683    0.0001 C.ar    1  LIG1       -0.0455
      4 C          -1.2443    0.3414    0.0008 C.ar    1  LIG1        0.0355
      5 S          -2.8598   -0.3426    0.0012 S.2     1  LIG1       -0.0952
      6 H          -2.9181   -2.8019    0.0006 H       1  LIG1        0.0693
      7 H          -0.2805   -2.8849   -0.0004 H       1  LIG1        0.0623
      8 H           0.7669   -0.4910   -0.0003 H       1  LIG1        0.0629
      9 C          -1.0513    1.7731    0.0010 C.ar    1  LIG1        0.0536
     10 C          -1.9669    2.8232    0.0014 C.ar    1  LIG1       -0.0353
     11 C          -1.2436    4.0322    0.0016 C.ar    1  LIG1       -0.0353
     12 C           0.1153    3.7213    0.0013 C.ar    1  LIG1        0.0536
     13 N           0.2050    2.3434    0.0009 N.ar    1  LIG1       -0.3533
     14 H           1.0680    1.8259    0.0010 H       1  LIG1        0.1659
     15 H          -3.0423    2.7161    0.0016 H       1  LIG1        0.0639
     16 H          -1.6579    5.0304    0.0018 H       1  LIG1        0.0639
     17 C           1.2840    4.5651    0.0013 C.ar    1  LIG1        0.0362
     18 C           2.6201    4.2142    0.0006 C.ar    1  LIG1       -0.0448
     19 C           3.5046    5.3210    0.0009 C.ar    1  LIG1       -0.0433
     20 C           2.8589    6.5382    0.0017 C.ar    1  LIG1        0.0550
     21 S           1.1194    6.3140    0.0023 S.2     1  LIG1       -0.0837
     22 H           2.9689    3.1871   -0.0001 H       1  LIG1        0.0630
     23 H           4.5842    5.2373    0.0004 H       1  LIG1        0.0630
     24 C           3.4409    7.8554    0.0021 C.ar    1  LIG1        0.1413
     25 C           2.9253    9.1283    0.0024 C.ar    1  LIG1       -0.0154
     26 C           4.0411   10.0210    0.0027 C.ar    1  LIG1       -0.0233
     27 C           5.1554    9.2388    0.0025 C.ar    1  LIG1        0.0926
     28 O           4.8119    7.9185    0.0022 O.2     1  LIG1       -0.4624
     29 H           6.2134    9.4481    0.0026 H       1  LIG1        0.1029
     30 H           1.8777    9.3929    0.0024 H       1  LIG1        0.0655
     31 H           4.0144   11.1009    0.0030 H       1  LIG1        0.0649
@<TRIPOS>BOND
     1     7     2    1
     2     8     3    1
     3    22    18    1
     4     2     3   ar
     5     2     1   ar
     6     3     4   ar
     7    23    19    1
     8     1     6    1
     9     1     5   ar
    10    18    19   ar
    11    18    17   ar
    12     4     9    1
    13     4     5   ar
    14    19    20   ar
    15    13    14    1
    16    13     9   ar
    17    13    12   ar
    18     9    10   ar
    19    12    17    1
    20    12    11   ar
    21    17    21   ar
    22    10    15    1
    23    10    11   ar
    24    11    16    1
    25    20    24    1
    26    20    21   ar
    27    24    28   ar
    28    24    25   ar
    29    28    27   ar
    30    25    30    1
    31    25    26   ar
    32    27    29    1
    33    27    26   ar
    34    26    31    1
