@<TRIPOS>MOLECULE
mol_data/opt/b3lyp/geoms/mol2/513-48.out
 33 36 0 0 0
SMALL
GASTEIGER

@<TRIPOS>ATOM
      1 C          -2.2379   -1.9644   -0.0009 C.ar    1  LIG1       -0.0237
      2 C          -0.8711   -1.9675   -0.0005 C.ar    1  LIG1       -0.0541
      3 C          -0.3142   -0.6572    0.0002 C.ar    1  LIG1       -0.0455
      4 C          -1.2627    0.3452    0.0003 C.ar    1  LIG1        0.0355
      5 S          -2.8730   -0.3490   -0.0003 S.2     1  LIG1       -0.0952
      6 H          -2.9140   -2.8075   -0.0015 H       1  LIG1        0.0693
      7 H          -0.2764   -2.8737   -0.0008 H       1  LIG1        0.0623
      8 H           0.7548   -0.4726    0.0005 H       1  LIG1        0.0629
      9 C          -1.0803    1.7793    0.0010 C.ar    1  LIG1        0.0536
     10 C          -2.0073    2.8215    0.0010 C.ar    1  LIG1       -0.0353
     11 C          -1.2937    4.0336    0.0017 C.ar    1  LIG1       -0.0358
     12 C           0.0704    3.7382    0.0022 C.ar    1  LIG1        0.0469
     13 N           0.1672    2.3597    0.0017 N.ar    1  LIG1       -0.3537
     14 H           1.0306    1.8432    0.0021 H       1  LIG1        0.1659
     15 H          -3.0817    2.7048    0.0005 H       1  LIG1        0.0639
     16 H          -1.7241    5.0239    0.0018 H       1  LIG1        0.0639
     17 C           2.5505    4.1173    0.0037 C.ar    1  LIG1       -0.0520
     18 C           3.6446    4.9690    0.0045 C.ar    1  LIG1       -0.0503
     19 C           1.2298    4.6145    0.0031 C.ar    1  LIG1       -0.0017
     20 C           3.4657    6.3625    0.0048 C.ar    1  LIG1        0.0227
     21 H           4.6507    4.5664    0.0049 H       1  LIG1        0.0625
     22 C           1.0647    6.0170    0.0033 C.ar    1  LIG1       -0.0520
     23 C           2.1538    6.8717    0.0042 C.ar    1  LIG1       -0.0503
     24 H           0.0654    6.4383    0.0029 H       1  LIG1        0.0624
     25 H           2.7383    3.0476    0.0035 H       1  LIG1        0.0624
     26 H           2.0058    7.9453    0.0044 H       1  LIG1        0.0625
     27 C           4.6223    7.2664    0.0056 C.ar    1  LIG1        0.2033
     28 N           5.8600    6.7170    0.0059 N.ar    1  LIG1       -0.1258
     29 C           6.6431    8.8450    0.0072 C.ar    1  LIG1        0.1605
     30 N           4.3885    8.6001    0.0061 N.ar    1  LIG1       -0.1258
     31 N           6.8970    7.5299    0.0067 N.ar    1  LIG1       -0.1339
     32 N           5.4286    9.4094    0.0068 N.ar    1  LIG1       -0.1339
     33 H           7.4980    9.5130    0.0075 H       1  LIG1        0.1085
@<TRIPOS>BOND
     1     6     1    1
     2     1     2   ar
     3     1     5   ar
     4     7     2    1
     5     2     3   ar
     6     5     4   ar
     7     3     4   ar
     8     3     8    1
     9     4     9    1
    10    15    10    1
    11     9    10   ar
    12     9    13   ar
    13    10    11   ar
    14    11    16    1
    15    11    12   ar
    16    13    14    1
    17    13    12   ar
    18    12    19    1
    19    24    22    1
    20    19    22   ar
    21    19    17   ar
    22    22    23   ar
    23    25    17    1
    24    17    18   ar
    25    23    26    1
    26    23    20   ar
    27    18    20   ar
    28    18    21    1
    29    20    27    1
    30    27    28   ar
    31    27    30   ar
    32    28    31   ar
    33    30    32   ar
    34    31    29   ar
    35    32    29   ar
    36    29    33    1
