@<TRIPOS>MOLECULE
mol_data/opt/b3lyp/geoms/mol2/513-8.out
 23 25 0 0 0
SMALL
GASTEIGER

@<TRIPOS>ATOM
      1 C          -2.0935   -1.8764   -0.0000 C.ar    1  LIG1       -0.0237
      2 C          -0.7259   -1.8562   -0.0003 C.ar    1  LIG1       -0.0541
      3 C          -0.1936   -0.5369    0.0000 C.ar    1  LIG1       -0.0455
      4 C          -1.1616    0.4464    0.0006 C.ar    1  LIG1        0.0355
      5 S          -2.7579   -0.2752    0.0006 S.2     1  LIG1       -0.0952
      6 H          -2.7540   -2.7322   -0.0002 H       1  LIG1        0.0693
      7 H          -0.1161   -2.7521   -0.0008 H       1  LIG1        0.0623
      8 H           0.8708   -0.3285   -0.0001 H       1  LIG1        0.0629
      9 C          -1.0006    1.8838    0.0012 C.ar    1  LIG1        0.0536
     10 C          -1.9553    2.9106    0.0016 C.ar    1  LIG1       -0.0352
     11 C          -1.2741    4.1381    0.0021 C.ar    1  LIG1       -0.0326
     12 C           0.0909    3.8543    0.0018 C.ar    1  LIG1        0.0880
     13 N           0.2300    2.4831    0.0013 N.ar    1  LIG1       -0.3512
     14 H           1.1325    2.0314    0.0011 H       1  LIG1        0.1660
     15 H          -3.0265    2.7664    0.0016 H       1  LIG1        0.0639
     16 H          -1.6997    5.1305    0.0026 H       1  LIG1        0.0640
     17 C           1.2455    4.7091    0.0019 C.ar    1  LIG1        0.2193
     18 N           2.4608    4.1047    0.0015 N.ar    1  LIG1       -0.1243
     19 C           3.3234    6.2007    0.0021 C.ar    1  LIG1        0.1605
     20 N           1.0541    6.0538    0.0024 N.ar    1  LIG1       -0.1243
     21 N           3.5283    4.8777    0.0016 N.ar    1  LIG1       -0.1338
     22 N           2.1272    6.8131    0.0025 N.ar    1  LIG1       -0.1338
     23 H           4.2017    6.8368    0.0022 H       1  LIG1        0.1085
@<TRIPOS>BOND
     1     7     2    1
     2     2     1   ar
     3     2     3   ar
     4     6     1    1
     5     8     3    1
     6     1     5   ar
     7     3     4   ar
     8     5     4   ar
     9     4     9    1
    10    14    13    1
    11     9    13   ar
    12     9    10   ar
    13    13    12   ar
    14    18    21   ar
    15    18    17   ar
    16    15    10    1
    17    10    11   ar
    18    21    19   ar
    19    12    17    1
    20    12    11   ar
    21    17    20   ar
    22    19    23    1
    23    19    22   ar
    24    11    16    1
    25    20    22   ar
