@<TRIPOS>MOLECULE
mol_data/opt/b3lyp/geoms/mol2/513-4-5.out
 34 37 0 0 0
SMALL
GASTEIGER

@<TRIPOS>ATOM
      1 C          -2.3329   -1.9673    0.0020 C.ar    1  LIG1       -0.0237
      2 C          -0.9667   -1.9920    0.0009 C.ar    1  LIG1       -0.0541
      3 C          -0.3875   -0.6909    0.0005 C.ar    1  LIG1       -0.0455
      4 C          -1.3182    0.3282    0.0013 C.ar    1  LIG1        0.0355
      5 S          -2.9404   -0.3398    0.0026 S.2     1  LIG1       -0.0952
      6 H          -3.0232   -2.7986    0.0025 H       1  LIG1        0.0693
      7 H          -0.3868   -2.9079    0.0003 H       1  LIG1        0.0623
      8 H           0.6844   -0.5242   -0.0004 H       1  LIG1        0.0629
      9 C          -1.1121    1.7587    0.0013 C.ar    1  LIG1        0.0536
     10 C          -2.0177    2.8171    0.0019 C.ar    1  LIG1       -0.0353
     11 C          -1.2807    4.0176    0.0015 C.ar    1  LIG1       -0.0358
     12 C           0.0763    3.6971    0.0006 C.ar    1  LIG1        0.0469
     13 N           0.1478    2.3182    0.0005 N.ar    1  LIG1       -0.3537
     14 H           1.0021    1.7870    0.0002 H       1  LIG1        0.1659
     15 H          -3.0942    2.7212    0.0026 H       1  LIG1        0.0639
     16 H          -1.6931    5.0158    0.0018 H       1  LIG1        0.0639
     17 C           1.1234    5.9554   -0.0001 C.ar    1  LIG1       -0.0520
     18 C           2.2317    6.7874   -0.0008 C.ar    1  LIG1       -0.0529
     19 C           1.2554    4.5527   -0.0000 C.ar    1  LIG1       -0.0017
     20 C           3.5431    6.2735   -0.0013 C.ar    1  LIG1       -0.0113
     21 H           2.0729    7.8618   -0.0009 H       1  LIG1        0.0624
     22 C           2.5669    4.0385   -0.0006 C.ar    1  LIG1       -0.0520
     23 C           3.6763    4.8722   -0.0012 C.ar    1  LIG1       -0.0529
     24 H           2.7407    2.9659   -0.0005 H       1  LIG1        0.0624
     25 H           0.1340    6.4004    0.0003 H       1  LIG1        0.0624
     26 H           4.6637    4.4228   -0.0015 H       1  LIG1        0.0624
     27 C           4.7210    7.1449   -0.0020 C.ar    1  LIG1        0.0193
     28 C           6.0558    6.7985   -0.0037 C.ar    1  LIG1       -0.0469
     29 C           6.9423    7.9117   -0.0039 C.ar    1  LIG1       -0.0541
     30 C           6.2877    9.1119   -0.0023 C.ar    1  LIG1       -0.0237
     31 S           4.5677    8.8964   -0.0006 S.2     1  LIG1       -0.0967
     32 H           6.7056   10.1086   -0.0021 H       1  LIG1        0.0693
     33 H           6.4014    5.7716   -0.0050 H       1  LIG1        0.0629
     34 H           8.0225    7.8211   -0.0052 H       1  LIG1        0.0623
@<TRIPOS>BOND
     1    34    29    1
     2    33    28    1
     3    29    28   ar
     4    29    30   ar
     5    28    27   ar
     6    30    32    1
     7    30    31   ar
     8    27    20    1
     9    27    31   ar
    10    26    23    1
    11    20    23   ar
    12    20    18   ar
    13    23    22   ar
    14    21    18    1
    15    18    17   ar
    16    22    24    1
    17    22    19   ar
    18     8     3    1
    19    17    19   ar
    20    17    25    1
    21    19    12    1
    22    14    13    1
    23     7     2    1
    24    13    12   ar
    25    13     9   ar
    26     3     2   ar
    27     3     4   ar
    28    12    11   ar
    29     2     1   ar
    30     9     4    1
    31     9    10   ar
    32     4     5   ar
    33    11    16    1
    34    11    10   ar
    35    10    15    1
    36     1     6    1
    37     1     5   ar
