@<TRIPOS>MOLECULE
mol_data/opt/b3lyp/geoms/mol2/513-12.out
 24 26 0 0 0
SMALL
GASTEIGER

@<TRIPOS>ATOM
      1 C          -2.1133   -1.8981    0.0001 C.ar    1  LIG1       -0.0237
      2 C          -0.7471   -1.8792   -0.0003 C.ar    1  LIG1       -0.0541
      3 C          -0.2096   -0.5600    0.0001 C.ar    1  LIG1       -0.0455
      4 C          -1.1723    0.4288    0.0007 C.ar    1  LIG1        0.0355
      5 S          -2.7723   -0.2905    0.0010 S.2     1  LIG1       -0.0952
      6 H          -2.7770   -2.7510   -0.0001 H       1  LIG1        0.0693
      7 H          -0.1381   -2.7760   -0.0008 H       1  LIG1        0.0623
      8 H           0.8564   -0.3592   -0.0002 H       1  LIG1        0.0629
      9 C          -1.0113    1.8651    0.0011 C.ar    1  LIG1        0.0536
     10 C          -1.9485    2.8952    0.0016 C.ar    1  LIG1       -0.0352
     11 C          -1.2525    4.1223    0.0018 C.ar    1  LIG1       -0.0328
     12 C           0.1083    3.8351    0.0016 C.ar    1  LIG1        0.0825
     13 N           0.2340    2.4625    0.0011 N.ar    1  LIG1       -0.3514
     14 H           1.1093    1.9657    0.0012 H       1  LIG1        0.1660
     15 H          -3.0214    2.7639    0.0017 H       1  LIG1        0.0639
     16 H          -1.6763    5.1152    0.0020 H       1  LIG1        0.0640
     17 C           1.2496    4.7119    0.0018 C.ar    1  LIG1        0.1509
     18 C           2.6088    4.5119    0.0017 C.ar    1  LIG1       -0.0144
     19 C           3.2113    5.8092    0.0021 C.ar    1  LIG1       -0.0233
     20 C           2.1874    6.7051    0.0025 C.ar    1  LIG1        0.0926
     21 O           0.9863    6.0559    0.0022 O.2     1  LIG1       -0.4615
     22 H           2.1381    7.7822    0.0029 H       1  LIG1        0.1029
     23 H           3.1236    3.5615    0.0014 H       1  LIG1        0.0656
     24 H           4.2669    6.0390    0.0021 H       1  LIG1        0.0649
@<TRIPOS>BOND
     1     7     2    1
     2     2     3   ar
     3     2     1   ar
     4     8     3    1
     5     6     1    1
     6     3     4   ar
     7     1     5   ar
     8     4     5   ar
     9     4     9    1
    10     9    13   ar
    11     9    10   ar
    12    13    14    1
    13    13    12   ar
    14    23    18    1
    15    10    15    1
    16    10    11   ar
    17    12    11   ar
    18    12    17    1
    19    18    17   ar
    20    18    19   ar
    21    11    16    1
    22    17    21   ar
    23    19    24    1
    24    19    20   ar
    25    21    20   ar
    26    20    22    1
