@<TRIPOS>MOLECULE
mol_data/opt/b3lyp/geoms/mol2/513-5-.out
 24 26 0 0 0
SMALL
GASTEIGER

@<TRIPOS>ATOM
      1 C          -2.1237   -1.9082   -0.0001 C.ar    1  LIG1       -0.0237
      2 C          -0.7574   -1.8866   -0.0004 C.ar    1  LIG1       -0.0541
      3 C          -0.2223   -0.5666    0.0000 C.ar    1  LIG1       -0.0455
      4 C          -1.1871    0.4200    0.0006 C.ar    1  LIG1        0.0355
      5 S          -2.7859   -0.3020    0.0008 S.2     1  LIG1       -0.0952
      6 H          -2.7858   -2.7623   -0.0004 H       1  LIG1        0.0693
      7 H          -0.1468   -2.7823   -0.0009 H       1  LIG1        0.0623
      8 H           0.8432   -0.3635   -0.0002 H       1  LIG1        0.0629
      9 C          -1.0280    1.8564    0.0011 C.ar    1  LIG1        0.0536
     10 C          -1.9666    2.8855    0.0016 C.ar    1  LIG1       -0.0353
     11 C          -1.2712    4.1112    0.0019 C.ar    1  LIG1       -0.0353
     12 C           0.0939    3.8305    0.0018 C.ar    1  LIG1        0.0536
     13 N           0.2148    2.4560    0.0013 N.ar    1  LIG1       -0.3533
     14 H           1.0892    1.9557    0.0014 H       1  LIG1        0.1659
     15 H          -3.0395    2.7541    0.0016 H       1  LIG1        0.0639
     16 H          -1.7069    5.0996    0.0021 H       1  LIG1        0.0639
     17 C           1.2301    4.7240    0.0021 C.ar    1  LIG1        0.0355
     18 C           1.2308    6.1032    0.0027 C.ar    1  LIG1       -0.0455
     19 C           2.5354    6.6720    0.0028 C.ar    1  LIG1       -0.0541
     20 C           3.5323    5.7370    0.0023 C.ar    1  LIG1       -0.0237
     21 S           2.8824    4.1247    0.0017 S.2     1  LIG1       -0.0952
     22 H           4.6025    5.8844    0.0023 H       1  LIG1        0.0693
     23 H           0.3196    6.6896    0.0031 H       1  LIG1        0.0629
     24 H           2.7249    7.7394    0.0033 H       1  LIG1        0.0623
@<TRIPOS>BOND
     1     7     2    1
     2     2     1   ar
     3     2     3   ar
     4     6     1    1
     5     8     3    1
     6     1     5   ar
     7     3     4   ar
     8     4     5   ar
     9     4     9    1
    10     9    13   ar
    11     9    10   ar
    12    13    14    1
    13    13    12   ar
    14    15    10    1
    15    10    11   ar
    16    21    17   ar
    17    21    20   ar
    18    12    11   ar
    19    12    17    1
    20    11    16    1
    21    17    18   ar
    22    22    20    1
    23    20    19   ar
    24    18    19   ar
    25    18    23    1
    26    19    24    1
