@<TRIPOS>MOLECULE
mol_data/opt/b3lyp/geoms/mol2/513-12-.out
 24 26 0 0 0
SMALL
GASTEIGER

@<TRIPOS>ATOM
      1 C          -2.1200   -1.8928   -0.0000 C.ar    1  LIG1       -0.0237
      2 C          -0.7537   -1.8736   -0.0003 C.ar    1  LIG1       -0.0541
      3 C          -0.2161   -0.5545    0.0001 C.ar    1  LIG1       -0.0455
      4 C          -1.1789    0.4339    0.0007 C.ar    1  LIG1        0.0355
      5 S          -2.7791   -0.2851    0.0009 S.2     1  LIG1       -0.0952
      6 H          -2.7837   -2.7457   -0.0002 H       1  LIG1        0.0693
      7 H          -0.1448   -2.7704   -0.0008 H       1  LIG1        0.0623
      8 H           0.8494   -0.3515   -0.0002 H       1  LIG1        0.0629
      9 C          -1.0150    1.8700    0.0011 C.ar    1  LIG1        0.0536
     10 C          -1.9511    2.9025    0.0017 C.ar    1  LIG1       -0.0352
     11 C          -1.2532    4.1284    0.0019 C.ar    1  LIG1       -0.0328
     12 C           0.1074    3.8360    0.0017 C.ar    1  LIG1        0.0825
     13 N           0.2291    2.4649    0.0012 N.ar    1  LIG1       -0.3514
     14 H           1.1155    1.9865    0.0011 H       1  LIG1        0.1660
     15 H          -3.0243    2.7735    0.0017 H       1  LIG1        0.0639
     16 H          -1.6838    5.1192    0.0022 H       1  LIG1        0.0640
     17 C           1.2680    4.6874    0.0019 C.ar    1  LIG1        0.1509
     18 C           1.4589    6.0455    0.0023 C.ar    1  LIG1       -0.0144
     19 C           2.8736    6.2575    0.0024 C.ar    1  LIG1       -0.0233
     20 C           3.4501    5.0254    0.0019 C.ar    1  LIG1        0.0926
     21 O           2.4874    4.0528    0.0018 O.2     1  LIG1       -0.4615
     22 H           4.4703    4.6767    0.0018 H       1  LIG1        0.1029
     23 H           0.6844    6.7981    0.0025 H       1  LIG1        0.0656
     24 H           3.3904    7.2063    0.0026 H       1  LIG1        0.0649
@<TRIPOS>BOND
     1     7     2    1
     2     2     1   ar
     3     2     3   ar
     4     6     1    1
     5     8     3    1
     6     1     5   ar
     7     3     4   ar
     8     4     5   ar
     9     4     9    1
    10    14    13    1
    11     9    13   ar
    12     9    10   ar
    13    13    12   ar
    14    10    15    1
    15    10    11   ar
    16    12    11   ar
    17    12    17    1
    18    21    17   ar
    19    21    20   ar
    20    22    20    1
    21    11    16    1
    22    17    18   ar
    23    20    19   ar
    24    18    19   ar
    25    18    23    1
    26    19    24    1
