@<TRIPOS>MOLECULE
mol_data/opt/b3lyp/geoms/mol2/513-4-.out
 27 29 0 0 0
SMALL
GASTEIGER

@<TRIPOS>ATOM
      1 C          -2.1936   -1.9238    0.0007 C.ar    1  LIG1       -0.0237
      2 C          -0.8272   -1.9242    0.0000 C.ar    1  LIG1       -0.0541
      3 C          -0.2712   -0.6126    0.0001 C.ar    1  LIG1       -0.0455
      4 C          -1.2198    0.3895    0.0008 C.ar    1  LIG1        0.0355
      5 S          -2.8297   -0.3071    0.0015 S.2     1  LIG1       -0.0952
      6 H          -2.8692   -2.7672    0.0007 H       1  LIG1        0.0693
      7 H          -0.2309   -2.8295   -0.0005 H       1  LIG1        0.0623
      8 H           0.7975   -0.4269   -0.0004 H       1  LIG1        0.0629
      9 C          -1.0385    1.8239    0.0010 C.ar    1  LIG1        0.0536
     10 C          -1.9611    2.8666    0.0016 C.ar    1  LIG1       -0.0353
     11 C          -1.2431    4.0797    0.0014 C.ar    1  LIG1       -0.0358
     12 C           0.1179    3.7811    0.0010 C.ar    1  LIG1        0.0469
     13 N           0.2121    2.4043    0.0007 N.ar    1  LIG1       -0.3537
     14 H           1.0750    1.8873    0.0006 H       1  LIG1        0.1659
     15 H          -3.0359    2.7530    0.0019 H       1  LIG1        0.0639
     16 H          -1.6713    5.0713    0.0017 H       1  LIG1        0.0639
     17 C           1.1219    6.0571    0.0009 C.ar    1  LIG1       -0.0526
     18 C           2.2197    6.9105    0.0007 C.ar    1  LIG1       -0.0611
     19 C           1.2867    4.6576    0.0009 C.ar    1  LIG1       -0.0017
     20 C           3.5187    6.3962    0.0005 C.ar    1  LIG1       -0.0617
     21 H           2.0603    7.9850    0.0007 H       1  LIG1        0.0618
     22 C           2.6026    4.1564    0.0007 C.ar    1  LIG1       -0.0526
     23 C           3.7010    5.0133    0.0005 C.ar    1  LIG1       -0.0611
     24 H           2.7867    3.0855    0.0007 H       1  LIG1        0.0624
     25 H           4.3751    7.0635    0.0004 H       1  LIG1        0.0618
     26 H           0.1217    6.4774    0.0010 H       1  LIG1        0.0624
     27 H           4.7037    4.5956    0.0004 H       1  LIG1        0.0618
@<TRIPOS>BOND
     1     7     2    1
     2     8     3    1
     3     2     3   ar
     4     2     1   ar
     5     3     4   ar
     6    27    23    1
     7    25    20    1
     8    23    20   ar
     9    23    22   ar
    10    20    18   ar
    11    14    13    1
    12     1     6    1
    13     1     5   ar
    14    24    22    1
    15    22    19   ar
    16    13     9   ar
    17    13    12   ar
    18    18    21    1
    19    18    17   ar
    20     4     9    1
    21     4     5   ar
    22    19    17   ar
    23    19    12    1
    24    17    26    1
    25     9    10   ar
    26    12    11   ar
    27    11    10   ar
    28    11    16    1
    29    10    15    1
