@<TRIPOS>MOLECULE
mol_data/opt/b3lyp/geoms/mol2/513-1213.out
 32 35 0 0 0
SMALL
GASTEIGER

@<TRIPOS>ATOM
      1 C          -2.1087   -1.9890    0.0003 C.ar    1  LIG1       -0.0237
      2 C          -0.7427   -1.9579    0.0001 C.ar    1  LIG1       -0.0541
      3 C          -0.2166   -0.6343    0.0002 C.ar    1  LIG1       -0.0455
      4 C          -1.1880    0.3464    0.0007 C.ar    1  LIG1        0.0355
      5 S          -2.7819   -0.3869    0.0009 S.2     1  LIG1       -0.0952
      6 H          -2.7648   -2.8475    0.0003 H       1  LIG1        0.0693
      7 H          -0.1260   -2.8493   -0.0003 H       1  LIG1        0.0623
      8 H           0.8475   -0.4240   -0.0000 H       1  LIG1        0.0629
      9 C          -1.0382    1.7831    0.0009 C.ar    1  LIG1        0.0536
     10 C          -1.9826    2.8067    0.0012 C.ar    1  LIG1       -0.0352
     11 C          -1.2954    4.0384    0.0014 C.ar    1  LIG1       -0.0328
     12 C           0.0691    3.7622    0.0013 C.ar    1  LIG1        0.0826
     13 N           0.2031    2.3898    0.0010 N.ar    1  LIG1       -0.3514
     14 H           1.0820    1.8992    0.0012 H       1  LIG1        0.1660
     15 H          -3.0545    2.6681    0.0011 H       1  LIG1        0.0639
     16 H          -1.7295    5.0267    0.0015 H       1  LIG1        0.0640
     17 C           1.2032    4.6424    0.0015 C.ar    1  LIG1        0.1518
     18 C           2.5643    4.4523    0.0015 C.ar    1  LIG1       -0.0137
     19 C           3.1657    5.7431    0.0018 C.ar    1  LIG1       -0.0137
     20 C           2.1415    6.6563    0.0019 C.ar    1  LIG1        0.1518
     21 O           0.9375    5.9910    0.0018 O.2     1  LIG1       -0.4519
     22 H           3.0828    3.5038    0.0013 H       1  LIG1        0.0656
     23 H           4.2215    5.9704    0.0018 H       1  LIG1        0.0656
     24 C           2.0775    8.0933    0.0022 C.ar    1  LIG1        0.0821
     25 C           3.0749    9.0620    0.0023 C.ar    1  LIG1       -0.0334
     26 C           2.4394   10.3294    0.0026 C.ar    1  LIG1       -0.0437
     27 C           1.0753   10.1115    0.0028 C.ar    1  LIG1        0.0023
     28 N           0.8676    8.7563    0.0026 N.ar    1  LIG1       -0.3583
     29 H          -0.0246    8.2886    0.0024 H       1  LIG1        0.1654
     30 H           0.2470   10.8037    0.0030 H       1  LIG1        0.0807
     31 H           4.1381    8.8688    0.0021 H       1  LIG1        0.0640
     32 H           2.9249   11.2946    0.0028 H       1  LIG1        0.0633
@<TRIPOS>BOND
     1     7     2    1
     2     8     3    1
     3     2     3   ar
     4     2     1   ar
     5     3     4   ar
     6     6     1    1
     7     1     5   ar
     8     4     5   ar
     9     4     9    1
    10     9    13   ar
    11     9    10   ar
    12    13    14    1
    13    13    12   ar
    14    15    10    1
    15    10    11   ar
    16    22    18    1
    17    12    11   ar
    18    12    17    1
    19    11    16    1
    20    18    17   ar
    21    18    19   ar
    22    17    21   ar
    23    19    23    1
    24    19    20   ar
    25    21    20   ar
    26    20    24    1
    27    31    25    1
    28    24    25   ar
    29    24    28   ar
    30    25    26   ar
    31    29    28    1
    32    28    27   ar
    33    26    27   ar
    34    26    32    1
    35    27    30    1
