@<TRIPOS>MOLECULE
mol_data/opt/b3lyp/geoms/mol2/513-.out
 17 18 0 0 0
SMALL
GASTEIGER

@<TRIPOS>ATOM
      1 C          -2.0574   -1.8467   -0.0001 C.ar    1  LIG1       -0.0237
      2 C          -0.6920   -1.8168   -0.0004 C.ar    1  LIG1       -0.0541
      3 C          -0.1655   -0.4924    0.0000 C.ar    1  LIG1       -0.0455
      4 C          -1.1349    0.4884    0.0006 C.ar    1  LIG1        0.0354
      5 S          -2.7285   -0.2432    0.0006 S.2     1  LIG1       -0.0952
      6 H          -2.7148   -2.7048   -0.0003 H       1  LIG1        0.0693
      7 H          -0.0759   -2.7092   -0.0009 H       1  LIG1        0.0623
      8 H           0.8989   -0.2824   -0.0001 H       1  LIG1        0.0629
      9 C          -0.9855    1.9290    0.0012 C.ar    1  LIG1        0.0531
     10 C          -1.9269    2.9515    0.0016 C.ar    1  LIG1       -0.0359
     11 C          -1.2317    4.1874    0.0023 C.ar    1  LIG1       -0.0438
     12 C           0.1178    3.9005    0.0019 C.ar    1  LIG1        0.0022
     13 N           0.2566    2.5352    0.0014 N.ar    1  LIG1       -0.3603
     14 H           1.1353    2.0441    0.0014 H       1  LIG1        0.1653
     15 H           0.9816    4.5485    0.0021 H       1  LIG1        0.0807
     16 H          -2.9990    2.8144    0.0015 H       1  LIG1        0.0639
     17 H          -1.6691    5.1760    0.0028 H       1  LIG1        0.0633
@<TRIPOS>BOND
     1     7     2    1
     2     2     1   ar
     3     2     3   ar
     4     6     1    1
     5     8     3    1
     6     1     5   ar
     7     3     4   ar
     8     5     4   ar
     9     4     9    1
    10     9    13   ar
    11     9    10   ar
    12    13    14    1
    13    13    12   ar
    14    16    10    1
    15    10    11   ar
    16    12    15    1
    17    12    11   ar
    18    11    17    1
