@<TRIPOS>MOLECULE
mol_data/opt/b3lyp/geoms/mol2/513-13.out
 25 27 0 0 0
SMALL
GASTEIGER

@<TRIPOS>ATOM
      1 C          -2.1304   -1.9136   -0.0000 C.ar    1  LIG1       -0.0237
      2 C          -0.7644   -1.8937   -0.0002 C.ar    1  LIG1       -0.0541
      3 C          -0.2266   -0.5743    0.0002 C.ar    1  LIG1       -0.0455
      4 C          -1.1890    0.4148    0.0006 C.ar    1  LIG1        0.0355
      5 S          -2.7895   -0.3052    0.0005 S.2     1  LIG1       -0.0952
      6 H          -2.7939   -2.7664   -0.0002 H       1  LIG1        0.0693
      7 H          -0.1547   -2.7900   -0.0005 H       1  LIG1        0.0623
      8 H           0.8394   -0.3734    0.0001 H       1  LIG1        0.0629
      9 C          -1.0272    1.8506    0.0010 C.ar    1  LIG1        0.0536
     10 C          -1.9607    2.8814    0.0012 C.ar    1  LIG1       -0.0353
     11 C          -1.2587    4.1072    0.0017 C.ar    1  LIG1       -0.0344
     12 C           0.1040    3.8203    0.0017 C.ar    1  LIG1        0.0633
     13 N           0.2195    2.4483    0.0013 N.ar    1  LIG1       -0.3526
     14 H           1.0954    1.9526    0.0016 H       1  LIG1        0.1660
     15 H          -3.0341    2.7546    0.0010 H       1  LIG1        0.0639
     16 H          -1.7017    5.0935    0.0019 H       1  LIG1        0.0639
     17 C           1.2638    4.6820    0.0021 C.ar    1  LIG1        0.0629
     18 C           2.6249    4.3978    0.0020 C.ar    1  LIG1       -0.0350
     19 C           3.3284    5.6311    0.0023 C.ar    1  LIG1       -0.0438
     20 C           2.3902    6.6411    0.0033 C.ar    1  LIG1        0.0022
     21 N           1.1469    6.0574    0.0028 N.ar    1  LIG1       -0.3595
     22 H           0.2721    6.5556    0.0030 H       1  LIG1        0.1654
     23 H           2.5025    7.7146    0.0040 H       1  LIG1        0.0807
     24 H           3.0683    3.4113    0.0015 H       1  LIG1        0.0639
     25 H           4.4009    5.7628    0.0021 H       1  LIG1        0.0633
@<TRIPOS>BOND
     1     7     2    1
     2     6     1    1
     3     2     1   ar
     4     2     3   ar
     5     1     5   ar
     6     8     3    1
     7     3     4   ar
     8     5     4   ar
     9     4     9    1
    10    15    10    1
    11     9    10   ar
    12     9    13   ar
    13    10    11   ar
    14    13    14    1
    15    13    12   ar
    16    24    18    1
    17    11    12   ar
    18    11    16    1
    19    12    17    1
    20    18    17   ar
    21    18    19   ar
    22    25    19    1
    23    17    21   ar
    24    19    20   ar
    25    21    22    1
    26    21    20   ar
    27    20    23    1
