@<TRIPOS>MOLECULE
mol_data/opt/b3lyp/geoms/mol2/513-1312.out
 32 35 0 0 0
SMALL
GASTEIGER

@<TRIPOS>ATOM
      1 C          -2.1598   -1.9669    0.0002 C.ar    1  LIG1       -0.0237
      2 C          -0.7936   -1.9516    0.0001 C.ar    1  LIG1       -0.0541
      3 C          -0.2518   -0.6342    0.0003 C.ar    1  LIG1       -0.0455
      4 C          -1.2113    0.3579    0.0006 C.ar    1  LIG1        0.0355
      5 S          -2.8139   -0.3565    0.0006 S.2     1  LIG1       -0.0952
      6 H          -2.8261   -2.8176    0.0000 H       1  LIG1        0.0693
      7 H          -0.1874   -2.8502   -0.0002 H       1  LIG1        0.0623
      8 H           0.8148   -0.4363    0.0002 H       1  LIG1        0.0629
      9 C          -1.0440    1.7928    0.0009 C.ar    1  LIG1        0.0536
     10 C          -1.9743    2.8278    0.0011 C.ar    1  LIG1       -0.0353
     11 C          -1.2688    4.0502    0.0014 C.ar    1  LIG1       -0.0344
     12 C           0.0937    3.7587    0.0015 C.ar    1  LIG1        0.0633
     13 N           0.2045    2.3852    0.0012 N.ar    1  LIG1       -0.3526
     14 H           1.0781    1.8855    0.0015 H       1  LIG1        0.1660
     15 H          -3.0482    2.7054    0.0009 H       1  LIG1        0.0639
     16 H          -1.7073    5.0383    0.0015 H       1  LIG1        0.0639
     17 C           1.2522    4.6167    0.0018 C.ar    1  LIG1        0.0634
     18 C           2.6161    4.3260    0.0018 C.ar    1  LIG1       -0.0343
     19 C           3.3246    5.5478    0.0023 C.ar    1  LIG1       -0.0328
     20 C           2.3884    6.5759    0.0026 C.ar    1  LIG1        0.0826
     21 N           1.1413    5.9895    0.0024 N.ar    1  LIG1       -0.3506
     22 H           0.2797    6.5115    0.0024 H       1  LIG1        0.1660
     23 H           3.0561    3.3383    0.0014 H       1  LIG1        0.0639
     24 H           4.3976    5.6736    0.0024 H       1  LIG1        0.0640
     25 C           2.5393    8.0071    0.0031 C.ar    1  LIG1        0.1509
     26 C           3.6162    8.8567    0.0033 C.ar    1  LIG1       -0.0144
     27 C           3.0861   10.1854    0.0039 C.ar    1  LIG1       -0.0233
     28 C           1.7314   10.0625    0.0040 C.ar    1  LIG1        0.0926
     29 O           1.3768    8.7404    0.0035 O.2     1  LIG1       -0.4615
     30 H           0.9157   10.7677    0.0043 H       1  LIG1        0.1029
     31 H           4.6567    8.5675    0.0030 H       1  LIG1        0.0656
     32 H           3.6450   11.1100    0.0041 H       1  LIG1        0.0649
@<TRIPOS>BOND
     1     7     2    1
     2     6     1    1
     3     2     1   ar
     4     2     3   ar
     5     1     5   ar
     6     8     3    1
     7     3     4   ar
     8     5     4   ar
     9     4     9    1
    10    15    10    1
    11     9    10   ar
    12     9    13   ar
    13    10    11   ar
    14    13    12   ar
    15    13    14    1
    16    23    18    1
    17    11    16    1
    18    11    12   ar
    19    12    17    1
    20    18    17   ar
    21    18    19   ar
    22    17    21   ar
    23    19    24    1
    24    19    20   ar
    25    21    22    1
    26    21    20   ar
    27    20    25    1
    28    31    26    1
    29    25    26   ar
    30    25    29   ar
    31    26    27   ar
    32    29    28   ar
    33    27    28   ar
    34    27    32    1
    35    28    30    1
