@<TRIPOS>MOLECULE
mol_data/opt/b3lyp/geoms/mol2/513-13-.out
 25 27 0 0 0
SMALL
GASTEIGER

@<TRIPOS>ATOM
      1 C          -2.1776   -1.9123    0.0005 C.ar    1  LIG1       -0.0237
      2 C          -0.8115   -1.9124    0.0000 C.ar    1  LIG1       -0.0541
      3 C          -0.2546   -0.6010    0.0002 C.ar    1  LIG1       -0.0455
      4 C          -1.2023    0.4030    0.0007 C.ar    1  LIG1        0.0355
      5 S          -2.8131   -0.2942    0.0010 S.2     1  LIG1       -0.0952
      6 H          -2.8536   -2.7553    0.0005 H       1  LIG1        0.0693
      7 H          -0.2150   -2.8176   -0.0004 H       1  LIG1        0.0623
      8 H           0.8148   -0.4175   -0.0002 H       1  LIG1        0.0629
      9 C          -1.0211    1.8355    0.0010 C.ar    1  LIG1        0.0536
     10 C          -1.9366    2.8819    0.0012 C.ar    1  LIG1       -0.0353
     11 C          -1.2170    4.0954    0.0015 C.ar    1  LIG1       -0.0344
     12 C           0.1417    3.7922    0.0014 C.ar    1  LIG1        0.0633
     13 N           0.2372    2.4146    0.0011 N.ar    1  LIG1       -0.3526
     14 H           1.0912    1.8834    0.0015 H       1  LIG1        0.1660
     15 H          -3.0118    2.7718    0.0011 H       1  LIG1        0.0639
     16 H          -1.6326    5.0922    0.0016 H       1  LIG1        0.0639
     17 C           1.2831    4.6799    0.0016 C.ar    1  LIG1        0.0629
     18 C           1.3252    6.0691    0.0025 C.ar    1  LIG1       -0.0350
     19 C           2.6860    6.4687    0.0026 C.ar    1  LIG1       -0.0438
     20 C           3.4541    5.3247    0.0010 C.ar    1  LIG1        0.0022
     21 N           2.5983    4.2469    0.0008 N.ar    1  LIG1       -0.3595
     22 H           2.9054    3.2888   -0.0000 H       1  LIG1        0.1654
     23 H           4.5244    5.1849    0.0003 H       1  LIG1        0.0807
     24 H           0.4611    6.7176    0.0033 H       1  LIG1        0.0639
     25 H           3.0614    7.4820    0.0034 H       1  LIG1        0.0633
@<TRIPOS>BOND
     1     7     2    1
     2     8     3    1
     3    22    21    1
     4     2     3   ar
     5     2     1   ar
     6     3     4   ar
     7    23    20    1
     8     1     6    1
     9     1     5   ar
    10     4     9    1
    11     4     5   ar
    12    21    20   ar
    13    21    17   ar
    14     9    13   ar
    15     9    10   ar
    16    20    19   ar
    17    13    12   ar
    18    13    14    1
    19    15    10    1
    20    10    11   ar
    21    12    11   ar
    22    12    17    1
    23    11    16    1
    24    17    18   ar
    25    18    19   ar
    26    18    24    1
    27    19    25    1
