@<TRIPOS>MOLECULE
mol_data/opt/b3lyp/geoms/mol2/513.out
 17 18 0 0 0
SMALL
GASTEIGER

@<TRIPOS>ATOM
      1 C          -2.0425   -1.8623   -0.0005 C.ar    1  LIG1       -0.0237
      2 C          -0.6775   -1.8091   -0.0008 C.ar    1  LIG1       -0.0541
      3 C          -0.1665   -0.4797    0.0000 C.ar    1  LIG1       -0.0455
      4 C          -1.1465    0.4891    0.0009 C.ar    1  LIG1        0.0354
      5 S          -2.7331   -0.2662    0.0007 S.2     1  LIG1       -0.0952
      6 H          -2.6899   -2.7279   -0.0010 H       1  LIG1        0.0693
      7 H          -0.0506   -2.6939   -0.0015 H       1  LIG1        0.0623
      8 H           0.8906   -0.2418   -0.0000 H       1  LIG1        0.0629
      9 C          -0.9857    1.9287    0.0018 C.ar    1  LIG1        0.0531
     10 C           0.1683    2.7052    0.0025 C.ar    1  LIG1       -0.0359
     11 C          -0.2218    4.0680    0.0032 C.ar    1  LIG1       -0.0438
     12 C          -1.6013    4.1028    0.0032 C.ar    1  LIG1        0.0022
     13 N          -2.0527    2.8069    0.0023 N.ar    1  LIG1       -0.3603
     14 H          -3.0234    2.5362    0.0017 H       1  LIG1        0.1653
     15 H          -2.2912    4.9336    0.0037 H       1  LIG1        0.0807
     16 H           1.1788    2.3229    0.0025 H       1  LIG1        0.0639
     17 H           0.4333    4.9280    0.0037 H       1  LIG1        0.0633
@<TRIPOS>BOND
     1     7     2    1
     2     6     1    1
     3     2     1   ar
     4     2     3   ar
     5     1     5   ar
     6     8     3    1
     7     3     4   ar
     8     5     4   ar
     9     4     9    1
    10    14    13    1
    11     9    13   ar
    12     9    10   ar
    13    13    12   ar
    14    16    10    1
    15    10    11   ar
    16    11    12   ar
    17    11    17    1
    18    12    15    1
