@<TRIPOS>MOLECULE
mol_data/opt/b3lyp/geoms/mol2/51312-.out
 24 26 0 0 0
SMALL
GASTEIGER

@<TRIPOS>ATOM
      1 C          -2.0214   -1.9162   -0.0007 C.ar    1  LIG1       -0.0237
      2 C          -0.6557   -1.8623   -0.0011 C.ar    1  LIG1       -0.0541
      3 C          -0.1449   -0.5339   -0.0002 C.ar    1  LIG1       -0.0455
      4 C          -1.1265    0.4350    0.0009 C.ar    1  LIG1        0.0355
      5 S          -2.7132   -0.3212    0.0009 S.2     1  LIG1       -0.0952
      6 H          -2.6677   -2.7819   -0.0012 H       1  LIG1        0.0693
      7 H          -0.0285   -2.7466   -0.0021 H       1  LIG1        0.0623
      8 H           0.9123   -0.2966   -0.0004 H       1  LIG1        0.0629
      9 C          -0.9653    1.8714    0.0020 C.ar    1  LIG1        0.0536
     10 C           0.1925    2.6472    0.0026 C.ar    1  LIG1       -0.0352
     11 C          -0.1898    4.0046    0.0037 C.ar    1  LIG1       -0.0328
     12 C          -1.5799    4.0527    0.0036 C.ar    1  LIG1        0.0825
     13 N          -2.0306    2.7501    0.0027 N.ar    1  LIG1       -0.3514
     14 H          -3.0015    2.4803    0.0020 H       1  LIG1        0.1660
     15 H           1.2020    2.2625    0.0023 H       1  LIG1        0.0639
     16 H           0.4596    4.8672    0.0044 H       1  LIG1        0.0640
     17 C          -2.4775    5.1776    0.0044 C.ar    1  LIG1        0.1509
     18 C          -3.8449    5.3096    0.0052 C.ar    1  LIG1       -0.0144
     19 C          -4.1182    6.7137    0.0058 C.ar    1  LIG1       -0.0233
     20 C          -2.9091    7.3377    0.0052 C.ar    1  LIG1        0.0926
     21 O          -1.8989    6.4190    0.0045 O.2     1  LIG1       -0.4615
     22 H          -2.6026    8.3714    0.0053 H       1  LIG1        0.1029
     23 H          -4.5729    4.5106    0.0055 H       1  LIG1        0.0656
     24 H          -5.0877    7.1902    0.0066 H       1  LIG1        0.0649
@<TRIPOS>BOND
     1     7     2    1
     2     6     1    1
     3     2     1   ar
     4     2     3   ar
     5     1     5   ar
     6     8     3    1
     7     3     4   ar
     8     4     5   ar
     9     4     9    1
    10     9    10   ar
    11     9    13   ar
    12    14    13    1
    13    15    10    1
    14    10    11   ar
    15    13    12   ar
    16    12    11   ar
    17    12    17    1
    18    11    16    1
    19    17    21   ar
    20    17    18   ar
    21    21    20   ar
    22    20    22    1
    23    20    19   ar
    24    18    23    1
    25    18    19   ar
    26    19    24    1
