@<TRIPOS>MOLECULE
mol_data/opt/b3lyp/geoms/mol2/513124.out
 34 37 0 0 0
SMALL
GASTEIGER

@<TRIPOS>ATOM
      1 C          -1.8299   -1.9897   -0.0007 C.ar    1  LIG1       -0.0237
      2 C          -0.4656   -1.9051   -0.0015 C.ar    1  LIG1       -0.0541
      3 C           0.0142   -0.5653   -0.0007 C.ar    1  LIG1       -0.0455
      4 C          -0.9903    0.3802    0.0007 C.ar    1  LIG1        0.0355
      5 S          -2.5588   -0.4118    0.0011 S.2     1  LIG1       -0.0952
      6 H          -2.4560   -2.8701   -0.0010 H       1  LIG1        0.0693
      7 H           0.1818   -2.7745   -0.0026 H       1  LIG1        0.0623
      8 H           1.0655   -0.3035   -0.0012 H       1  LIG1        0.0629
      9 C          -0.8624    1.8195    0.0017 C.ar    1  LIG1        0.0536
     10 C           0.2801    2.6208    0.0019 C.ar    1  LIG1       -0.0352
     11 C          -0.1301    3.9687    0.0031 C.ar    1  LIG1       -0.0328
     12 C          -1.5233    3.9856    0.0036 C.ar    1  LIG1        0.0826
     13 N          -1.9441    2.6741    0.0028 N.ar    1  LIG1       -0.3514
     14 H          -2.9153    2.4034    0.0027 H       1  LIG1        0.1660
     15 H           1.2976    2.2581    0.0013 H       1  LIG1        0.0639
     16 H           0.5088    4.8398    0.0036 H       1  LIG1        0.0640
     17 C          -2.4596    5.0739    0.0047 C.ar    1  LIG1        0.1518
     18 C          -2.3324    6.4420    0.0050 C.ar    1  LIG1       -0.0138
     19 C          -3.6515    6.9716    0.0061 C.ar    1  LIG1       -0.0152
     20 C          -4.5212    5.9083    0.0064 C.ar    1  LIG1        0.1358
     21 O          -3.7905    4.7406    0.0055 O.2     1  LIG1       -0.4534
     22 H          -1.4053    6.9960    0.0045 H       1  LIG1        0.0656
     23 H          -3.9232    8.0170    0.0067 H       1  LIG1        0.0656
     24 C          -6.7757    6.9507    0.0076 C.ar    1  LIG1       -0.0511
     25 C          -8.1627    6.8496    0.0086 C.ar    1  LIG1       -0.0611
     26 C          -5.9710    5.7949    0.0074 C.ar    1  LIG1        0.0173
     27 C          -8.7811    5.5964    0.0093 C.ar    1  LIG1       -0.0617
     28 H          -8.7651    7.7534    0.0087 H       1  LIG1        0.0618
     29 C          -6.6039    4.5382    0.0081 C.ar    1  LIG1       -0.0511
     30 C          -7.9932    4.4442    0.0091 C.ar    1  LIG1       -0.0611
     31 H          -5.9990    3.6386    0.0080 H       1  LIG1        0.0625
     32 H          -9.8641    5.5202    0.0100 H       1  LIG1        0.0618
     33 H          -6.3098    7.9311    0.0070 H       1  LIG1        0.0625
     34 H          -8.4626    3.4646    0.0096 H       1  LIG1        0.0618
@<TRIPOS>BOND
     1     7     2    1
     2     2     3   ar
     3     2     1   ar
     4     8     3    1
     5     6     1    1
     6     3     4   ar
     7     1     5   ar
     8     4     5   ar
     9     4     9    1
    10    15    10    1
    11     9    10   ar
    12     9    13   ar
    13    10    11   ar
    14    14    13    1
    15    13    12   ar
    16    11    12   ar
    17    11    16    1
    18    12    17    1
    19    22    18    1
    20    17    18   ar
    21    17    21   ar
    22    18    19   ar
    23    21    20   ar
    24    19    20   ar
    25    19    23    1
    26    20    26    1
    27    33    24    1
    28    26    24   ar
    29    26    29   ar
    30    24    25   ar
    31    31    29    1
    32    29    30   ar
    33    25    28    1
    34    25    27   ar
    35    30    27   ar
    36    30    34    1
    37    27    32    1
