@<TRIPOS>MOLECULE
mol_data/opt/b3lyp/geoms/mol2/51312.out
 24 26 0 0 0
SMALL
GASTEIGER

@<TRIPOS>ATOM
      1 C          -2.0112   -1.9147   -0.0006 C.ar    1  LIG1       -0.0237
      2 C          -0.6455   -1.8583   -0.0011 C.ar    1  LIG1       -0.0541
      3 C          -0.1379   -0.5287   -0.0002 C.ar    1  LIG1       -0.0455
      4 C          -1.1221    0.4376    0.0009 C.ar    1  LIG1        0.0355
      5 S          -2.7070   -0.3217    0.0010 S.2     1  LIG1       -0.0952
      6 H          -2.6554   -2.7820   -0.0011 H       1  LIG1        0.0693
      7 H          -0.0163   -2.7412   -0.0020 H       1  LIG1        0.0623
      8 H           0.9187   -0.2886   -0.0005 H       1  LIG1        0.0629
      9 C          -0.9641    1.8745    0.0019 C.ar    1  LIG1        0.0536
     10 C           0.1940    2.6519    0.0024 C.ar    1  LIG1       -0.0352
     11 C          -0.1893    4.0089    0.0035 C.ar    1  LIG1       -0.0328
     12 C          -1.5805    4.0533    0.0036 C.ar    1  LIG1        0.0825
     13 N          -2.0282    2.7514    0.0027 N.ar    1  LIG1       -0.3514
     14 H          -3.0054    2.5021    0.0024 H       1  LIG1        0.1660
     15 H           1.2041    2.2686    0.0021 H       1  LIG1        0.0639
     16 H           0.4670    4.8671    0.0042 H       1  LIG1        0.0640
     17 C          -2.5012    5.1594    0.0044 C.ar    1  LIG1        0.1509
     18 C          -2.3590    6.5236    0.0049 C.ar    1  LIG1       -0.0144
     19 C          -3.6808    7.0703    0.0056 C.ar    1  LIG1       -0.0233
     20 C          -4.5373    6.0134    0.0056 C.ar    1  LIG1        0.0926
     21 O          -3.8373    4.8377    0.0047 O.2     1  LIG1       -0.4615
     22 H          -5.6115    5.9206    0.0060 H       1  LIG1        0.1029
     23 H          -1.4261    7.0677    0.0048 H       1  LIG1        0.0656
     24 H          -3.9537    8.1157    0.0061 H       1  LIG1        0.0649
@<TRIPOS>BOND
     1     7     2    1
     2     6     1    1
     3     2     1   ar
     4     2     3   ar
     5     1     5   ar
     6     8     3    1
     7     3     4   ar
     8     4     5   ar
     9     4     9    1
    10     9    10   ar
    11     9    13   ar
    12    15    10    1
    13    10    11   ar
    14    14    13    1
    15    13    12   ar
    16    11    12   ar
    17    11    16    1
    18    12    17    1
    19    17    21   ar
    20    17    18   ar
    21    21    20   ar
    22    23    18    1
    23    18    19   ar
    24    19    20   ar
    25    19    24    1
    26    20    22    1
