@<TRIPOS>MOLECULE
mol_data/opt/b3lyp/geoms/mol2/51313-.out
 25 27 0 0 0
SMALL
GASTEIGER

@<TRIPOS>ATOM
      1 C          -2.0082   -1.9347   -0.0012 C.ar    1  LIG1       -0.0237
      2 C          -0.6427   -1.8804   -0.0013 C.ar    1  LIG1       -0.0541
      3 C          -0.1315   -0.5519   -0.0001 C.ar    1  LIG1       -0.0455
      4 C          -1.1128    0.4175    0.0009 C.ar    1  LIG1        0.0355
      5 S          -2.6999   -0.3391    0.0003 S.2     1  LIG1       -0.0952
      6 H          -2.6546   -2.8003   -0.0020 H       1  LIG1        0.0693
      7 H          -0.0150   -2.7643   -0.0021 H       1  LIG1        0.0623
      8 H           0.9260   -0.3153    0.0000 H       1  LIG1        0.0629
      9 C          -0.9534    1.8537    0.0021 C.ar    1  LIG1        0.0536
     10 C           0.2009    2.6311    0.0032 C.ar    1  LIG1       -0.0353
     11 C          -0.1875    3.9886    0.0042 C.ar    1  LIG1       -0.0344
     12 C          -1.5795    4.0378    0.0037 C.ar    1  LIG1        0.0633
     13 N          -2.0201    2.7332    0.0025 N.ar    1  LIG1       -0.3526
     14 H          -2.9912    2.4645    0.0013 H       1  LIG1        0.1660
     15 H           1.2119    2.2507    0.0034 H       1  LIG1        0.0639
     16 H           0.4796    4.8397    0.0054 H       1  LIG1        0.0639
     17 C          -2.4983    5.1525    0.0043 C.ar    1  LIG1        0.0629
     18 C          -3.8878    5.2037    0.0057 C.ar    1  LIG1       -0.0350
     19 C          -4.2744    6.5698    0.0059 C.ar    1  LIG1       -0.0438
     20 C          -3.1211    7.3250    0.0039 C.ar    1  LIG1        0.0022
     21 N          -2.0543    6.4597    0.0033 N.ar    1  LIG1       -0.3595
     22 H          -1.0855    6.7332    0.0020 H       1  LIG1        0.1654
     23 H          -2.9721    8.3940    0.0031 H       1  LIG1        0.0807
     24 H          -4.5556    4.3530    0.0069 H       1  LIG1        0.0639
     25 H          -5.2838    6.9551    0.0071 H       1  LIG1        0.0633
@<TRIPOS>BOND
     1     7     2    1
     2     6     1    1
     3     2     1   ar
     4     2     3   ar
     5     1     5   ar
     6     3     8    1
     7     3     4   ar
     8     5     4   ar
     9     4     9    1
    10    14    13    1
    11    22    21    1
    12     9    13   ar
    13     9    10   ar
    14    13    12   ar
    15    23    20    1
    16    10    15    1
    17    10    11   ar
    18    21    20   ar
    19    21    17   ar
    20    12    11   ar
    21    12    17    1
    22    20    19   ar
    23    11    16    1
    24    17    18   ar
    25    18    19   ar
    26    18    24    1
    27    19    25    1
