@<TRIPOS>MOLECULE
mol_data/opt/b3lyp/geoms/mol2/51313.out
 25 27 0 0 0
SMALL
GASTEIGER

@<TRIPOS>ATOM
      1 C          -1.9686   -1.9619   -0.0017 C.ar    1  LIG1       -0.0237
      2 C          -0.6042   -1.8898   -0.0018 C.ar    1  LIG1       -0.0541
      3 C          -0.1083   -0.5554   -0.0004 C.ar    1  LIG1       -0.0455
      4 C          -1.1006    0.4030    0.0008 C.ar    1  LIG1        0.0355
      5 S          -2.6793   -0.3737    0.0001 S.2     1  LIG1       -0.0952
      6 H          -2.6046   -2.8351   -0.0026 H       1  LIG1        0.0693
      7 H           0.0343   -2.7661   -0.0028 H       1  LIG1        0.0623
      8 H           0.9462   -0.3064   -0.0003 H       1  LIG1        0.0629
      9 C          -0.9603    1.8401    0.0023 C.ar    1  LIG1        0.0536
     10 C           0.1797    2.6381    0.0036 C.ar    1  LIG1       -0.0353
     11 C          -0.2301    3.9875    0.0048 C.ar    1  LIG1       -0.0344
     12 C          -1.6221    4.0183    0.0041 C.ar    1  LIG1        0.0633
     13 N          -2.0434    2.7032    0.0027 N.ar    1  LIG1       -0.3526
     14 H          -3.0015    2.3939    0.0006 H       1  LIG1        0.1660
     15 H           1.1970    2.2742    0.0039 H       1  LIG1        0.0639
     16 H           0.4116    4.8564    0.0062 H       1  LIG1        0.0639
     17 C          -2.5184    5.1527    0.0047 C.ar    1  LIG1        0.0629
     18 C          -2.2266    6.5116    0.0034 C.ar    1  LIG1       -0.0350
     19 C          -3.4524    7.2250    0.0045 C.ar    1  LIG1       -0.0438
     20 C          -4.4717    6.2977    0.0073 C.ar    1  LIG1        0.0022
     21 N          -3.8987    5.0466    0.0068 N.ar    1  LIG1       -0.3595
     22 H          -4.4258    4.1895    0.0090 H       1  LIG1        0.1654
     23 H          -5.5444    6.4179    0.0092 H       1  LIG1        0.0807
     24 H          -1.2324    6.9344    0.0014 H       1  LIG1        0.0639
     25 H          -3.5746    8.2987    0.0037 H       1  LIG1        0.0633
@<TRIPOS>BOND
     1     7     2    1
     2     6     1    1
     3     2     1   ar
     4     2     3   ar
     5     1     5   ar
     6     3     8    1
     7     3     4   ar
     8     5     4   ar
     9    14    13    1
    10     4     9    1
    11    24    18    1
    12     9    13   ar
    13     9    10   ar
    14    13    12   ar
    15    18    19   ar
    16    18    17   ar
    17    10    15    1
    18    10    11   ar
    19    25    19    1
    20    12    17    1
    21    12    11   ar
    22    19    20   ar
    23    17    21   ar
    24    11    16    1
    25    21    20   ar
    26    21    22    1
    27    20    23    1
