@<TRIPOS>MOLECULE
mol_data/opt/b3lyp/geoms/mol2/5134-.out
 27 29 0 0 0
SMALL
GASTEIGER

@<TRIPOS>ATOM
      1 C          -1.9849   -1.9669   -0.0013 C.ar    1  LIG1       -0.0237
      2 C          -0.6197   -1.9057   -0.0010 C.ar    1  LIG1       -0.0541
      3 C          -0.1165   -0.5742    0.0002 C.ar    1  LIG1       -0.0455
      4 C          -1.1034    0.3889    0.0008 C.ar    1  LIG1        0.0355
      5 S          -2.6859   -0.3761    0.0001 S.2     1  LIG1       -0.0952
      6 H          -2.6263   -2.8362   -0.0021 H       1  LIG1        0.0693
      7 H           0.0125   -2.7864   -0.0017 H       1  LIG1        0.0623
      8 H           0.9393   -0.3306    0.0005 H       1  LIG1        0.0629
      9 C          -0.9490    1.8266    0.0020 C.ar    1  LIG1        0.0536
     10 C           0.2054    2.6067    0.0032 C.ar    1  LIG1       -0.0353
     11 C          -0.1882    3.9597    0.0040 C.ar    1  LIG1       -0.0358
     12 C          -1.5808    4.0108    0.0033 C.ar    1  LIG1        0.0469
     13 N          -2.0150    2.7006    0.0022 N.ar    1  LIG1       -0.3537
     14 H          -2.9815    2.4175    0.0008 H       1  LIG1        0.1659
     15 H           1.2175    2.2287    0.0035 H       1  LIG1        0.0639
     16 H           0.4740    4.8130    0.0052 H       1  LIG1        0.0639
     17 C          -3.8929    4.9934    0.0043 C.ar    1  LIG1       -0.0526
     18 C          -4.7433    6.0968    0.0046 C.ar    1  LIG1       -0.0611
     19 C          -2.4938    5.1512    0.0036 C.ar    1  LIG1       -0.0017
     20 C          -4.2226    7.3909    0.0042 C.ar    1  LIG1       -0.0617
     21 H          -5.8183    5.9417    0.0051 H       1  LIG1        0.0618
     22 C          -1.9856    6.4656    0.0032 C.ar    1  LIG1       -0.0526
     23 C          -2.8364    7.5655    0.0035 C.ar    1  LIG1       -0.0611
     24 H          -0.9124    6.6242    0.0026 H       1  LIG1        0.0624
     25 H          -4.8856    8.2506    0.0044 H       1  LIG1        0.0618
     26 H          -4.3378    4.0022    0.0049 H       1  LIG1        0.0624
     27 H          -2.4144    8.5665    0.0032 H       1  LIG1        0.0618
@<TRIPOS>BOND
     1     6     1    1
     2     7     2    1
     3     1     2   ar
     4     1     5   ar
     5     2     3   ar
     6     5     4   ar
     7     3     8    1
     8     3     4   ar
     9    14    13    1
    10     4     9    1
    11     9    13   ar
    12     9    10   ar
    13    13    12   ar
    14    24    22    1
    15    10    15    1
    16    10    11   ar
    17    22    23   ar
    18    22    19   ar
    19    27    23    1
    20    12    19    1
    21    12    11   ar
    22    23    20   ar
    23    19    17   ar
    24    11    16    1
    25    20    25    1
    26    20    18   ar
    27    17    18   ar
    28    17    26    1
    29    18    21    1
