@<TRIPOS>MOLECULE
mol_data/opt/b3lyp/geoms/mol2/5134.out
 27 29 0 0 0
SMALL
GASTEIGER

@<TRIPOS>ATOM
      1 C          -1.9555   -1.9772   -0.0016 C.ar    1  LIG1       -0.0237
      2 C          -0.5908   -1.9047   -0.0020 C.ar    1  LIG1       -0.0541
      3 C          -0.0986   -0.5692   -0.0006 C.ar    1  LIG1       -0.0455
      4 C          -1.0933    0.3858    0.0007 C.ar    1  LIG1        0.0355
      5 S          -2.6695   -0.3921    0.0005 S.2     1  LIG1       -0.0952
      6 H          -2.5898   -2.8517   -0.0024 H       1  LIG1        0.0693
      7 H           0.0486   -2.7803   -0.0032 H       1  LIG1        0.0623
      8 H           0.9552   -0.3170   -0.0008 H       1  LIG1        0.0629
      9 C          -0.9507    1.8247    0.0023 C.ar    1  LIG1        0.0536
     10 C           0.1973    2.6143    0.0031 C.ar    1  LIG1       -0.0353
     11 C          -0.2075    3.9639    0.0045 C.ar    1  LIG1       -0.0358
     12 C          -1.6004    4.0036    0.0045 C.ar    1  LIG1        0.0469
     13 N          -2.0238    2.6899    0.0032 N.ar    1  LIG1       -0.3537
     14 H          -2.9880    2.3990    0.0022 H       1  LIG1        0.1659
     15 H           1.2124    2.2446    0.0028 H       1  LIG1        0.0639
     16 H           0.4478    4.8226    0.0057 H       1  LIG1        0.0639
     17 C          -2.0251    6.4550    0.0054 C.ar    1  LIG1       -0.0526
     18 C          -2.8847    7.5480    0.0064 C.ar    1  LIG1       -0.0611
     19 C          -2.5227    5.1365    0.0056 C.ar    1  LIG1       -0.0017
     20 C          -4.2694    7.3622    0.0076 C.ar    1  LIG1       -0.0617
     21 H          -2.4707    8.5522    0.0062 H       1  LIG1        0.0618
     22 C          -3.9205    4.9675    0.0069 C.ar    1  LIG1       -0.0526
     23 C          -4.7798    6.0641    0.0079 C.ar    1  LIG1       -0.0611
     24 H          -4.3577    3.9728    0.0073 H       1  LIG1        0.0624
     25 H          -4.9394    8.2165    0.0084 H       1  LIG1        0.0618
     26 H          -0.9530    6.6219    0.0043 H       1  LIG1        0.0624
     27 H          -5.8536    5.9004    0.0089 H       1  LIG1        0.0618
@<TRIPOS>BOND
     1     7     2    1
     2     6     1    1
     3     2     1   ar
     4     2     3   ar
     5     1     5   ar
     6     8     3    1
     7     3     4   ar
     8     5     4   ar
     9     4     9    1
    10    14    13    1
    11     9    10   ar
    12     9    13   ar
    13    15    10    1
    14    10    11   ar
    15    13    12   ar
    16    26    17    1
    17    12    11   ar
    18    12    19    1
    19    11    16    1
    20    17    19   ar
    21    17    18   ar
    22    19    22   ar
    23    21    18    1
    24    18    20   ar
    25    22    24    1
    26    22    23   ar
    27    20    23   ar
    28    20    25    1
    29    23    27    1
