@<TRIPOS>MOLECULE
mol_data/opt/b3lyp/geoms/mol2/5135.out
 24 26 0 0 0
SMALL
GASTEIGER

@<TRIPOS>ATOM
      1 C          -2.0076   -1.9308   -0.0009 C.ar    1  LIG1       -0.0237
      2 C          -0.6419   -1.8756   -0.0011 C.ar    1  LIG1       -0.0541
      3 C          -0.1332   -0.5465   -0.0001 C.ar    1  LIG1       -0.0455
      4 C          -1.1166    0.4207    0.0009 C.ar    1  LIG1        0.0355
      5 S          -2.7022   -0.3374    0.0007 S.2     1  LIG1       -0.0952
      6 H          -2.6528   -2.7974   -0.0015 H       1  LIG1        0.0693
      7 H          -0.0135   -2.7590   -0.0020 H       1  LIG1        0.0623
      8 H           0.9236   -0.3074   -0.0002 H       1  LIG1        0.0629
      9 C          -0.9550    1.8569    0.0021 C.ar    1  LIG1        0.0536
     10 C           0.2042    2.6310    0.0028 C.ar    1  LIG1       -0.0353
     11 C          -0.1773    3.9870    0.0038 C.ar    1  LIG1       -0.0353
     12 C          -1.5701    4.0431    0.0036 C.ar    1  LIG1        0.0536
     13 N          -2.0172    2.7377    0.0026 N.ar    1  LIG1       -0.3533
     14 H          -2.9881    2.4645    0.0017 H       1  LIG1        0.1659
     15 H           1.2137    2.2458    0.0027 H       1  LIG1        0.0639
     16 H           0.4832    4.8420    0.0048 H       1  LIG1        0.0639
     17 C          -2.4568    5.1844    0.0043 C.ar    1  LIG1        0.0355
     18 C          -2.1220    6.5225    0.0035 C.ar    1  LIG1       -0.0455
     19 C          -3.2491    7.3913    0.0046 C.ar    1  LIG1       -0.0541
     20 C          -4.4432    6.7263    0.0062 C.ar    1  LIG1       -0.0237
     21 S          -4.2051    5.0045    0.0065 S.2     1  LIG1       -0.0952
     22 H          -5.4456    7.1294    0.0072 H       1  LIG1        0.0693
     23 H          -1.0955    6.8695    0.0020 H       1  LIG1        0.0629
     24 H          -3.1735    8.4728    0.0041 H       1  LIG1        0.0623
@<TRIPOS>BOND
     1     7     2    1
     2     6     1    1
     3     2     1   ar
     4     2     3   ar
     5     1     5   ar
     6     8     3    1
     7     3     4   ar
     8     5     4   ar
     9     4     9    1
    10    14    13    1
    11    23    18    1
    12     9    13   ar
    13     9    10   ar
    14    13    12   ar
    15    15    10    1
    16    10    11   ar
    17    18    17   ar
    18    18    19   ar
    19    12    11   ar
    20    12    17    1
    21    11    16    1
    22    24    19    1
    23    17    21   ar
    24    19    20   ar
    25    20    21   ar
    26    20    22    1
