@<TRIPOS>MOLECULE
mol_data/opt/b3lyp/geoms/mol2/5135-4-.out
 34 37 0 0 0
SMALL
GASTEIGER

@<TRIPOS>ATOM
      1 C          -1.9432   -2.0809   -0.0010 C.ar    1  LIG1       -0.0237
      2 C          -0.5783   -2.0091   -0.0016 C.ar    1  LIG1       -0.0541
      3 C          -0.0854   -0.6742   -0.0006 C.ar    1  LIG1       -0.0455
      4 C          -1.0803    0.2813    0.0007 C.ar    1  LIG1        0.0355
      5 S          -2.6569   -0.4957    0.0008 S.2     1  LIG1       -0.0952
      6 H          -2.5780   -2.9549   -0.0016 H       1  LIG1        0.0693
      7 H           0.0604   -2.8849   -0.0027 H       1  LIG1        0.0623
      8 H           0.9685   -0.4226   -0.0009 H       1  LIG1        0.0629
      9 C          -0.9371    1.7190    0.0020 C.ar    1  LIG1        0.0536
     10 C           0.2129    2.5076    0.0025 C.ar    1  LIG1       -0.0353
     11 C          -0.1864    3.8580    0.0037 C.ar    1  LIG1       -0.0353
     12 C          -1.5799    3.8970    0.0038 C.ar    1  LIG1        0.0536
     13 N          -2.0106    2.5850    0.0028 N.ar    1  LIG1       -0.3533
     14 H          -2.9775    2.3021    0.0021 H       1  LIG1        0.1659
     15 H           1.2269    2.1351    0.0022 H       1  LIG1        0.0639
     16 H           0.4633    4.7216    0.0045 H       1  LIG1        0.0639
     17 C          -2.5002    5.0068    0.0048 C.ar    1  LIG1        0.0361
     18 C          -3.8812    5.0009    0.0063 C.ar    1  LIG1       -0.0449
     19 C          -4.4558    6.2958    0.0069 C.ar    1  LIG1       -0.0463
     20 C          -3.5370    7.3232    0.0060 C.ar    1  LIG1        0.0200
     21 S          -1.9089    6.6560    0.0042 S.2     1  LIG1       -0.0868
     22 H          -4.4784    4.0953    0.0071 H       1  LIG1        0.0630
     23 H          -5.5270    6.4588    0.0082 H       1  LIG1        0.0629
     24 C          -5.0819    9.2856    0.0060 C.ar    1  LIG1       -0.0535
     25 C          -5.3141   10.6571    0.0064 C.ar    1  LIG1       -0.0612
     26 C          -3.7700    8.7703    0.0064 C.ar    1  LIG1       -0.0113
     27 C          -4.2461   11.5572    0.0071 C.ar    1  LIG1       -0.0617
     28 H          -6.3362   11.0250    0.0061 H       1  LIG1        0.0618
     29 C          -2.7057    9.6917    0.0070 C.ar    1  LIG1       -0.0535
     30 C          -2.9409   11.0641    0.0074 C.ar    1  LIG1       -0.0612
     31 H          -1.6804    9.3333    0.0074 H       1  LIG1        0.0624
     32 H          -4.4293   12.6273    0.0074 H       1  LIG1        0.0618
     33 H          -5.9283    8.6069    0.0053 H       1  LIG1        0.0624
     34 H          -2.0989   11.7502    0.0079 H       1  LIG1        0.0618
@<TRIPOS>BOND
     1     7     2    1
     2     2     1   ar
     3     2     3   ar
     4     6     1    1
     5     1     5   ar
     6     8     3    1
     7     3     4   ar
     8     4     5   ar
     9     4     9    1
    10     9    10   ar
    11     9    13   ar
    12    14    13    1
    13    15    10    1
    14    10    11   ar
    15    13    12   ar
    16    11    12   ar
    17    11    16    1
    18    12    17    1
    19    21    17   ar
    20    21    20   ar
    21    17    18   ar
    22    33    24    1
    23    20    26    1
    24    20    19   ar
    25    24    26   ar
    26    24    25   ar
    27    28    25    1
    28    18    19   ar
    29    18    22    1
    30    26    29   ar
    31    25    27   ar
    32    19    23    1
    33    29    30   ar
    34    29    31    1
    35    27    32    1
    36    27    30   ar
    37    30    34    1
