@<TRIPOS>MOLECULE
mol_data/opt/b3lyp/geoms/mol2/5135-.out
 24 26 0 0 0
SMALL
GASTEIGER

@<TRIPOS>ATOM
      1 C          -1.9756   -1.9570   -0.0009 C.ar    1  LIG1       -0.0237
      2 C          -0.6107   -1.8859   -0.0014 C.ar    1  LIG1       -0.0541
      3 C          -0.1170   -0.5510   -0.0004 C.ar    1  LIG1       -0.0455
      4 C          -1.1112    0.4050    0.0008 C.ar    1  LIG1        0.0355
      5 S          -2.6880   -0.3714    0.0008 S.2     1  LIG1       -0.0952
      6 H          -2.6108   -2.8309   -0.0015 H       1  LIG1        0.0693
      7 H           0.0277   -2.7621   -0.0024 H       1  LIG1        0.0623
      8 H           0.9371   -0.3002   -0.0006 H       1  LIG1        0.0629
      9 C          -0.9683    1.8433    0.0020 C.ar    1  LIG1        0.0536
     10 C           0.1798    2.6332    0.0026 C.ar    1  LIG1       -0.0353
     11 C          -0.2222    3.9839    0.0038 C.ar    1  LIG1       -0.0353
     12 C          -1.6146    4.0201    0.0038 C.ar    1  LIG1        0.0536
     13 N          -2.0432    2.7083    0.0028 N.ar    1  LIG1       -0.3533
     14 H          -3.0098    2.4245    0.0020 H       1  LIG1        0.1659
     15 H           1.1945    2.2626    0.0024 H       1  LIG1        0.0639
     16 H           0.4263    4.8486    0.0047 H       1  LIG1        0.0639
     17 C          -2.5402    5.1299    0.0047 C.ar    1  LIG1        0.0355
     18 C          -3.9201    5.1177    0.0061 C.ar    1  LIG1       -0.0455
     19 C          -4.5012    6.4181    0.0065 C.ar    1  LIG1       -0.0541
     20 C          -3.5703    7.4183    0.0055 C.ar    1  LIG1       -0.0237
     21 S          -1.9532    6.7831    0.0040 S.2     1  LIG1       -0.0952
     22 H          -3.7275    8.4875    0.0056 H       1  LIG1        0.0693
     23 H          -4.5119    4.2086    0.0069 H       1  LIG1        0.0629
     24 H          -5.5702    6.5982    0.0076 H       1  LIG1        0.0623
@<TRIPOS>BOND
     1     7     2    1
     2     6     1    1
     3     2     1   ar
     4     2     3   ar
     5     1     5   ar
     6     8     3    1
     7     3     4   ar
     8     5     4   ar
     9     4     9    1
    10    14    13    1
    11     9    10   ar
    12     9    13   ar
    13    15    10    1
    14    10    11   ar
    15    13    12   ar
    16    12    11   ar
    17    12    17    1
    18    11    16    1
    19    21    17   ar
    20    21    20   ar
    21    17    18   ar
    22    20    22    1
    23    20    19   ar
    24    18    19   ar
    25    18    23    1
    26    19    24    1
