@<TRIPOS>MOLECULE
mol_data/opt/b3lyp/geoms/mol2/5138-5.out
 30 33 0 0 0
SMALL
GASTEIGER

@<TRIPOS>ATOM
      1 C          -2.0425   -1.9196   -0.0003 C.ar    1  LIG1       -0.0237
      2 C          -0.6753   -1.8820   -0.0009 C.ar    1  LIG1       -0.0541
      3 C          -0.1543   -0.5587   -0.0003 C.ar    1  LIG1       -0.0455
      4 C          -1.1300    0.4162    0.0009 C.ar    1  LIG1        0.0355
      5 S          -2.7222   -0.3229    0.0012 S.2     1  LIG1       -0.0952
      6 H          -2.6960   -2.7800   -0.0007 H       1  LIG1        0.0693
      7 H          -0.0571   -2.7723   -0.0019 H       1  LIG1        0.0623
      8 H           0.9049   -0.3294   -0.0007 H       1  LIG1        0.0629
      9 C          -0.9492    1.8507    0.0019 C.ar    1  LIG1        0.0536
     10 C           0.2347    2.6025    0.0020 C.ar    1  LIG1       -0.0352
     11 C          -0.1144    3.9621    0.0032 C.ar    1  LIG1       -0.0326
     12 C          -1.5069    4.0342    0.0034 C.ar    1  LIG1        0.0880
     13 N          -1.9885    2.7432    0.0027 N.ar    1  LIG1       -0.3512
     14 H          -2.9776    2.5365    0.0028 H       1  LIG1        0.1660
     15 H           1.2341    2.1926    0.0015 H       1  LIG1        0.0639
     16 H           0.5489    4.8137    0.0037 H       1  LIG1        0.0640
     17 C          -2.4064    5.1546    0.0043 C.ar    1  LIG1        0.2194
     18 N          -3.7346    4.8857    0.0045 N.ar    1  LIG1       -0.1237
     19 C          -4.0460    7.1454    0.0061 C.ar    1  LIG1        0.2099
     20 N          -1.8820    6.4080    0.0050 N.ar    1  LIG1       -0.1237
     21 N          -4.5664    5.8993    0.0054 N.ar    1  LIG1       -0.1246
     22 N          -2.7150    7.4153    0.0059 N.ar    1  LIG1       -0.1246
     23 C          -4.9633    8.2681    0.0071 C.ar    1  LIG1        0.0598
     24 C          -4.6522    9.6111    0.0078 C.ar    1  LIG1       -0.0438
     25 C          -5.8024   10.4435    0.0088 C.ar    1  LIG1       -0.0540
     26 C          -6.9713    9.7259    0.0088 C.ar    1  LIG1       -0.0236
     27 S          -6.6944    8.0176    0.0076 S.2     1  LIG1       -0.0934
     28 H          -7.9844   10.1043    0.0095 H       1  LIG1        0.0693
     29 H          -3.6287    9.9647    0.0077 H       1  LIG1        0.0630
     30 H          -5.7656   11.5266    0.0095 H       1  LIG1        0.0623
@<TRIPOS>BOND
     1     7     2    1
     2     2     1   ar
     3     2     3   ar
     4     8     3    1
     5     6     1    1
     6     1     5   ar
     7     3     4   ar
     8     4     5   ar
     9     4     9    1
    10    15    10    1
    11     9    10   ar
    12     9    13   ar
    13    10    11   ar
    14    13    14    1
    15    13    12   ar
    16    11    12   ar
    17    11    16    1
    18    12    17    1
    19    17    18   ar
    20    17    20   ar
    21    18    21   ar
    22    20    22   ar
    23    21    19   ar
    24    22    19   ar
    25    19    23    1
    26    23    27   ar
    27    23    24   ar
    28    27    26   ar
    29    29    24    1
    30    24    25   ar
    31    25    26   ar
    32    25    30    1
    33    26    28    1
