@<TRIPOS>MOLECULE
mol_data/opt/b3lyp/geoms/mol2/5138-12-.out
 30 33 0 0 0
SMALL
GASTEIGER

@<TRIPOS>ATOM
      1 C          -2.0868   -1.8945   -0.0004 C.ar    1  LIG1       -0.0237
      2 C          -0.7193   -1.8705   -0.0011 C.ar    1  LIG1       -0.0541
      3 C          -0.1850   -0.5524   -0.0004 C.ar    1  LIG1       -0.0455
      4 C          -1.1507    0.4323    0.0009 C.ar    1  LIG1        0.0355
      5 S          -2.7502   -0.2908    0.0012 S.2     1  LIG1       -0.0952
      6 H          -2.7490   -2.7484   -0.0008 H       1  LIG1        0.0693
      7 H          -0.1099   -2.7669   -0.0021 H       1  LIG1        0.0623
      8 H           0.8764   -0.3335   -0.0008 H       1  LIG1        0.0629
      9 C          -0.9567    1.8651    0.0019 C.ar    1  LIG1        0.0536
     10 C           0.2337    2.6066    0.0021 C.ar    1  LIG1       -0.0352
     11 C          -0.1036    3.9692    0.0033 C.ar    1  LIG1       -0.0326
     12 C          -1.4953    4.0535    0.0035 C.ar    1  LIG1        0.0880
     13 N          -1.9881    2.7667    0.0028 N.ar    1  LIG1       -0.3512
     14 H          -2.9790    2.5689    0.0029 H       1  LIG1        0.1660
     15 H           1.2294    2.1878    0.0015 H       1  LIG1        0.0639
     16 H           0.5667    4.8155    0.0038 H       1  LIG1        0.0640
     17 C          -2.3854    5.1818    0.0045 C.ar    1  LIG1        0.2194
     18 N          -3.7176    4.9200    0.0047 N.ar    1  LIG1       -0.1236
     19 C          -4.0094    7.1788    0.0064 C.ar    1  LIG1        0.2381
     20 N          -1.8539    6.4296    0.0052 N.ar    1  LIG1       -0.1236
     21 N          -4.5436    5.9359    0.0056 N.ar    1  LIG1       -0.1220
     22 N          -2.6809    7.4457    0.0062 N.ar    1  LIG1       -0.1220
     23 C          -4.9474    8.2820    0.0075 C.ar    1  LIG1        0.1751
     24 C          -6.3205    8.3119    0.0080 C.ar    1  LIG1       -0.0126
     25 C          -6.6900    9.6876    0.0091 C.ar    1  LIG1       -0.0232
     26 C          -5.5202   10.3928    0.0092 C.ar    1  LIG1        0.0927
     27 O          -4.4525    9.5564    0.0084 O.2     1  LIG1       -0.4597
     28 H          -5.2899   11.4467    0.0098 H       1  LIG1        0.1029
     29 H          -6.9659    7.4469    0.0076 H       1  LIG1        0.0656
     30 H          -7.6886   10.0991    0.0097 H       1  LIG1        0.0649
@<TRIPOS>BOND
     1     7     2    1
     2     2     1   ar
     3     2     3   ar
     4     6     1    1
     5     8     3    1
     6     1     5   ar
     7     3     4   ar
     8     4     5   ar
     9     4     9    1
    10    15    10    1
    11     9    10   ar
    12     9    13   ar
    13    10    11   ar
    14    13    14    1
    15    13    12   ar
    16    11    12   ar
    17    11    16    1
    18    12    17    1
    19    17    18   ar
    20    17    20   ar
    21    18    21   ar
    22    20    22   ar
    23    21    19   ar
    24    22    19   ar
    25    19    23    1
    26    23    24   ar
    27    23    27   ar
    28    29    24    1
    29    24    25   ar
    30    27    26   ar
    31    25    26   ar
    32    25    30    1
    33    26    28    1
