@<TRIPOS>MOLECULE
mol_data/opt/b3lyp/geoms/mol2/54-.out
 19 20 0 0 0
SMALL
GASTEIGER

@<TRIPOS>ATOM
      1 C          -2.0698   -1.8781    0.0003 C.ar    1  LIG1       -0.0237
      2 C          -0.7032   -1.8488   -0.0004 C.ar    1  LIG1       -0.0541
      3 C          -0.1798   -0.5247   -0.0003 C.ar    1  LIG1       -0.0469
      4 C          -1.1444    0.4592    0.0004 C.ar    1  LIG1        0.0193
      5 S          -2.7387   -0.2797    0.0010 S.2     1  LIG1       -0.0967
      6 H          -2.7261   -2.7369    0.0003 H       1  LIG1        0.0693
      7 H          -0.0865   -2.7402   -0.0009 H       1  LIG1        0.0623
      8 H           0.8827   -0.3129   -0.0008 H       1  LIG1        0.0629
      9 C          -2.0756    2.7929    0.0003 C.ar    1  LIG1       -0.0535
     10 C          -1.8998    4.1744    0.0005 C.ar    1  LIG1       -0.0612
     11 C          -0.9731    1.9189    0.0006 C.ar    1  LIG1       -0.0113
     12 C          -0.6169    4.7227    0.0011 C.ar    1  LIG1       -0.0617
     13 H          -2.7705    4.8236    0.0002 H       1  LIG1        0.0618
     14 C           0.3145    2.4889    0.0013 C.ar    1  LIG1       -0.0535
     15 C           0.4885    3.8696    0.0015 C.ar    1  LIG1       -0.0612
     16 H           1.1891    1.8472    0.0017 H       1  LIG1        0.0624
     17 H          -0.4796    5.7998    0.0013 H       1  LIG1        0.0618
     18 H          -3.0843    2.3904   -0.0003 H       1  LIG1        0.0624
     19 H           1.4939    4.2810    0.0020 H       1  LIG1        0.0618
@<TRIPOS>BOND
     1     7     2    1
     2     8     3    1
     3     2     3   ar
     4     2     1   ar
     5     3     4   ar
     6    18     9    1
     7    13    10    1
     8     1     6    1
     9     1     5   ar
    10     9    10   ar
    11     9    11   ar
    12     4    11    1
    13     4     5   ar
    14    10    12   ar
    15    11    14   ar
    16    12    17    1
    17    12    15   ar
    18    14    15   ar
    19    14    16    1
    20    15    19    1
