@<TRIPOS>MOLECULE
mol_data/opt/b3lyp/geoms/mol2/54-13-8-.out
 33 36 0 0 0
SMALL
GASTEIGER

@<TRIPOS>ATOM
      1 C          -2.1615   -2.0060    0.0013 C.ar    1  LIG1       -0.0237
      2 C          -0.7940   -2.0023    0.0006 C.ar    1  LIG1       -0.0541
      3 C          -0.2463   -0.6893    0.0002 C.ar    1  LIG1       -0.0469
      4 C          -1.1942    0.3124    0.0006 C.ar    1  LIG1        0.0193
      5 S          -2.8021   -0.3968    0.0016 S.2     1  LIG1       -0.0967
      6 H          -2.8331   -2.8530    0.0017 H       1  LIG1        0.0693
      7 H          -0.1944   -2.9053    0.0003 H       1  LIG1        0.0623
      8 H           0.8199   -0.4969   -0.0005 H       1  LIG1        0.0629
      9 C          -2.0789    2.6650   -0.0002 C.ar    1  LIG1       -0.0529
     10 C          -1.8813    4.0373   -0.0004 C.ar    1  LIG1       -0.0520
     11 C          -0.9967    1.7640    0.0003 C.ar    1  LIG1       -0.0113
     12 C          -0.5876    4.5910   -0.0002 C.ar    1  LIG1       -0.0017
     13 H          -2.7468    4.6912   -0.0009 H       1  LIG1        0.0624
     14 C           0.2975    2.3193    0.0006 C.ar    1  LIG1       -0.0529
     15 C           0.4959    3.6922    0.0003 C.ar    1  LIG1       -0.0520
     16 H           1.1655    1.6690    0.0011 H       1  LIG1        0.0624
     17 H          -3.0969    2.2872   -0.0004 H       1  LIG1        0.0624
     18 H           1.5182    4.0588    0.0006 H       1  LIG1        0.0624
     19 C          -0.4006    6.0380   -0.0004 C.ar    1  LIG1        0.0470
     20 C          -1.3461    7.0752    0.0000 C.ar    1  LIG1       -0.0357
     21 C          -0.6582    8.2980   -0.0006 C.ar    1  LIG1       -0.0326
     22 C           0.7048    8.0041   -0.0012 C.ar    1  LIG1        0.0879
     23 N           0.8326    6.6330   -0.0012 N.ar    1  LIG1       -0.3516
     24 H           1.7345    6.1805   -0.0018 H       1  LIG1        0.1660
     25 H          -2.4184    6.9482    0.0007 H       1  LIG1        0.0639
     26 H          -1.0775    9.2927   -0.0004 H       1  LIG1        0.0640
     27 C           1.8655    8.8506   -0.0020 C.ar    1  LIG1        0.2193
     28 N           1.6832   10.1967   -0.0020 N.ar    1  LIG1       -0.1243
     29 C           3.9531   10.3277   -0.0035 C.ar    1  LIG1        0.1605
     30 N           3.0767    8.2379   -0.0026 N.ar    1  LIG1       -0.1243
     31 N           2.7614   10.9485   -0.0027 N.ar    1  LIG1       -0.1338
     32 N           4.1491    9.0035   -0.0034 N.ar    1  LIG1       -0.1338
     33 H           4.8358   10.9579   -0.0039 H       1  LIG1        0.1085
@<TRIPOS>BOND
     1    33    29    1
     2    29    32   ar
     3    29    31   ar
     4    32    30   ar
     5    31    28   ar
     6    30    27   ar
     7    27    28   ar
     8    27    22    1
     9    24    23    1
    10    22    23   ar
    11    22    21   ar
    12    23    19   ar
    13    13    10    1
    14    21    26    1
    15    21    20   ar
    16     8     3    1
    17    19    12    1
    18    19    20   ar
    19    17     9    1
    20    10    12   ar
    21    10     9   ar
    22    12    15   ar
    23     9    11   ar
    24    20    25    1
    25     3     4   ar
    26     3     2   ar
    27    15    14   ar
    28    15    18    1
    29     7     2    1
    30    11    14   ar
    31    11     4    1
    32    14    16    1
    33     4     5   ar
    34     2     1   ar
    35     1     5   ar
    36     1     6    1
