@<TRIPOS>MOLECULE
mol_data/opt/b3lyp/geoms/mol2/54-13.out
 27 29 0 0 0
SMALL
GASTEIGER

@<TRIPOS>ATOM
      1 C          -2.0748   -1.9828    0.0006 C.ar    1  LIG1       -0.0237
      2 C          -0.7084   -1.9502    0.0001 C.ar    1  LIG1       -0.0541
      3 C          -0.1864   -0.6258   -0.0001 C.ar    1  LIG1       -0.0469
      4 C          -1.1525    0.3576    0.0003 C.ar    1  LIG1        0.0193
      5 S          -2.7468   -0.3845    0.0009 S.2     1  LIG1       -0.0967
      6 H          -2.7297   -2.8427    0.0008 H       1  LIG1        0.0693
      7 H          -0.0899   -2.8405   -0.0002 H       1  LIG1        0.0623
      8 H           0.8757   -0.4124   -0.0005 H       1  LIG1        0.0629
      9 C          -2.0808    2.6932   -0.0003 C.ar    1  LIG1       -0.0529
     10 C          -1.9080    4.0714   -0.0003 C.ar    1  LIG1       -0.0520
     11 C          -0.9844    1.8135    0.0004 C.ar    1  LIG1       -0.0113
     12 C          -0.6274    4.6545    0.0004 C.ar    1  LIG1       -0.0017
     13 H          -2.7993    4.6929   -0.0010 H       1  LIG1        0.0624
     14 C           0.2988    2.3968    0.0011 C.ar    1  LIG1       -0.0529
     15 C           0.4713    3.7716    0.0011 C.ar    1  LIG1       -0.0520
     16 H           1.1794    1.7631    0.0017 H       1  LIG1        0.0624
     17 H          -3.0924    2.2974   -0.0010 H       1  LIG1        0.0624
     18 H           1.4794    4.1727    0.0018 H       1  LIG1        0.0624
     19 C          -0.4199    6.0989    0.0004 C.ar    1  LIG1        0.0465
     20 C           0.7507    6.8515    0.0003 C.ar    1  LIG1       -0.0364
     21 C           0.3963    8.2233   -0.0001 C.ar    1  LIG1       -0.0438
     22 C          -0.9822    8.2905    0.0010 C.ar    1  LIG1        0.0022
     23 N          -1.4632    7.0071    0.0007 N.ar    1  LIG1       -0.3607
     24 H          -2.4397    6.7643    0.0009 H       1  LIG1        0.1653
     25 H          -1.6516    9.1377    0.0014 H       1  LIG1        0.0807
     26 H           1.7550    6.4535    0.0001 H       1  LIG1        0.0639
     27 H           1.0717    9.0668   -0.0005 H       1  LIG1        0.0633
@<TRIPOS>BOND
     1    13    10    1
     2    17     9    1
     3     8     3    1
     4    27    21    1
     5     9    10   ar
     6     9    11   ar
     7    10    12   ar
     8     7     2    1
     9     3     2   ar
    10     3     4   ar
    11    21    20   ar
    12    21    22   ar
    13     2     1   ar
    14    26    20    1
    15    20    19   ar
    16     4    11    1
    17     4     5   ar
    18    11    14   ar
    19    12    19    1
    20    12    15   ar
    21    19    23   ar
    22     1     6    1
    23     1     5   ar
    24    23    24    1
    25    23    22   ar
    26    22    25    1
    27    14    15   ar
    28    14    16    1
    29    15    18    1
