@<TRIPOS>MOLECULE
mol_data/opt/b3lyp/geoms/mol2/54-1312-.out
 34 37 0 0 0
SMALL
GASTEIGER

@<TRIPOS>ATOM
      1 C          -2.0431   -2.0563    0.0005 C.ar    1  LIG1       -0.0237
      2 C          -0.6768   -2.0186    0.0002 C.ar    1  LIG1       -0.0541
      3 C          -0.1599   -0.6924    0.0001 C.ar    1  LIG1       -0.0469
      4 C          -1.1302    0.2873    0.0003 C.ar    1  LIG1        0.0193
      5 S          -2.7216   -0.4608    0.0008 S.2     1  LIG1       -0.0967
      6 H          -2.6947   -2.9186    0.0007 H       1  LIG1        0.0693
      7 H          -0.0553   -2.9067    0.0000 H       1  LIG1        0.0623
      8 H           0.9015   -0.4749   -0.0003 H       1  LIG1        0.0629
      9 C          -2.0674    2.6192   -0.0004 C.ar    1  LIG1       -0.0529
     10 C          -1.9002    3.9976   -0.0004 C.ar    1  LIG1       -0.0520
     11 C          -0.9673    1.7435    0.0003 C.ar    1  LIG1       -0.0113
     12 C          -0.6211    4.5852    0.0003 C.ar    1  LIG1       -0.0017
     13 H          -2.7936    4.6159   -0.0011 H       1  LIG1        0.0624
     14 C           0.3141    2.3315    0.0010 C.ar    1  LIG1       -0.0529
     15 C           0.4817    3.7064    0.0010 C.ar    1  LIG1       -0.0520
     16 H           1.1968    1.7009    0.0017 H       1  LIG1        0.0624
     17 H          -3.0771    2.2190   -0.0011 H       1  LIG1        0.0624
     18 H           1.4883    4.1112    0.0017 H       1  LIG1        0.0624
     19 C          -0.4195    6.0279    0.0003 C.ar    1  LIG1        0.0470
     20 C           0.7516    6.7847    0.0003 C.ar    1  LIG1       -0.0357
     21 C           0.3992    8.1497    0.0003 C.ar    1  LIG1       -0.0328
     22 C          -0.9899    8.2243    0.0003 C.ar    1  LIG1        0.0825
     23 N          -1.4647    6.9318    0.0004 N.ar    1  LIG1       -0.3518
     24 H          -2.4404    6.6856    0.0003 H       1  LIG1        0.1660
     25 H           1.7567    6.3886    0.0002 H       1  LIG1        0.0639
     26 H           1.0662    8.9986    0.0003 H       1  LIG1        0.0640
     27 C          -1.8668    9.3655    0.0004 C.ar    1  LIG1        0.1509
     28 C          -3.2318    9.5218    0.0006 C.ar    1  LIG1       -0.0144
     29 C          -3.4804   10.9304    0.0005 C.ar    1  LIG1       -0.0233
     30 C          -2.2605   11.5328    0.0003 C.ar    1  LIG1        0.0926
     31 O          -1.2668   10.5966    0.0002 O.2     1  LIG1       -0.4615
     32 H          -1.9359   12.5610    0.0001 H       1  LIG1        0.1029
     33 H          -3.9738    8.7360    0.0009 H       1  LIG1        0.0656
     34 H          -4.4413   11.4239    0.0007 H       1  LIG1        0.0649
@<TRIPOS>BOND
     1    13    10    1
     2    17     9    1
     3    10     9   ar
     4    10    12   ar
     5     9    11   ar
     6     8     3    1
     7     7     2    1
     8     3     2   ar
     9     3     4   ar
    10    32    30    1
    11    31    30   ar
    12    31    27   ar
    13    25    20    1
    14     2     1   ar
    15    30    29   ar
    16    24    23    1
    17    20    21   ar
    18    20    19   ar
    19    21    26    1
    20    21    22   ar
    21    12    19    1
    22    12    15   ar
    23    11     4    1
    24    11    14   ar
    25    19    23   ar
    26    22    23   ar
    27    22    27    1
    28     4     5   ar
    29    27    28   ar
    30    29    28   ar
    31    29    34    1
    32     1     6    1
    33     1     5   ar
    34    28    33    1
    35    15    14   ar
    36    15    18    1
    37    14    16    1
