@<TRIPOS>MOLECULE
mol_data/opt/b3lyp/geoms/mol2/54-4-12.out
 36 39 0 0 0
SMALL
GASTEIGER

@<TRIPOS>ATOM
      1 C          -2.1207   -2.0910    0.0026 C.ar    1  LIG1       -0.0237
      2 C          -0.7536   -2.0740    0.0022 C.ar    1  LIG1       -0.0541
      3 C          -0.2178   -0.7556    0.0014 C.ar    1  LIG1       -0.0469
      4 C          -1.1739    0.2377    0.0011 C.ar    1  LIG1        0.0193
      5 S          -2.7757   -0.4866    0.0020 S.2     1  LIG1       -0.0967
      6 H          -2.7847   -2.9439    0.0032 H       1  LIG1        0.0693
      7 H          -0.1452   -2.9711    0.0025 H       1  LIG1        0.0623
      8 H           0.8465   -0.5530    0.0009 H       1  LIG1        0.0629
      9 C          -2.0756    2.5846   -0.0009 C.ar    1  LIG1       -0.0530
     10 C          -1.8874    3.9600   -0.0017 C.ar    1  LIG1       -0.0534
     11 C          -0.9898    1.6916    0.0003 C.ar    1  LIG1       -0.0113
     12 C          -0.6035    4.5378   -0.0013 C.ar    1  LIG1       -0.0178
     13 H          -2.7708    4.5878   -0.0028 H       1  LIG1        0.0624
     14 C           0.2966    2.2620    0.0007 C.ar    1  LIG1       -0.0530
     15 C           0.4802    3.6373   -0.0001 C.ar    1  LIG1       -0.0534
     16 H           1.1726    1.6220    0.0018 H       1  LIG1        0.0624
     17 H          -3.0920    2.2011   -0.0014 H       1  LIG1        0.0624
     18 H           1.4991    4.0072    0.0004 H       1  LIG1        0.0624
     19 C          -1.4875    6.9093   -0.0026 C.ar    1  LIG1       -0.0534
     20 C          -1.3054    8.2857   -0.0034 C.ar    1  LIG1       -0.0505
     21 C          -0.4030    6.0106   -0.0022 C.ar    1  LIG1       -0.0178
     22 C          -0.0165    8.8448   -0.0038 C.ar    1  LIG1        0.0173
     23 H          -2.1690    8.9414   -0.0037 H       1  LIG1        0.0625
     24 C           0.8842    6.5856   -0.0026 C.ar    1  LIG1       -0.0534
     25 C           1.0753    7.9595   -0.0034 C.ar    1  LIG1       -0.0505
     26 H           1.7654    5.9548   -0.0023 H       1  LIG1        0.0624
     27 H          -2.5054    6.5373   -0.0023 H       1  LIG1        0.0624
     28 H           2.0883    8.3504   -0.0036 H       1  LIG1        0.0625
     29 C           0.1864   10.2853   -0.0046 C.ar    1  LIG1        0.1348
     30 C           1.3011   11.0868   -0.0054 C.ar    1  LIG1       -0.0159
     31 C           0.8402   12.4389   -0.0060 C.ar    1  LIG1       -0.0233
     32 C          -0.5201   12.3749   -0.0056 C.ar    1  LIG1        0.0926
     33 O          -0.9347   11.0779   -0.0048 O.2     1  LIG1       -0.4629
     34 H          -1.3011   13.1188   -0.0058 H       1  LIG1        0.1029
     35 H           2.3288   10.7546   -0.0055 H       1  LIG1        0.0655
     36 H           1.4416   13.3363   -0.0067 H       1  LIG1        0.0649
@<TRIPOS>BOND
     1    36    31    1
     2    31    32   ar
     3    31    30   ar
     4    34    32    1
     5    32    33   ar
     6    35    30    1
     7    30    29   ar
     8    33    29   ar
     9    29    22    1
    10    22    20   ar
    11    22    25   ar
    12    23    20    1
    13    28    25    1
    14    20    19   ar
    15    25    24   ar
    16    13    10    1
    17    19    27    1
    18    19    21   ar
    19    24    26    1
    20    24    21   ar
    21    21    12    1
    22    10    12   ar
    23    10     9   ar
    24    17     9    1
    25    12    15   ar
    26     9    11   ar
    27    15    18    1
    28    15    14   ar
    29    11    14   ar
    30    11     4    1
    31    14    16    1
    32     8     3    1
    33     4     3   ar
    34     4     5   ar
    35     3     2   ar
    36     5     1   ar
    37     2     7    1
    38     2     1   ar
    39     1     6    1
