@<TRIPOS>MOLECULE
mol_data/opt/b3lyp/geoms/mol2/54-4-5-.out
 36 39 0 0 0
SMALL
GASTEIGER

@<TRIPOS>ATOM
      1 C          -2.1215   -2.1065    0.0026 C.ar    1  LIG1       -0.0237
      2 C          -0.7544   -2.0891    0.0022 C.ar    1  LIG1       -0.0541
      3 C          -0.2192   -0.7706    0.0014 C.ar    1  LIG1       -0.0469
      4 C          -1.1760    0.2222    0.0011 C.ar    1  LIG1        0.0193
      5 S          -2.7772   -0.5026    0.0019 S.2     1  LIG1       -0.0967
      6 H          -2.7851   -2.9598    0.0032 H       1  LIG1        0.0693
      7 H          -0.1459   -2.9863    0.0026 H       1  LIG1        0.0623
      8 H           0.8449   -0.5671    0.0010 H       1  LIG1        0.0629
      9 C          -2.0780    2.5693   -0.0009 C.ar    1  LIG1       -0.0530
     10 C          -1.8894    3.9448   -0.0017 C.ar    1  LIG1       -0.0534
     11 C          -0.9922    1.6763    0.0003 C.ar    1  LIG1       -0.0113
     12 C          -0.6052    4.5217   -0.0013 C.ar    1  LIG1       -0.0178
     13 H          -2.7727    4.5726   -0.0027 H       1  LIG1        0.0624
     14 C           0.2945    2.2462    0.0007 C.ar    1  LIG1       -0.0530
     15 C           0.4785    3.6212   -0.0001 C.ar    1  LIG1       -0.0534
     16 H           1.1700    1.6057    0.0017 H       1  LIG1        0.0624
     17 H          -3.0941    2.1856   -0.0014 H       1  LIG1        0.0624
     18 H           1.4966    3.9909    0.0003 H       1  LIG1        0.0624
     19 C          -1.4876    6.8946   -0.0027 C.ar    1  LIG1       -0.0534
     20 C          -1.3039    8.2697   -0.0035 C.ar    1  LIG1       -0.0530
     21 C          -0.4037    5.9943   -0.0022 C.ar    1  LIG1       -0.0178
     22 C          -0.0174    8.8399   -0.0037 C.ar    1  LIG1       -0.0113
     23 H          -2.1795    8.9100   -0.0040 H       1  LIG1        0.0624
     24 C           0.8804    6.5716   -0.0024 C.ar    1  LIG1       -0.0534
     25 C           1.0687    7.9471   -0.0032 C.ar    1  LIG1       -0.0530
     26 H           1.7640    5.9441   -0.0021 H       1  LIG1        0.0624
     27 H          -2.5063    6.5241   -0.0025 H       1  LIG1        0.0624
     28 H           2.0848    8.3308   -0.0033 H       1  LIG1        0.0624
     29 C           0.1661   10.2939   -0.0045 C.ar    1  LIG1        0.0193
     30 C          -0.7909   11.2866   -0.0044 C.ar    1  LIG1       -0.0469
     31 C          -0.2558   12.6053   -0.0053 C.ar    1  LIG1       -0.0541
     32 C           1.1113   12.6228   -0.0061 C.ar    1  LIG1       -0.0237
     33 S           1.7672   11.0190   -0.0058 S.2     1  LIG1       -0.0967
     34 H           1.7748   13.4762   -0.0069 H       1  LIG1        0.0693
     35 H          -1.8549   11.0830   -0.0036 H       1  LIG1        0.0629
     36 H          -0.8644   13.5023   -0.0054 H       1  LIG1        0.0623
@<TRIPOS>BOND
     1    34    32    1
     2    32    33   ar
     3    32    31   ar
     4    33    29   ar
     5    36    31    1
     6    31    30   ar
     7    29    30   ar
     8    29    22    1
     9    30    35    1
    10    23    20    1
    11    22    20   ar
    12    22    25   ar
    13    20    19   ar
    14    28    25    1
    15    25    24   ar
    16    19    27    1
    17    19    21   ar
    18    13    10    1
    19    24    21   ar
    20    24    26    1
    21    21    12    1
    22    10    12   ar
    23    10     9   ar
    24    17     9    1
    25    12    15   ar
    26     9    11   ar
    27    15    18    1
    28    15    14   ar
    29    11    14   ar
    30    11     4    1
    31    14    16    1
    32     8     3    1
    33     4     3   ar
    34     4     5   ar
    35     3     2   ar
    36     5     1   ar
    37     2     7    1
    38     2     1   ar
    39     1     6    1
