@<TRIPOS>MOLECULE
mol_data/opt/b3lyp/geoms/mol2/54-4.out
 29 31 0 0 0
SMALL
GASTEIGER

@<TRIPOS>ATOM
      1 C          -2.0847   -2.0166    0.0001 C.ar    1  LIG1       -0.0237
      2 C          -0.7176   -1.9892   -0.0002 C.ar    1  LIG1       -0.0541
      3 C          -0.1924   -0.6665   -0.0001 C.ar    1  LIG1       -0.0469
      4 C          -1.1567    0.3188    0.0003 C.ar    1  LIG1        0.0193
      5 S          -2.7520   -0.4181    0.0006 S.2     1  LIG1       -0.0967
      6 H          -2.7414   -2.8754    0.0001 H       1  LIG1        0.0693
      7 H          -0.1022   -2.8818   -0.0005 H       1  LIG1        0.0623
      8 H           0.8703   -0.4549   -0.0004 H       1  LIG1        0.0629
      9 C          -2.0760    2.6592   -0.0001 C.ar    1  LIG1       -0.0530
     10 C          -1.8971    4.0363    0.0001 C.ar    1  LIG1       -0.0534
     11 C          -0.9838    1.7744    0.0005 C.ar    1  LIG1       -0.0113
     12 C          -0.6180    4.6229    0.0008 C.ar    1  LIG1       -0.0178
     13 H          -2.7853    4.6572   -0.0005 H       1  LIG1        0.0624
     14 C           0.2981    2.3539    0.0013 C.ar    1  LIG1       -0.0530
     15 C           0.4716    3.7307    0.0014 C.ar    1  LIG1       -0.0534
     16 H           1.1786    1.7201    0.0019 H       1  LIG1        0.0624
     17 H          -3.0895    2.2684   -0.0008 H       1  LIG1        0.0624
     18 H           1.4873    4.1072    0.0021 H       1  LIG1        0.0624
     19 C           0.8576    6.6786    0.0011 C.ar    1  LIG1       -0.0540
     20 C           1.0374    8.0597    0.0013 C.ar    1  LIG1       -0.0612
     21 C          -0.4268    6.1009    0.0010 C.ar    1  LIG1       -0.0179
     22 C          -0.0629    8.9165    0.0014 C.ar    1  LIG1       -0.0617
     23 H           2.0450    8.4657    0.0013 H       1  LIG1        0.0618
     24 C          -1.5222    6.9861    0.0011 C.ar    1  LIG1       -0.0540
     25 C          -1.3451    8.3674    0.0013 C.ar    1  LIG1       -0.0612
     26 H          -2.5356    6.6024    0.0011 H       1  LIG1        0.0624
     27 H           0.0760    9.9934    0.0015 H       1  LIG1        0.0618
     28 H           1.7400    6.0502    0.0010 H       1  LIG1        0.0624
     29 H          -2.2162    9.0163    0.0013 H       1  LIG1        0.0618
@<TRIPOS>BOND
     1    17     9    1
     2     7     2    1
     3    13    10    1
     4     8     3    1
     5     2     3   ar
     6     2     1   ar
     7     9    10   ar
     8     9    11   ar
     9     3     4   ar
    10    10    12   ar
    11     6     1    1
    12     1     5   ar
    13     4    11    1
    14     4     5   ar
    15    11    14   ar
    16    12    21    1
    17    12    15   ar
    18    28    19    1
    19    21    24   ar
    20    21    19   ar
    21    24    26    1
    22    24    25   ar
    23    19    20   ar
    24    25    29    1
    25    25    22   ar
    26    20    23    1
    27    20    22   ar
    28    14    15   ar
    29    14    16    1
    30    22    27    1
    31    15    18    1
