@<TRIPOS>MOLECULE
mol_data/opt/b3lyp/geoms/mol2/54-44.out
 39 42 0 0 0
SMALL
GASTEIGER

@<TRIPOS>ATOM
      1 C          -2.0891   -2.1588   -0.0012 C.ar    1  LIG1       -0.0237
      2 C          -0.7222   -2.1282   -0.0011 C.ar    1  LIG1       -0.0541
      3 C          -0.1996   -0.8046   -0.0005 C.ar    1  LIG1       -0.0469
      4 C          -1.1657    0.1791   -0.0003 C.ar    1  LIG1        0.0193
      5 S          -2.7601   -0.5612   -0.0007 S.2     1  LIG1       -0.0967
      6 H          -2.7444   -3.0184   -0.0016 H       1  LIG1        0.0693
      7 H          -0.1048   -3.0191   -0.0014 H       1  LIG1        0.0623
      8 H           0.8626   -0.5915   -0.0004 H       1  LIG1        0.0629
      9 C          -2.0909    2.5168   -0.0007 C.ar    1  LIG1       -0.0530
     10 C          -1.9160    3.8942   -0.0002 C.ar    1  LIG1       -0.0534
     11 C          -0.9962    1.6348    0.0003 C.ar    1  LIG1       -0.0113
     12 C          -0.6378    4.4838    0.0013 C.ar    1  LIG1       -0.0178
     13 H          -2.8051    4.5139   -0.0011 H       1  LIG1        0.0624
     14 C           0.2848    2.2176    0.0018 C.ar    1  LIG1       -0.0530
     15 C           0.4550    3.5946    0.0023 C.ar    1  LIG1       -0.0534
     16 H           1.1667    1.5859    0.0027 H       1  LIG1        0.0624
     17 H          -3.1033    2.1233   -0.0020 H       1  LIG1        0.0624
     18 H           1.4696    3.9751    0.0036 H       1  LIG1        0.0624
     19 C           0.8250    6.5504    0.0025 C.ar    1  LIG1       -0.0535
     20 C           0.9986    7.9283    0.0030 C.ar    1  LIG1       -0.0535
     21 C          -0.4514    5.9582    0.0019 C.ar    1  LIG1       -0.0178
     22 C          -0.0899    8.8194    0.0029 C.ar    1  LIG1       -0.0178
     23 H           2.0149    8.3046    0.0036 H       1  LIG1        0.0624
     24 C          -1.5403    6.8492    0.0018 C.ar    1  LIG1       -0.0535
     25 C          -1.3659    8.2271    0.0023 C.ar    1  LIG1       -0.0535
     26 H          -2.5565    6.4724    0.0014 H       1  LIG1        0.0624
     27 H           1.7157    5.9329    0.0025 H       1  LIG1        0.0624
     28 H          -2.2568    8.8443    0.0021 H       1  LIG1        0.0624
     29 C           1.3800   10.8787    0.0031 C.ar    1  LIG1       -0.0540
     30 C           1.5561   12.2602    0.0036 C.ar    1  LIG1       -0.0612
     31 C           0.0971   10.2978    0.0035 C.ar    1  LIG1       -0.0179
     32 C           0.4533   13.1141    0.0045 C.ar    1  LIG1       -0.0617
     33 H           2.5625   12.6692    0.0033 H       1  LIG1        0.0618
     34 C          -1.0007   11.1797    0.0044 C.ar    1  LIG1       -0.0540
     35 C          -0.8274   12.5616    0.0049 C.ar    1  LIG1       -0.0612
     36 H          -2.0130   10.7928    0.0048 H       1  LIG1        0.0624
     37 H           0.5894   14.1913    0.0049 H       1  LIG1        0.0618
     38 H           2.2641   10.2520    0.0023 H       1  LIG1        0.0624
     39 H          -1.7003   13.2081    0.0056 H       1  LIG1        0.0618
@<TRIPOS>BOND
     1    17     9    1
     2     6     1    1
     3     7     2    1
     4     1     2   ar
     5     1     5   ar
     6     2     3   ar
     7    13    10    1
     8     5     4   ar
     9     9    10   ar
    10     9    11   ar
    11     3     8    1
    12     3     4   ar
    13     4    11    1
    14    10    12   ar
    15    11    14   ar
    16    12    21    1
    17    12    15   ar
    18    26    24    1
    19    14    15   ar
    20    14    16    1
    21    24    21   ar
    22    24    25   ar
    23    21    19   ar
    24    28    25    1
    25    15    18    1
    26    38    29    1
    27    25    22   ar
    28    19    27    1
    29    19    20   ar
    30    22    20   ar
    31    22    31    1
    32    20    23    1
    33    29    31   ar
    34    29    30   ar
    35    33    30    1
    36    31    34   ar
    37    30    32   ar
    38    34    36    1
    39    34    35   ar
    40    32    35   ar
    41    32    37    1
    42    35    39    1
