@<TRIPOS>MOLECULE
mol_data/opt/b3lyp/geoms/mol2/54-55-.out
 33 36 0 0 0
SMALL
GASTEIGER

@<TRIPOS>ATOM
      1 C          -2.0704   -2.0767    0.0011 C.ar    1  LIG1       -0.0237
      2 C          -0.7033   -2.0538    0.0007 C.ar    1  LIG1       -0.0541
      3 C          -0.1733   -0.7332    0.0003 C.ar    1  LIG1       -0.0469
      4 C          -1.1339    0.2560    0.0005 C.ar    1  LIG1        0.0193
      5 S          -2.7328   -0.4751    0.0012 S.2     1  LIG1       -0.0967
      6 H          -2.7307   -2.9323    0.0015 H       1  LIG1        0.0693
      7 H          -0.0914   -2.9484    0.0005 H       1  LIG1        0.0623
      8 H           0.8903   -0.5262   -0.0002 H       1  LIG1        0.0629
      9 C          -2.0477    2.5971   -0.0004 C.ar    1  LIG1       -0.0529
     10 C          -1.8661    3.9728   -0.0007 C.ar    1  LIG1       -0.0529
     11 C          -0.9559    1.7103    0.0003 C.ar    1  LIG1       -0.0113
     12 C          -0.5808    4.5454   -0.0002 C.ar    1  LIG1       -0.0113
     13 H          -2.7438    4.6123   -0.0013 H       1  LIG1        0.0624
     14 C           0.3319    2.2833    0.0008 C.ar    1  LIG1       -0.0529
     15 C           0.5141    3.6570    0.0006 C.ar    1  LIG1       -0.0529
     16 H           1.2080    1.6436    0.0015 H       1  LIG1        0.0624
     17 H          -3.0613    2.2070   -0.0009 H       1  LIG1        0.0624
     18 H           1.5266    4.0466    0.0011 H       1  LIG1        0.0624
     19 C          -0.3739    5.9928   -0.0004 C.ar    1  LIG1        0.0199
     20 C           0.8109    6.7001   -0.0010 C.ar    1  LIG1       -0.0463
     21 C           0.6467    8.1060   -0.0011 C.ar    1  LIG1       -0.0458
     22 C          -0.6716    8.5122   -0.0006 C.ar    1  LIG1        0.0265
     23 S          -1.7295    7.1128    0.0001 S.2     1  LIG1       -0.0877
     24 H           1.7845    6.2249   -0.0016 H       1  LIG1        0.0629
     25 H           1.4773    8.8029   -0.0017 H       1  LIG1        0.0629
     26 C          -1.2150    9.8536   -0.0005 C.ar    1  LIG1        0.0259
     27 C          -2.5339   10.2577   -0.0008 C.ar    1  LIG1       -0.0464
     28 C          -2.6976   11.6710   -0.0007 C.ar    1  LIG1       -0.0541
     29 C          -1.5079   12.3449   -0.0003 C.ar    1  LIG1       -0.0237
     30 S          -0.1560   11.2565    0.0000 S.2     1  LIG1       -0.0961
     31 H          -1.3370   13.4120   -0.0001 H       1  LIG1        0.0693
     32 H          -3.3626    9.5585   -0.0012 H       1  LIG1        0.0629
     33 H          -3.6622   12.1651   -0.0009 H       1  LIG1        0.0623
@<TRIPOS>BOND
     1    25    21    1
     2    24    20    1
     3    13    10    1
     4    32    27    1
     5    21    20   ar
     6    21    22   ar
     7    20    19   ar
     8    17     9    1
     9    33    28    1
    10    27    28   ar
    11    27    26   ar
    12    28    29   ar
    13    10     9   ar
    14    10    12   ar
    15    22    26    1
    16    22    23   ar
    17    26    30   ar
    18     9    11   ar
    19    19    12    1
    20    19    23   ar
    21    29    31    1
    22    29    30   ar
    23    12    15   ar
    24     8     3    1
    25    11     4    1
    26    11    14   ar
    27     3     4   ar
    28     3     2   ar
    29     7     2    1
    30     4     5   ar
    31    15    14   ar
    32    15    18    1
    33     2     1   ar
    34    14    16    1
    35     1     5   ar
    36     1     6    1
