@<TRIPOS>MOLECULE
mol_data/opt/b3lyp/geoms/mol2/54-5-13.out
 34 37 0 0 0
SMALL
GASTEIGER

@<TRIPOS>ATOM
      1 C          -2.1237   -2.0744    0.0010 C.ar    1  LIG1       -0.0237
      2 C          -0.7568   -2.0473    0.0003 C.ar    1  LIG1       -0.0541
      3 C          -0.2301   -0.7253   -0.0001 C.ar    1  LIG1       -0.0469
      4 C          -1.1930    0.2617    0.0005 C.ar    1  LIG1        0.0193
      5 S          -2.7901   -0.4741    0.0014 S.2     1  LIG1       -0.0967
      6 H          -2.7819   -2.9317    0.0014 H       1  LIG1        0.0693
      7 H          -0.1423   -2.9402   -0.0001 H       1  LIG1        0.0623
      8 H           0.8328   -0.5157   -0.0008 H       1  LIG1        0.0629
      9 C          -2.1160    2.6001   -0.0000 C.ar    1  LIG1       -0.0529
     10 C          -1.9429    3.9758   -0.0001 C.ar    1  LIG1       -0.0529
     11 C          -1.0197    1.7166    0.0004 C.ar    1  LIG1       -0.0113
     12 C          -0.6584    4.5550    0.0002 C.ar    1  LIG1       -0.0113
     13 H          -2.8230    4.6100   -0.0005 H       1  LIG1        0.0624
     14 C           0.2640    2.2949    0.0007 C.ar    1  LIG1       -0.0529
     15 C           0.4382    3.6709    0.0006 C.ar    1  LIG1       -0.0529
     16 H           1.1439    1.6605    0.0011 H       1  LIG1        0.0624
     17 H          -3.1279    2.2051   -0.0004 H       1  LIG1        0.0624
     18 H           1.4502    4.0652    0.0009 H       1  LIG1        0.0624
     19 C          -0.4859    6.0063    0.0001 C.ar    1  LIG1        0.0200
     20 C          -1.4463    6.9954    0.0003 C.ar    1  LIG1       -0.0463
     21 C          -0.9245    8.3125    0.0002 C.ar    1  LIG1       -0.0449
     22 C           0.4551    8.3642   -0.0002 C.ar    1  LIG1        0.0360
     23 S           1.1142    6.7417   -0.0005 S.2     1  LIG1       -0.0868
     24 H          -2.5098    6.7885    0.0007 H       1  LIG1        0.0629
     25 H          -1.5582    9.1930    0.0004 H       1  LIG1        0.0630
     26 C           1.3297    9.5140   -0.0005 C.ar    1  LIG1        0.0531
     27 C           2.7173    9.6154   -0.0007 C.ar    1  LIG1       -0.0359
     28 C           3.0557   10.9913   -0.0009 C.ar    1  LIG1       -0.0438
     29 C           1.8751   11.7063   -0.0009 C.ar    1  LIG1        0.0022
     30 N           0.8394   10.8074   -0.0006 N.ar    1  LIG1       -0.3603
     31 H          -0.1369   11.0523   -0.0007 H       1  LIG1        0.1653
     32 H           1.6900   12.7699   -0.0011 H       1  LIG1        0.0807
     33 H           3.4052    8.7816   -0.0007 H       1  LIG1        0.0639
     34 H           4.0505   11.4126   -0.0010 H       1  LIG1        0.0633
@<TRIPOS>BOND
     1    32    29    1
     2    34    28    1
     3    29    28   ar
     4    29    30   ar
     5    28    27   ar
     6     8     3    1
     7    31    30    1
     8    27    33    1
     9    27    26   ar
    10    30    26   ar
    11    13    10    1
    12    26    22    1
    13    23    22   ar
    14    23    19   ar
    15    17     9    1
    16    22    21   ar
    17    10     9   ar
    18    10    12   ar
    19     7     2    1
    20     3     2   ar
    21     3     4   ar
    22     9    11   ar
    23    19    12    1
    24    19    20   ar
    25    12    15   ar
    26    21    20   ar
    27    21    25    1
    28     2     1   ar
    29    20    24    1
    30    11     4    1
    31    11    14   ar
    32     4     5   ar
    33    15    14   ar
    34    15    18    1
    35    14    16    1
    36     1     6    1
    37     1     5   ar
