@<TRIPOS>MOLECULE
mol_data/opt/b3lyp/geoms/mol2/54-8-4-.out
 35 38 0 0 0
SMALL
GASTEIGER

@<TRIPOS>ATOM
      1 C          -2.1206   -2.0192    0.0017 C.ar    1  LIG1       -0.0237
      2 C          -0.7527   -2.0048    0.0011 C.ar    1  LIG1       -0.0541
      3 C          -0.2167   -0.6877    0.0006 C.ar    1  LIG1       -0.0469
      4 C          -1.1735    0.3060    0.0008 C.ar    1  LIG1        0.0193
      5 S          -2.7755   -0.4168    0.0018 S.2     1  LIG1       -0.0967
      6 H          -2.7846   -2.8719    0.0022 H       1  LIG1        0.0693
      7 H          -0.1458   -2.9027    0.0010 H       1  LIG1        0.0623
      8 H           0.8476   -0.4856   -0.0000 H       1  LIG1        0.0629
      9 C          -2.0807    2.6474   -0.0002 C.ar    1  LIG1       -0.0529
     10 C          -1.8959    4.0223   -0.0006 C.ar    1  LIG1       -0.0503
     11 C          -0.9871    1.7591    0.0004 C.ar    1  LIG1       -0.0113
     12 C          -0.6019    4.5681   -0.0004 C.ar    1  LIG1        0.0227
     13 H          -2.7503    4.6888   -0.0011 H       1  LIG1        0.0625
     14 C           0.3069    2.3195    0.0006 C.ar    1  LIG1       -0.0529
     15 C           0.4979    3.6927    0.0002 C.ar    1  LIG1       -0.0503
     16 H           1.1766    1.6718    0.0012 H       1  LIG1        0.0624
     17 H          -3.0942    2.2576   -0.0005 H       1  LIG1        0.0624
     18 H           1.5003    4.1049    0.0004 H       1  LIG1        0.0625
     19 C          -0.4015    6.0243   -0.0009 C.ar    1  LIG1        0.2034
     20 N          -1.4934    6.8212   -0.0012 N.ar    1  LIG1       -0.1252
     21 C          -0.0482    8.5927   -0.0017 C.ar    1  LIG1        0.2034
     22 N           0.8649    6.4966   -0.0009 N.ar    1  LIG1       -0.1252
     23 N          -1.3140    8.1207   -0.0016 N.ar    1  LIG1       -0.1252
     24 N           1.0430    7.7965   -0.0013 N.ar    1  LIG1       -0.1252
     25 C          -0.9531   10.9205   -0.0027 C.ar    1  LIG1       -0.0509
     26 C          -0.7591   12.2989   -0.0032 C.ar    1  LIG1       -0.0611
     27 C           0.1525   10.0535   -0.0022 C.ar    1  LIG1        0.0226
     28 C           0.5337   12.8278   -0.0032 C.ar    1  LIG1       -0.0617
     29 H          -1.6187   12.9625   -0.0036 H       1  LIG1        0.0618
     30 C           1.4508   10.5903   -0.0021 C.ar    1  LIG1       -0.0509
     31 C           1.6361   11.9699   -0.0026 C.ar    1  LIG1       -0.0611
     32 H           2.2999    9.9168   -0.0017 H       1  LIG1        0.0625
     33 H           0.6815   13.9039   -0.0035 H       1  LIG1        0.0618
     34 H          -1.9523   10.5009   -0.0028 H       1  LIG1        0.0625
     35 H           2.6428   12.3771   -0.0025 H       1  LIG1        0.0618
@<TRIPOS>BOND
     1    29    26    1
     2    33    28    1
     3    26    28   ar
     4    26    25   ar
     5    28    31   ar
     6    34    25    1
     7    25    27   ar
     8    31    35    1
     9    31    30   ar
    10    27    30   ar
    11    27    21    1
    12    30    32    1
    13    21    23   ar
    14    21    24   ar
    15    23    20   ar
    16    24    22   ar
    17    20    19   ar
    18    13    10    1
    19    22    19   ar
    20    19    12    1
    21    10    12   ar
    22    10     9   ar
    23    17     9    1
    24    12    15   ar
    25     9    11   ar
    26     8     3    1
    27    15    18    1
    28    15    14   ar
    29    11    14   ar
    30    11     4    1
    31     3     4   ar
    32     3     2   ar
    33    14    16    1
    34     4     5   ar
    35     7     2    1
    36     2     1   ar
    37     1     5   ar
    38     1     6    1
