@<TRIPOS>MOLECULE
mol_data/opt/b3lyp/geoms/mol2/54-8-.out
 25 27 0 0 0
SMALL
GASTEIGER

@<TRIPOS>ATOM
      1 C          -2.0861   -1.9354    0.0007 C.ar    1  LIG1       -0.0237
      2 C          -0.7181   -1.9132    0.0002 C.ar    1  LIG1       -0.0541
      3 C          -0.1901   -0.5932   -0.0000 C.ar    1  LIG1       -0.0469
      4 C          -1.1531    0.3947    0.0004 C.ar    1  LIG1        0.0193
      5 S          -2.7506   -0.3374    0.0012 S.2     1  LIG1       -0.0967
      6 H          -2.7451   -2.7921    0.0010 H       1  LIG1        0.0693
      7 H          -0.1061   -2.8076   -0.0002 H       1  LIG1        0.0623
      8 H           0.8731   -0.3848   -0.0005 H       1  LIG1        0.0629
      9 C          -2.0736    2.7307   -0.0001 C.ar    1  LIG1       -0.0529
     10 C          -1.8963    4.1064   -0.0001 C.ar    1  LIG1       -0.0503
     11 C          -0.9749    1.8485    0.0004 C.ar    1  LIG1       -0.0113
     12 C          -0.6050    4.6585    0.0003 C.ar    1  LIG1        0.0227
     13 H          -2.7543    4.7682   -0.0005 H       1  LIG1        0.0625
     14 C           0.3164    2.4157    0.0008 C.ar    1  LIG1       -0.0529
     15 C           0.4999    3.7896    0.0007 C.ar    1  LIG1       -0.0503
     16 H           1.1894    1.7726    0.0012 H       1  LIG1        0.0624
     17 H          -3.0848    2.3353   -0.0004 H       1  LIG1        0.0624
     18 H           1.5001    4.2072    0.0010 H       1  LIG1        0.0625
     19 C          -0.4123    6.1163    0.0002 C.ar    1  LIG1        0.2033
     20 N          -1.5130    6.9032   -0.0000 N.ar    1  LIG1       -0.1258
     21 C          -0.0764    8.6575   -0.0001 C.ar    1  LIG1        0.1605
     22 N           0.8549    6.5901    0.0003 N.ar    1  LIG1       -0.1258
     23 N          -1.3386    8.2097   -0.0001 N.ar    1  LIG1       -0.1339
     24 N           1.0260    7.8972    0.0002 N.ar    1  LIG1       -0.1339
     25 H           0.0657    9.7332    0.0002 H       1  LIG1        0.1085
@<TRIPOS>BOND
     1     8     3    1
     2    13    10    1
     3    17     9    1
     4     7     2    1
     5    10     9   ar
     6    10    12   ar
     7    23    21   ar
     8    23    20   ar
     9     9    11   ar
    10    21    25    1
    11    21    24   ar
    12    20    19   ar
    13     3     2   ar
    14     3     4   ar
    15     2     1   ar
    16    19    12    1
    17    19    22   ar
    18    24    22   ar
    19    12    15   ar
    20    11     4    1
    21    11    14   ar
    22     4     5   ar
    23    15    14   ar
    24    15    18    1
    25     1     6    1
    26     1     5   ar
    27    14    16    1
