@<TRIPOS>MOLECULE
mol_data/opt/b3lyp/geoms/mol2/54.out
 19 20 0 0 0
SMALL
GASTEIGER

@<TRIPOS>ATOM
      1 C          -2.0397   -1.8927   -0.0007 C.ar    1  LIG1       -0.0237
      2 C          -0.6738   -1.8423   -0.0011 C.ar    1  LIG1       -0.0541
      3 C          -0.1708   -0.5104   -0.0001 C.ar    1  LIG1       -0.0469
      4 C          -1.1504    0.4585    0.0012 C.ar    1  LIG1        0.0193
      5 S          -2.7332   -0.3047    0.0012 S.2     1  LIG1       -0.0967
      6 H          -2.6827   -2.7615   -0.0012 H       1  LIG1        0.0693
      7 H          -0.0434   -2.7242   -0.0022 H       1  LIG1        0.0623
      8 H           0.8883   -0.2823   -0.0004 H       1  LIG1        0.0629
      9 C           0.2772    2.5104    0.0036 C.ar    1  LIG1       -0.0535
     10 C           0.4299    3.8936    0.0048 C.ar    1  LIG1       -0.0612
     11 C          -1.0016    1.9207    0.0025 C.ar    1  LIG1       -0.0113
     12 C          -0.6884    4.7296    0.0050 C.ar    1  LIG1       -0.0617
     13 H           1.4289    4.3202    0.0056 H       1  LIG1        0.0618
     14 C          -2.1173    2.7777    0.0027 C.ar    1  LIG1       -0.0535
     15 C          -1.9627    4.1617    0.0039 C.ar    1  LIG1       -0.0612
     16 H          -3.1198    2.3599    0.0018 H       1  LIG1        0.0624
     17 H          -0.5677    5.8087    0.0059 H       1  LIG1        0.0618
     18 H           1.1613    1.8820    0.0036 H       1  LIG1        0.0624
     19 H          -2.8432    4.7977    0.0040 H       1  LIG1        0.0618
@<TRIPOS>BOND
     1     7     2    1
     2     6     1    1
     3     2     1   ar
     4     2     3   ar
     5     1     5   ar
     6     8     3    1
     7     3     4   ar
     8     5     4   ar
     9     4    11    1
    10    16    14    1
    11    11    14   ar
    12    11     9   ar
    13    14    15   ar
    14    18     9    1
    15     9    10   ar
    16    15    19    1
    17    15    12   ar
    18    10    12   ar
    19    10    13    1
    20    12    17    1
