@<TRIPOS>MOLECULE
mol_data/opt/b3lyp/geoms/mol2/5412-12-.out
 33 36 0 0 0
SMALL
GASTEIGER

@<TRIPOS>ATOM
      1 C          -2.2246   -2.0250   -0.0019 C.ar    1  LIG1       -0.0237
      2 C          -0.8574   -2.0207   -0.0022 C.ar    1  LIG1       -0.0541
      3 C          -0.3088   -0.7076   -0.0006 C.ar    1  LIG1       -0.0469
      4 C          -1.2552    0.2952    0.0009 C.ar    1  LIG1        0.0193
      5 S          -2.8641   -0.4141    0.0003 S.2     1  LIG1       -0.0967
      6 H          -2.8967   -2.8715   -0.0028 H       1  LIG1        0.0693
      7 H          -0.2575   -2.9235   -0.0035 H       1  LIG1        0.0623
      8 H           0.7574   -0.5155   -0.0007 H       1  LIG1        0.0629
      9 C           0.2392    2.3004    0.0042 C.ar    1  LIG1       -0.0529
     10 C           0.4431    3.6723    0.0059 C.ar    1  LIG1       -0.0505
     11 C          -1.0566    1.7472    0.0027 C.ar    1  LIG1       -0.0113
     12 C          -0.6451    4.5652    0.0062 C.ar    1  LIG1        0.0173
     13 H           1.4529    4.0670    0.0071 H       1  LIG1        0.0625
     14 C          -2.1398    2.6476    0.0030 C.ar    1  LIG1       -0.0529
     15 C          -1.9421    4.0200    0.0047 C.ar    1  LIG1       -0.0505
     16 H          -3.1576    2.2688    0.0017 H       1  LIG1        0.0624
     17 H           1.1049    1.6466    0.0042 H       1  LIG1        0.0624
     18 H          -2.8057    4.6778    0.0048 H       1  LIG1        0.0625
     19 C          -0.4388    6.0018    0.0080 C.ar    1  LIG1        0.1358
     20 C          -1.2853    7.0864    0.0090 C.ar    1  LIG1       -0.0151
     21 C          -0.4715    8.2504    0.0107 C.ar    1  LIG1       -0.0122
     22 C           0.8324    7.8139    0.0107 C.ar    1  LIG1        0.1705
     23 O           0.8588    6.4487    0.0090 O.2     1  LIG1       -0.4517
     24 H          -2.3648    7.0561    0.0085 H       1  LIG1        0.0656
     25 H          -0.8015    9.2789    0.0119 H       1  LIG1        0.0657
     26 C           2.0920    8.5084    0.0120 C.ar    1  LIG1        0.1697
     27 C           2.4176    9.8430    0.0127 C.ar    1  LIG1       -0.0128
     28 C           3.8441    9.9091    0.0140 C.ar    1  LIG1       -0.0232
     29 C           4.2861    8.6204    0.0140 C.ar    1  LIG1        0.0927
     30 O           3.2336    7.7539    0.0128 O.2     1  LIG1       -0.4598
     31 H           5.2649    8.1678    0.0147 H       1  LIG1        0.1029
     32 H           1.7238   10.6706    0.0123 H       1  LIG1        0.0656
     33 H           4.4567   10.7989    0.0149 H       1  LIG1        0.0649
@<TRIPOS>BOND
     1     7     2    1
     2     6     1    1
     3     2     1   ar
     4     2     3   ar
     5     1     5   ar
     6     8     3    1
     7     3     4   ar
     8     5     4   ar
     9     4    11    1
    10    16    14    1
    11    11    14   ar
    12    11     9   ar
    13    14    15   ar
    14    17     9    1
    15     9    10   ar
    16    15    18    1
    17    15    12   ar
    18    10    12   ar
    19    10    13    1
    20    12    19    1
    21    19    20   ar
    22    19    23   ar
    23    24    20    1
    24    20    21   ar
    25    23    22   ar
    26    22    21   ar
    27    22    26    1
    28    21    25    1
    29    26    27   ar
    30    26    30   ar
    31    32    27    1
    32    27    28   ar
    33    30    29   ar
    34    29    28   ar
    35    29    31    1
    36    28    33    1
