@<TRIPOS>MOLECULE
mol_data/opt/b3lyp/geoms/mol2/5412-12.out
 33 36 0 0 0
SMALL
GASTEIGER

@<TRIPOS>ATOM
      1 C          -2.1787   -2.0193   -0.0016 C.ar    1  LIG1       -0.0237
      2 C          -0.8116   -2.0041   -0.0020 C.ar    1  LIG1       -0.0541
      3 C          -0.2735   -0.6867   -0.0005 C.ar    1  LIG1       -0.0469
      4 C          -1.2280    0.3085    0.0010 C.ar    1  LIG1        0.0193
      5 S          -2.8311   -0.4137    0.0005 S.2     1  LIG1       -0.0967
      6 H          -2.8440   -2.8712   -0.0025 H       1  LIG1        0.0693
      7 H          -0.2045   -2.9020   -0.0033 H       1  LIG1        0.0623
      8 H           0.7911   -0.4861   -0.0007 H       1  LIG1        0.0629
      9 C           0.2493    2.3265    0.0042 C.ar    1  LIG1       -0.0529
     10 C           0.4409    3.7002    0.0058 C.ar    1  LIG1       -0.0505
     11 C          -1.0414    1.7620    0.0027 C.ar    1  LIG1       -0.0113
     12 C          -0.6541    4.5846    0.0061 C.ar    1  LIG1        0.0173
     13 H           1.4478    4.1021    0.0069 H       1  LIG1        0.0625
     14 C          -2.1321    2.6535    0.0030 C.ar    1  LIG1       -0.0529
     15 C          -1.9462    4.0275    0.0047 C.ar    1  LIG1       -0.0505
     16 H          -3.1467    2.2664    0.0019 H       1  LIG1        0.0624
     17 H           1.1207    1.6803    0.0041 H       1  LIG1        0.0624
     18 H          -2.8155    4.6776    0.0048 H       1  LIG1        0.0625
     19 C          -0.4632    6.0233    0.0079 C.ar    1  LIG1        0.1358
     20 C          -1.3226    7.0971    0.0088 C.ar    1  LIG1       -0.0151
     21 C          -0.5252    8.2735    0.0105 C.ar    1  LIG1       -0.0122
     22 C           0.7821    7.8535    0.0105 C.ar    1  LIG1        0.1705
     23 O           0.8307    6.4876    0.0089 O.2     1  LIG1       -0.4517
     24 H          -2.4016    7.0513    0.0083 H       1  LIG1        0.0656
     25 H          -0.8606    9.2995    0.0116 H       1  LIG1        0.0657
     26 C           2.0379    8.5482    0.0118 C.ar    1  LIG1        0.1697
     27 C           3.3453    8.1328    0.0125 C.ar    1  LIG1       -0.0128
     28 C           4.1421    9.3194    0.0140 C.ar    1  LIG1       -0.0232
     29 C           3.2713   10.3665    0.0141 C.ar    1  LIG1        0.0927
     30 O           1.9826    9.9167    0.0129 O.2     1  LIG1       -0.4598
     31 H           3.3928   11.4381    0.0150 H       1  LIG1        0.1029
     32 H           3.6854    7.1084    0.0120 H       1  LIG1        0.0656
     33 H           5.2206    9.3820    0.0148 H       1  LIG1        0.0649
@<TRIPOS>BOND
     1     7     2    1
     2     6     1    1
     3     2     1   ar
     4     2     3   ar
     5     1     5   ar
     6     8     3    1
     7     3     4   ar
     8     5     4   ar
     9     4    11    1
    10    16    14    1
    11    11    14   ar
    12    11     9   ar
    13    14    15   ar
    14    17     9    1
    15     9    10   ar
    16    15    18    1
    17    15    12   ar
    18    10    12   ar
    19    10    13    1
    20    12    19    1
    21    19    20   ar
    22    19    23   ar
    23    24    20    1
    24    20    21   ar
    25    23    22   ar
    26    21    22   ar
    27    21    25    1
    28    22    26    1
    29    26    27   ar
    30    26    30   ar
    31    32    27    1
    32    27    28   ar
    33    30    29   ar
    34    28    29   ar
    35    28    33    1
    36    29    31    1
