@<TRIPOS>MOLECULE
mol_data/opt/b3lyp/geoms/mol2/5413.out
 27 29 0 0 0
SMALL
GASTEIGER

@<TRIPOS>ATOM
      1 C          -2.0359   -1.9998   -0.0018 C.ar    1  LIG1       -0.0237
      2 C          -0.6703   -1.9418   -0.0020 C.ar    1  LIG1       -0.0541
      3 C          -0.1731   -0.6078   -0.0004 C.ar    1  LIG1       -0.0469
      4 C          -1.1575    0.3574    0.0010 C.ar    1  LIG1        0.0193
      5 S          -2.7377   -0.4144    0.0003 S.2     1  LIG1       -0.0967
      6 H          -2.6746   -2.8718   -0.0028 H       1  LIG1        0.0693
      7 H          -0.0354   -2.8203   -0.0033 H       1  LIG1        0.0623
      8 H           0.8848   -0.3746   -0.0004 H       1  LIG1        0.0629
      9 C           0.2555    2.4232    0.0044 C.ar    1  LIG1       -0.0529
     10 C           0.4022    3.8010    0.0062 C.ar    1  LIG1       -0.0520
     11 C          -1.0167    1.8162    0.0028 C.ar    1  LIG1       -0.0113
     12 C          -0.7127    4.6633    0.0063 C.ar    1  LIG1       -0.0017
     13 H           1.4027    4.2209    0.0075 H       1  LIG1        0.0624
     14 C          -2.1293    2.6753    0.0030 C.ar    1  LIG1       -0.0529
     15 C          -1.9822    4.0565    0.0047 C.ar    1  LIG1       -0.0520
     16 H          -3.1332    2.2608    0.0016 H       1  LIG1        0.0624
     17 H           1.1477    1.8061    0.0045 H       1  LIG1        0.0624
     18 H          -2.8850    4.6614    0.0046 H       1  LIG1        0.0624
     19 C          -0.5323    6.1113    0.0082 C.ar    1  LIG1        0.0465
     20 C           0.6239    6.8858    0.0091 C.ar    1  LIG1       -0.0364
     21 C           0.2439    8.2508    0.0103 C.ar    1  LIG1       -0.0438
     22 C          -1.1356    8.2920    0.0113 C.ar    1  LIG1        0.0022
     23 N          -1.5925    6.9998    0.0094 N.ar    1  LIG1       -0.3607
     24 H          -2.5643    6.7387    0.0092 H       1  LIG1        0.1653
     25 H          -1.8208    9.1265    0.0127 H       1  LIG1        0.0807
     26 H           1.6355    6.5067    0.0085 H       1  LIG1        0.0639
     27 H           0.9033    9.1068    0.0109 H       1  LIG1        0.0633
@<TRIPOS>BOND
     1     7     2    1
     2     6     1    1
     3     2     1   ar
     4     2     3   ar
     5     1     5   ar
     6     3     8    1
     7     3     4   ar
     8     5     4   ar
     9     4    11    1
    10    16    14    1
    11    11    14   ar
    12    11     9   ar
    13    14    15   ar
    14     9    17    1
    15     9    10   ar
    16    18    15    1
    17    15    12   ar
    18    10    12   ar
    19    10    13    1
    20    12    19    1
    21    19    20   ar
    22    19    23   ar
    23    26    20    1
    24    20    21   ar
    25    24    23    1
    26    23    22   ar
    27    21    27    1
    28    21    22   ar
    29    22    25    1
