@<TRIPOS>MOLECULE
mol_data/opt/b3lyp/geoms/mol2/541313-.out
 35 38 0 0 0
SMALL
GASTEIGER

@<TRIPOS>ATOM
      1 C          -1.9937   -2.0908   -0.0027 C.ar    1  LIG1       -0.0237
      2 C          -0.6283   -2.0264   -0.0029 C.ar    1  LIG1       -0.0541
      3 C          -0.1372   -0.6904   -0.0010 C.ar    1  LIG1       -0.0469
      4 C          -1.1262    0.2705    0.0006 C.ar    1  LIG1        0.0193
      5 S          -2.7028   -0.5084   -0.0002 S.2     1  LIG1       -0.0967
      6 H          -2.6284   -2.9656   -0.0039 H       1  LIG1        0.0693
      7 H           0.0103   -2.9024   -0.0043 H       1  LIG1        0.0623
      8 H           0.9198   -0.4524   -0.0009 H       1  LIG1        0.0629
      9 C           0.2779    2.3426    0.0043 C.ar    1  LIG1       -0.0529
     10 C           0.4187    3.7204    0.0063 C.ar    1  LIG1       -0.0520
     11 C          -0.9920    1.7296    0.0027 C.ar    1  LIG1       -0.0113
     12 C          -0.7006    4.5784    0.0067 C.ar    1  LIG1       -0.0017
     13 H           1.4175    4.1444    0.0076 H       1  LIG1        0.0624
     14 C          -2.1085    2.5840    0.0031 C.ar    1  LIG1       -0.0529
     15 C          -1.9682    3.9655    0.0051 C.ar    1  LIG1       -0.0520
     16 H          -3.1104    2.1648    0.0018 H       1  LIG1        0.0624
     17 H           1.1725    1.7289    0.0042 H       1  LIG1        0.0624
     18 H          -2.8732    4.5666    0.0052 H       1  LIG1        0.0624
     19 C          -0.5280    6.0241    0.0088 C.ar    1  LIG1        0.0469
     20 C           0.6256    6.8040    0.0099 C.ar    1  LIG1       -0.0358
     21 C           0.2421    8.1623    0.0118 C.ar    1  LIG1       -0.0344
     22 C          -1.1501    8.2122    0.0118 C.ar    1  LIG1        0.0633
     23 N          -1.5910    6.9093    0.0100 N.ar    1  LIG1       -0.3530
     24 H          -2.5623    6.6468    0.0091 H       1  LIG1        0.1659
     25 H           1.6393    6.4307    0.0094 H       1  LIG1        0.0639
     26 H           0.9106    9.0122    0.0133 H       1  LIG1        0.0639
     27 C          -2.0683    9.3278    0.0134 C.ar    1  LIG1        0.0629
     28 C          -3.4579    9.3802    0.0161 C.ar    1  LIG1       -0.0350
     29 C          -3.8435   10.7465    0.0165 C.ar    1  LIG1       -0.0438
     30 C          -2.6894   11.5006    0.0142 C.ar    1  LIG1        0.0022
     31 N          -1.6235   10.6345    0.0122 N.ar    1  LIG1       -0.3595
     32 H          -0.6544   10.9071    0.0101 H       1  LIG1        0.1654
     33 H          -2.5397   12.5695    0.0137 H       1  LIG1        0.0807
     34 H          -4.1267    8.5302    0.0179 H       1  LIG1        0.0639
     35 H          -4.8526   11.1325    0.0184 H       1  LIG1        0.0633
@<TRIPOS>BOND
     1     7     2    1
     2     6     1    1
     3     2     1   ar
     4     2     3   ar
     5     1     5   ar
     6     3     8    1
     7     3     4   ar
     8     5     4   ar
     9     4    11    1
    10    16    14    1
    11    11    14   ar
    12    11     9   ar
    13    14    15   ar
    14    17     9    1
    15     9    10   ar
    16    15    18    1
    17    15    12   ar
    18    10    12   ar
    19    10    13    1
    20    12    19    1
    21    19    20   ar
    22    19    23   ar
    23    24    23    1
    24    25    20    1
    25    20    21   ar
    26    23    22   ar
    27    32    31    1
    28    21    22   ar
    29    21    26    1
    30    22    27    1
    31    31    27   ar
    32    31    30   ar
    33    27    28   ar
    34    33    30    1
    35    30    29   ar
    36    28    29   ar
    37    28    34    1
    38    29    35    1
