@<TRIPOS>MOLECULE
mol_data/opt/b3lyp/geoms/mol2/544-13.out
 37 40 0 0 0
SMALL
GASTEIGER

@<TRIPOS>ATOM
      1 C          -2.0824   -2.1301   -0.0014 C.ar    1  LIG1       -0.0237
      2 C          -0.7160   -2.0874   -0.0013 C.ar    1  LIG1       -0.0541
      3 C          -0.2047   -0.7592    0.0001 C.ar    1  LIG1       -0.0469
      4 C          -1.1790    0.2163    0.0010 C.ar    1  LIG1        0.0193
      5 S          -2.7671   -0.5379    0.0002 S.2     1  LIG1       -0.0967
      6 H          -2.7304   -2.9952   -0.0023 H       1  LIG1        0.0693
      7 H          -0.0909   -2.9730   -0.0022 H       1  LIG1        0.0623
      8 H           0.8556   -0.5368    0.0002 H       1  LIG1        0.0629
      9 C           0.2529    2.2683    0.0041 C.ar    1  LIG1       -0.0530
     10 C           0.4107    3.6468    0.0055 C.ar    1  LIG1       -0.0534
     11 C          -1.0224    1.6734    0.0025 C.ar    1  LIG1       -0.0113
     12 C          -0.6897    4.5269    0.0053 C.ar    1  LIG1       -0.0178
     13 H           1.4221    4.0362    0.0068 H       1  LIG1        0.0624
     14 C          -2.1248    2.5459    0.0022 C.ar    1  LIG1       -0.0530
     15 C          -1.9625    3.9246    0.0036 C.ar    1  LIG1       -0.0534
     16 H          -3.1337    2.1434    0.0009 H       1  LIG1        0.0624
     17 H           1.1407    1.6447    0.0045 H       1  LIG1        0.0624
     18 H          -2.8578    4.5356    0.0032 H       1  LIG1        0.0624
     19 C          -1.6154    6.8818    0.0073 C.ar    1  LIG1       -0.0534
     20 C          -1.4553    8.2615    0.0087 C.ar    1  LIG1       -0.0521
     21 C          -0.5166    6.0024    0.0067 C.ar    1  LIG1       -0.0178
     22 C          -0.1814    8.8581    0.0095 C.ar    1  LIG1       -0.0017
     23 H          -2.3531    8.8739    0.0090 H       1  LIG1        0.0624
     24 C           0.7573    6.6060    0.0075 C.ar    1  LIG1       -0.0534
     25 C           0.9214    7.9829    0.0089 C.ar    1  LIG1       -0.0521
     26 H           1.6520    5.9941    0.0070 H       1  LIG1        0.0624
     27 H          -2.6273    6.4934    0.0069 H       1  LIG1        0.0624
     28 H           1.9274    8.3897    0.0095 H       1  LIG1        0.0624
     29 C           0.0129   10.3040    0.0109 C.ar    1  LIG1        0.0465
     30 C           1.1765   11.0676    0.0112 C.ar    1  LIG1       -0.0364
     31 C           0.8093   12.4360    0.0128 C.ar    1  LIG1       -0.0438
     32 C          -0.5698   12.4902    0.0135 C.ar    1  LIG1        0.0022
     33 N          -1.0388   11.2025    0.0124 N.ar    1  LIG1       -0.3607
     34 H          -2.0129   10.9502    0.0125 H       1  LIG1        0.1653
     35 H          -1.2471   13.3311    0.0147 H       1  LIG1        0.0807
     36 H           2.1844   10.6787    0.0103 H       1  LIG1        0.0639
     37 H           1.4767   13.2858    0.0134 H       1  LIG1        0.0633
@<TRIPOS>BOND
     1     6     1    1
     2     7     2    1
     3     1     2   ar
     4     1     5   ar
     5     2     3   ar
     6     3     8    1
     7     3     4   ar
     8     5     4   ar
     9    16    14    1
    10     4    11    1
    11    14    11   ar
    12    14    15   ar
    13    11     9   ar
    14    18    15    1
    15    15    12   ar
    16     9    17    1
    17     9    10   ar
    18    12    10   ar
    19    12    21    1
    20    10    13    1
    21    21    19   ar
    22    21    24   ar
    23    27    19    1
    24    26    24    1
    25    19    20   ar
    26    24    25   ar
    27    20    23    1
    28    20    22   ar
    29    25    28    1
    30    25    22   ar
    31    22    29    1
    32    36    30    1
    33    29    30   ar
    34    29    33   ar
    35    30    31   ar
    36    33    34    1
    37    33    32   ar
    38    31    37    1
    39    31    32   ar
    40    32    35    1
