@<TRIPOS>MOLECULE
mol_data/opt/b3lyp/geoms/mol2/544.out
 29 31 0 0 0
SMALL
GASTEIGER

@<TRIPOS>ATOM
      1 C          -2.0441   -2.0339   -0.0026 C.ar    1  LIG1       -0.0237
      2 C          -0.6778   -1.9806   -0.0025 C.ar    1  LIG1       -0.0541
      3 C          -0.1778   -0.6482   -0.0006 C.ar    1  LIG1       -0.0469
      4 C          -1.1607    0.3187    0.0008 C.ar    1  LIG1        0.0193
      5 S          -2.7416   -0.4483   -0.0002 S.2     1  LIG1       -0.0967
      6 H          -2.6844   -2.9049   -0.0038 H       1  LIG1        0.0693
      7 H          -0.0457   -2.8612   -0.0038 H       1  LIG1        0.0623
      8 H           0.8805   -0.4164   -0.0003 H       1  LIG1        0.0629
      9 C           0.2553    2.3810    0.0047 C.ar    1  LIG1       -0.0530
     10 C           0.4026    3.7609    0.0066 C.ar    1  LIG1       -0.0534
     11 C          -1.0154    1.7773    0.0029 C.ar    1  LIG1       -0.0113
     12 C          -0.7038    4.6322    0.0069 C.ar    1  LIG1       -0.0178
     13 H           1.4113    4.1567    0.0080 H       1  LIG1        0.0624
     14 C          -2.1242    2.6411    0.0032 C.ar    1  LIG1       -0.0530
     15 C          -1.9716    4.0214    0.0051 C.ar    1  LIG1       -0.0534
     16 H          -3.1300    2.2312    0.0018 H       1  LIG1        0.0624
     17 H           1.1475    1.7639    0.0047 H       1  LIG1        0.0624
     18 H          -2.8711    4.6252    0.0052 H       1  LIG1        0.0624
     19 C           0.7322    6.7156    0.0100 C.ar    1  LIG1       -0.0540
     20 C           0.8856    8.0999    0.0119 C.ar    1  LIG1       -0.0612
     21 C          -0.5409    6.1135    0.0090 C.ar    1  LIG1       -0.0179
     22 C          -0.2309    8.9355    0.0130 C.ar    1  LIG1       -0.0617
     23 H           1.8852    8.5252    0.0126 H       1  LIG1        0.0618
     24 C          -1.6530    6.9776    0.0101 C.ar    1  LIG1       -0.0540
     25 C          -1.5023    8.3620    0.0120 C.ar    1  LIG1       -0.0612
     26 H          -2.6589    6.5747    0.0095 H       1  LIG1        0.0624
     27 H          -0.1125   10.0148    0.0145 H       1  LIG1        0.0618
     28 H           1.6271    6.1037    0.0092 H       1  LIG1        0.0624
     29 H          -2.3856    8.9941    0.0128 H       1  LIG1        0.0618
@<TRIPOS>BOND
     1     6     1    1
     2     7     2    1
     3     1     2   ar
     4     1     5   ar
     5     2     3   ar
     6     3     8    1
     7     3     4   ar
     8     5     4   ar
     9     4    11    1
    10    16    14    1
    11    11    14   ar
    12    11     9   ar
    13    14    15   ar
    14    17     9    1
    15     9    10   ar
    16    15    18    1
    17    15    12   ar
    18    10    12   ar
    19    10    13    1
    20    12    21    1
    21    21    19   ar
    22    21    24   ar
    23    28    19    1
    24    26    24    1
    25    19    20   ar
    26    24    25   ar
    27    20    23    1
    28    20    22   ar
    29    25    29    1
    30    25    22   ar
    31    22    27    1
