@<TRIPOS>MOLECULE
mol_data/opt/b3lyp/geoms/mol2/545-.out
 26 28 0 0 0
SMALL
GASTEIGER

@<TRIPOS>ATOM
      1 C          -2.0355   -1.9957   -0.0018 C.ar    1  LIG1       -0.0237
      2 C          -0.6695   -1.9383   -0.0021 C.ar    1  LIG1       -0.0541
      3 C          -0.1729   -0.6046   -0.0005 C.ar    1  LIG1       -0.0469
      4 C          -1.1582    0.3599    0.0010 C.ar    1  LIG1        0.0193
      5 S          -2.7375   -0.4115    0.0004 S.2     1  LIG1       -0.0967
      6 H          -2.6738   -2.8679   -0.0028 H       1  LIG1        0.0693
      7 H          -0.0350   -2.8173   -0.0034 H       1  LIG1        0.0623
      8 H           0.8849   -0.3706   -0.0005 H       1  LIG1        0.0629
      9 C           0.2537    2.4238    0.0042 C.ar    1  LIG1       -0.0529
     10 C           0.3981    3.8036    0.0059 C.ar    1  LIG1       -0.0529
     11 C          -1.0174    1.8188    0.0028 C.ar    1  LIG1       -0.0113
     12 C          -0.7169    4.6622    0.0063 C.ar    1  LIG1       -0.0113
     13 H           1.4012    4.2199    0.0071 H       1  LIG1        0.0624
     14 C          -2.1325    2.6775    0.0032 C.ar    1  LIG1       -0.0529
     15 C          -1.9880    4.0573    0.0049 C.ar    1  LIG1       -0.0529
     16 H          -3.1356    2.2613    0.0021 H       1  LIG1        0.0624
     17 H           1.1462    1.8075    0.0041 H       1  LIG1        0.0624
     18 H          -2.8806    4.6735    0.0051 H       1  LIG1        0.0624
     19 C          -0.5761    6.1211    0.0081 C.ar    1  LIG1        0.0193
     20 C          -1.5614    7.0857    0.0095 C.ar    1  LIG1       -0.0469
     21 C          -1.0648    8.4194    0.0111 C.ar    1  LIG1       -0.0541
     22 C           0.3012    8.4767    0.0109 C.ar    1  LIG1       -0.0237
     23 S           1.0033    6.8926    0.0088 S.2     1  LIG1       -0.0967
     24 H           0.9395    9.3490    0.0118 H       1  LIG1        0.0693
     25 H          -2.6192    6.8516    0.0095 H       1  LIG1        0.0629
     26 H          -1.6993    9.2983    0.0123 H       1  LIG1        0.0623
@<TRIPOS>BOND
     1     7     2    1
     2     6     1    1
     3     2     1   ar
     4     2     3   ar
     5     1     5   ar
     6     8     3    1
     7     3     4   ar
     8     5     4   ar
     9     4    11    1
    10    16    14    1
    11    11    14   ar
    12    11     9   ar
    13    14    15   ar
    14    17     9    1
    15     9    10   ar
    16    15    18    1
    17    15    12   ar
    18    10    12   ar
    19    10    13    1
    20    12    19    1
    21    19    23   ar
    22    19    20   ar
    23    23    22   ar
    24    25    20    1
    25    20    21   ar
    26    22    21   ar
    27    22    24    1
    28    21    26    1
