@<TRIPOS>MOLECULE
mol_data/opt/b3lyp/geoms/mol2/545-8-.out
 32 35 0 0 0
SMALL
GASTEIGER

@<TRIPOS>ATOM
      1 C          -2.0869   -2.0501   -0.0025 C.ar    1  LIG1       -0.0237
      2 C          -0.7199   -2.0046   -0.0024 C.ar    1  LIG1       -0.0541
      3 C          -0.2129   -0.6759   -0.0005 C.ar    1  LIG1       -0.0469
      4 C          -1.1910    0.2964    0.0007 C.ar    1  LIG1        0.0193
      5 S          -2.7769   -0.4616   -0.0003 S.2     1  LIG1       -0.0967
      6 H          -2.7321   -2.9170   -0.0038 H       1  LIG1        0.0693
      7 H          -0.0932   -2.8889   -0.0036 H       1  LIG1        0.0623
      8 H           0.8468   -0.4510   -0.0003 H       1  LIG1        0.0629
      9 C           0.2389    2.3479    0.0045 C.ar    1  LIG1       -0.0529
     10 C           0.3933    3.7255    0.0064 C.ar    1  LIG1       -0.0529
     11 C          -1.0380    1.7528    0.0027 C.ar    1  LIG1       -0.0113
     12 C          -0.7171    4.5916    0.0066 C.ar    1  LIG1       -0.0113
     13 H           1.3995    4.1339    0.0078 H       1  LIG1        0.0624
     14 C          -2.1478    2.6193    0.0029 C.ar    1  LIG1       -0.0529
     15 C          -1.9939    3.9974    0.0048 C.ar    1  LIG1       -0.0529
     16 H          -3.1535    2.2101    0.0015 H       1  LIG1        0.0624
     17 H           1.1269    1.7252    0.0046 H       1  LIG1        0.0624
     18 H          -2.8827    4.6190    0.0048 H       1  LIG1        0.0624
     19 C          -0.5644    6.0469    0.0085 C.ar    1  LIG1        0.0200
     20 C          -1.5575    7.0141    0.0097 C.ar    1  LIG1       -0.0462
     21 C          -1.0643    8.3349    0.0115 C.ar    1  LIG1       -0.0432
     22 C           0.3145    8.3955    0.0118 C.ar    1  LIG1        0.0604
     23 S           1.0185    6.7974    0.0098 S.2     1  LIG1       -0.0850
     24 H          -2.6149    6.7812    0.0093 H       1  LIG1        0.0629
     25 H          -1.6800    9.2257    0.0126 H       1  LIG1        0.0630
     26 C           1.1464    9.5776    0.0135 C.ar    1  LIG1        0.2098
     27 N           0.5275   10.7846    0.0147 N.ar    1  LIG1       -0.1253
     28 C           2.6200   11.6674    0.0165 C.ar    1  LIG1        0.1605
     29 N           2.4896    9.4042    0.0138 N.ar    1  LIG1       -0.1253
     30 N           1.2918   11.8562    0.0163 N.ar    1  LIG1       -0.1339
     31 N           3.2453   10.4832    0.0154 N.ar    1  LIG1       -0.1339
     32 H           3.2434   12.5549    0.0181 H       1  LIG1        0.1085
@<TRIPOS>BOND
     1     6     1    1
     2     7     2    1
     3     1     2   ar
     4     1     5   ar
     5     2     3   ar
     6     3     8    1
     7     3     4   ar
     8     5     4   ar
     9     4    11    1
    10    16    14    1
    11    11    14   ar
    12    11     9   ar
    13    14    15   ar
    14     9    17    1
    15     9    10   ar
    16    18    15    1
    17    15    12   ar
    18    10    12   ar
    19    10    13    1
    20    12    19    1
    21    19    20   ar
    22    19    23   ar
    23    24    20    1
    24    20    21   ar
    25    23    22   ar
    26    21    22   ar
    27    21    25    1
    28    22    26    1
    29    26    29   ar
    30    26    27   ar
    31    29    31   ar
    32    27    30   ar
    33    31    28   ar
    34    30    28   ar
    35    28    32    1
