@<TRIPOS>MOLECULE
mol_data/opt/b3lyp/geoms/mol2/545-5-.out
 33 36 0 0 0
SMALL
GASTEIGER

@<TRIPOS>ATOM
      1 C          -2.0819   -2.0861   -0.0027 C.ar    1  LIG1       -0.0237
      2 C          -0.7156   -2.0338   -0.0027 C.ar    1  LIG1       -0.0541
      3 C          -0.2138   -0.7024   -0.0009 C.ar    1  LIG1       -0.0469
      4 C          -1.1953    0.2662    0.0006 C.ar    1  LIG1        0.0193
      5 S          -2.7781   -0.4991   -0.0003 S.2     1  LIG1       -0.0967
      6 H          -2.7237   -2.9556   -0.0039 H       1  LIG1        0.0693
      7 H          -0.0846   -2.9151   -0.0041 H       1  LIG1        0.0623
      8 H           0.8451   -0.4730   -0.0008 H       1  LIG1        0.0629
      9 C           0.2236    2.3263    0.0044 C.ar    1  LIG1       -0.0529
     10 C           0.3717    3.7051    0.0064 C.ar    1  LIG1       -0.0529
     11 C          -1.0493    1.7240    0.0027 C.ar    1  LIG1       -0.0113
     12 C          -0.7417    4.5677    0.0067 C.ar    1  LIG1       -0.0113
     13 H           1.3761    4.1182    0.0077 H       1  LIG1        0.0624
     14 C          -2.1623    2.5863    0.0030 C.ar    1  LIG1       -0.0529
     15 C          -2.0152    3.9651    0.0049 C.ar    1  LIG1       -0.0529
     16 H          -3.1665    2.1728    0.0016 H       1  LIG1        0.0624
     17 H           1.1149    1.7080    0.0044 H       1  LIG1        0.0624
     18 H          -2.9070    4.5828    0.0050 H       1  LIG1        0.0624
     19 C          -0.5973    6.0224    0.0087 C.ar    1  LIG1        0.0199
     20 C          -1.5783    6.9935    0.0100 C.ar    1  LIG1       -0.0463
     21 C          -1.0837    8.3184    0.0120 C.ar    1  LIG1       -0.0458
     22 C           0.2949    8.3980    0.0122 C.ar    1  LIG1        0.0265
     23 S           0.9849    6.7869    0.0099 S.2     1  LIG1       -0.0877
     24 H          -2.6373    6.7650    0.0097 H       1  LIG1        0.0629
     25 H          -1.7242    9.1925    0.0133 H       1  LIG1        0.0629
     26 C           1.1158    9.5926    0.0139 C.ar    1  LIG1        0.0259
     27 C           0.6935   10.9075    0.0142 C.ar    1  LIG1       -0.0464
     28 C           1.7596   11.8480    0.0162 C.ar    1  LIG1       -0.0541
     29 C           2.9934   11.2571    0.0174 C.ar    1  LIG1       -0.0237
     30 S           2.8702    9.5272    0.0163 S.2     1  LIG1       -0.0961
     31 H           3.9668   11.7261    0.0189 H       1  LIG1        0.0693
     32 H          -0.3528   11.1892    0.0128 H       1  LIG1        0.0629
     33 H           1.6141   12.9221    0.0166 H       1  LIG1        0.0623
@<TRIPOS>BOND
     1     7     2    1
     2     6     1    1
     3     2     1   ar
     4     2     3   ar
     5     1     5   ar
     6     3     8    1
     7     3     4   ar
     8     5     4   ar
     9     4    11    1
    10    16    14    1
    11    11    14   ar
    12    11     9   ar
    13    14    15   ar
    14    17     9    1
    15     9    10   ar
    16    15    18    1
    17    15    12   ar
    18    10    12   ar
    19    10    13    1
    20    12    19    1
    21    19    23   ar
    22    19    20   ar
    23    24    20    1
    24    23    22   ar
    25    20    21   ar
    26    21    22   ar
    27    21    25    1
    28    22    26    1
    29    32    27    1
    30    26    27   ar
    31    26    30   ar
    32    27    28   ar
    33    28    33    1
    34    28    29   ar
    35    30    29   ar
    36    29    31    1
