@<TRIPOS>MOLECULE
mol_data/opt/b3lyp/geoms/mol2/545.out
 26 28 0 0 0
SMALL
GASTEIGER

@<TRIPOS>ATOM
      1 C          -2.0713   -1.9836   -0.0016 C.ar    1  LIG1       -0.0237
      2 C          -0.7047   -1.9449   -0.0018 C.ar    1  LIG1       -0.0541
      3 C          -0.1901   -0.6181   -0.0003 C.ar    1  LIG1       -0.0469
      4 C          -1.1620    0.3598    0.0011 C.ar    1  LIG1        0.0193
      5 S          -2.7518   -0.3899    0.0006 S.2     1  LIG1       -0.0967
      6 H          -2.7216   -2.8470   -0.0025 H       1  LIG1        0.0693
      7 H          -0.0822   -2.8324   -0.0031 H       1  LIG1        0.0623
      8 H           0.8709   -0.3988   -0.0004 H       1  LIG1        0.0629
      9 C           0.2786    2.4052    0.0042 C.ar    1  LIG1       -0.0529
     10 C           0.4433    3.7819    0.0057 C.ar    1  LIG1       -0.0529
     11 C          -1.0015    1.8166    0.0028 C.ar    1  LIG1       -0.0113
     12 C          -0.6615    4.6561    0.0060 C.ar    1  LIG1       -0.0113
     13 H           1.4509    4.1838    0.0069 H       1  LIG1        0.0624
     14 C          -2.1040    2.6897    0.0031 C.ar    1  LIG1       -0.0529
     15 C          -1.9390    4.0680    0.0047 C.ar    1  LIG1       -0.0529
     16 H          -3.1130    2.2881    0.0020 H       1  LIG1        0.0624
     17 H           1.1627    1.7767    0.0041 H       1  LIG1        0.0624
     18 H          -2.8246    4.6965    0.0048 H       1  LIG1        0.0624
     19 C          -0.4737    6.1096    0.0076 C.ar    1  LIG1        0.0193
     20 C           0.7015    6.8305    0.0080 C.ar    1  LIG1       -0.0469
     21 C           0.5146    8.2412    0.0097 C.ar    1  LIG1       -0.0541
     22 C          -0.8043    8.6014    0.0108 C.ar    1  LIG1       -0.0237
     23 S          -1.8417    7.2134    0.0095 S.2     1  LIG1       -0.0967
     24 H          -1.2324    9.5939    0.0122 H       1  LIG1        0.0693
     25 H           1.6807    6.3670    0.0069 H       1  LIG1        0.0629
     26 H           1.3290    8.9568    0.0102 H       1  LIG1        0.0623
@<TRIPOS>BOND
     1     7     2    1
     2     6     1    1
     3     2     1   ar
     4     2     3   ar
     5     1     5   ar
     6     8     3    1
     7     3     4   ar
     8     5     4   ar
     9     4    11    1
    10    16    14    1
    11    11    14   ar
    12    11     9   ar
    13    14    15   ar
    14    17     9    1
    15     9    10   ar
    16    15    18    1
    17    15    12   ar
    18    10    12   ar
    19    10    13    1
    20    12    19    1
    21    25    20    1
    22    19    20   ar
    23    19    23   ar
    24    20    21   ar
    25    23    22   ar
    26    21    26    1
    27    21    22   ar
    28    22    24    1
