@<TRIPOS>MOLECULE
mol_data/opt/b3lyp/geoms/mol2/548-12.out
 32 35 0 0 0
SMALL
GASTEIGER

@<TRIPOS>ATOM
      1 C          -2.0112   -2.0162   -0.0023 C.ar    1  LIG1       -0.0237
      2 C          -0.6446   -1.9540   -0.0026 C.ar    1  LIG1       -0.0541
      3 C          -0.1550   -0.6190   -0.0008 C.ar    1  LIG1       -0.0469
      4 C          -1.1459    0.3407    0.0008 C.ar    1  LIG1        0.0193
      5 S          -2.7215   -0.4377    0.0001 S.2     1  LIG1       -0.0967
      6 H          -2.6452   -2.8919   -0.0035 H       1  LIG1        0.0693
      7 H          -0.0067   -2.8302   -0.0040 H       1  LIG1        0.0623
      8 H           0.9016   -0.3799   -0.0007 H       1  LIG1        0.0629
      9 C           0.2629    2.4051    0.0043 C.ar    1  LIG1       -0.0529
     10 C           0.4054    3.7842    0.0061 C.ar    1  LIG1       -0.0503
     11 C          -1.0105    1.7994    0.0028 C.ar    1  LIG1       -0.0113
     12 C          -0.7243    4.6208    0.0066 C.ar    1  LIG1        0.0227
     13 H           1.3928    4.2308    0.0072 H       1  LIG1        0.0625
     14 C          -2.1344    2.6490    0.0033 C.ar    1  LIG1       -0.0529
     15 C          -1.9984    4.0294    0.0052 C.ar    1  LIG1       -0.0503
     16 H          -3.1336    2.2241    0.0022 H       1  LIG1        0.0624
     17 H           1.1548    1.7883    0.0040 H       1  LIG1        0.0624
     18 H          -2.8758    4.6656    0.0056 H       1  LIG1        0.0625
     19 C          -0.5762    6.0829    0.0086 C.ar    1  LIG1        0.2034
     20 N          -1.6958    6.8397    0.0093 N.ar    1  LIG1       -0.1251
     21 C          -0.3172    8.6506    0.0120 C.ar    1  LIG1        0.2381
     22 N           0.6759    6.5991    0.0097 N.ar    1  LIG1       -0.1251
     23 N          -1.5709    8.1472    0.0110 N.ar    1  LIG1       -0.1220
     24 N           0.8105    7.9017    0.0114 N.ar    1  LIG1       -0.1220
     25 C          -0.1337   10.0862    0.0139 C.ar    1  LIG1        0.1751
     26 C           1.0010   10.8598    0.0152 C.ar    1  LIG1       -0.0126
     27 C           0.5608   12.2140    0.0169 C.ar    1  LIG1       -0.0232
     28 C          -0.8047   12.1667    0.0164 C.ar    1  LIG1        0.0927
     29 O          -1.2439   10.8844    0.0145 O.2     1  LIG1       -0.4597
     30 H          -1.5721   12.9251    0.0172 H       1  LIG1        0.1029
     31 H           2.0136   10.4863    0.0150 H       1  LIG1        0.0656
     32 H           1.1732   13.1037    0.0182 H       1  LIG1        0.0649
@<TRIPOS>BOND
     1     7     2    1
     2     6     1    1
     3     2     1   ar
     4     2     3   ar
     5     1     5   ar
     6     3     8    1
     7     3     4   ar
     8     5     4   ar
     9     4    11    1
    10    16    14    1
    11    11    14   ar
    12    11     9   ar
    13    14    15   ar
    14    17     9    1
    15     9    10   ar
    16    15    18    1
    17    15    12   ar
    18    10    12   ar
    19    10    13    1
    20    12    19    1
    21    19    20   ar
    22    19    22   ar
    23    20    23   ar
    24    22    24   ar
    25    23    21   ar
    26    24    21   ar
    27    21    25    1
    28    25    29   ar
    29    25    26   ar
    30    29    28   ar
    31    31    26    1
    32    26    27   ar
    33    28    27   ar
    34    28    30    1
    35    27    32    1
