@<TRIPOS>MOLECULE
mol_data/opt/b3lyp/geoms/mol2/548.out
 25 27 0 0 0
SMALL
GASTEIGER

@<TRIPOS>ATOM
      1 C          -2.0483   -1.9526   -0.0016 C.ar    1  LIG1       -0.0237
      2 C          -0.6810   -1.9051   -0.0019 C.ar    1  LIG1       -0.0541
      3 C          -0.1774   -0.5756   -0.0004 C.ar    1  LIG1       -0.0469
      4 C          -1.1585    0.3943    0.0011 C.ar    1  LIG1        0.0193
      5 S          -2.7422   -0.3671    0.0006 S.2     1  LIG1       -0.0967
      6 H          -2.6914   -2.8213   -0.0025 H       1  LIG1        0.0693
      7 H          -0.0526   -2.7881   -0.0032 H       1  LIG1        0.0623
      8 H           0.8817   -0.3478   -0.0005 H       1  LIG1        0.0629
      9 C           0.2735    2.4421    0.0041 C.ar    1  LIG1       -0.0529
     10 C           0.4315    3.8192    0.0057 C.ar    1  LIG1       -0.0503
     11 C          -1.0072    1.8512    0.0028 C.ar    1  LIG1       -0.0113
     12 C          -0.6892    4.6675    0.0061 C.ar    1  LIG1        0.0227
     13 H           1.4237    4.2551    0.0067 H       1  LIG1        0.0625
     14 C          -2.1219    2.7129    0.0033 C.ar    1  LIG1       -0.0529
     15 C          -1.9701    4.0917    0.0049 C.ar    1  LIG1       -0.0503
     16 H          -3.1256    2.2991    0.0023 H       1  LIG1        0.0624
     17 H           1.1581    1.8149    0.0039 H       1  LIG1        0.0624
     18 H          -2.8403    4.7377    0.0052 H       1  LIG1        0.0625
     19 C          -0.5237    6.1287    0.0078 C.ar    1  LIG1        0.2033
     20 N           0.7346    6.6260    0.0087 N.ar    1  LIG1       -0.1258
     21 C          -0.2351    8.6757    0.0109 C.ar    1  LIG1        0.1605
     22 N          -1.6388    6.8949    0.0084 N.ar    1  LIG1       -0.1258
     23 N           0.8812    7.9361    0.0103 N.ar    1  LIG1       -0.1339
     24 N          -1.4887    8.2044    0.0100 N.ar    1  LIG1       -0.1339
     25 H          -0.1131    9.7538    0.0119 H       1  LIG1        0.1085
@<TRIPOS>BOND
     1     7     2    1
     2     6     1    1
     3     2     1   ar
     4     2     3   ar
     5     1     5   ar
     6     8     3    1
     7     3     4   ar
     8     5     4   ar
     9     4    11    1
    10    16    14    1
    11    11    14   ar
    12    11     9   ar
    13    14    15   ar
    14    17     9    1
    15     9    10   ar
    16    15    18    1
    17    15    12   ar
    18    10    12   ar
    19    10    13    1
    20    12    19    1
    21    19    22   ar
    22    19    20   ar
    23    22    24   ar
    24    20    23   ar
    25    24    21   ar
    26    23    21   ar
    27    21    25    1
