@<TRIPOS>MOLECULE
mol_data/opt/b3lyp/geoms/mol2/55-.out
 16 17 0 0 0
SMALL
GASTEIGER

@<TRIPOS>ATOM
      1 C          -2.0461   -1.8625   -0.0004 C.ar    1  LIG1       -0.0237
      2 C          -0.6803   -1.8081   -0.0008 C.ar    1  LIG1       -0.0541
      3 C          -0.1789   -0.4756   -0.0000 C.ar    1  LIG1       -0.0464
      4 C          -1.1655    0.4865    0.0009 C.ar    1  LIG1        0.0259
      5 S          -2.7486   -0.2753    0.0009 S.2     1  LIG1       -0.0961
      6 H          -2.6868   -2.7330   -0.0008 H       1  LIG1        0.0693
      7 H          -0.0485   -2.6888   -0.0016 H       1  LIG1        0.0623
      8 H           0.8779   -0.2334   -0.0002 H       1  LIG1        0.0629
      9 C          -1.0344    1.9314    0.0018 C.ar    1  LIG1        0.0259
     10 C          -2.0210    2.8935    0.0024 C.ar    1  LIG1       -0.0464
     11 C          -1.5196    4.2260    0.0032 C.ar    1  LIG1       -0.0541
     12 C          -0.1538    4.2804    0.0033 C.ar    1  LIG1       -0.0237
     13 S           0.5487    2.6932    0.0024 S.2     1  LIG1       -0.0961
     14 H           0.4869    5.1509    0.0038 H       1  LIG1        0.0693
     15 H          -3.0778    2.6513    0.0022 H       1  LIG1        0.0629
     16 H          -2.1514    5.1067    0.0038 H       1  LIG1        0.0623
@<TRIPOS>BOND
     1     7     2    1
     2     6     1    1
     3     2     1   ar
     4     2     3   ar
     5     1     5   ar
     6     8     3    1
     7     3     4   ar
     8     4     5   ar
     9     4     9    1
    10     9    13   ar
    11     9    10   ar
    12    15    10    1
    13    13    12   ar
    14    10    11   ar
    15    11    12   ar
    16    11    16    1
    17    12    14    1
