@<TRIPOS>MOLECULE
mol_data/opt/b3lyp/geoms/mol2/55-13.out
 24 26 0 0 0
SMALL
GASTEIGER

@<TRIPOS>ATOM
      1 C          -2.0996   -1.9587   -0.0006 C.ar    1  LIG1       -0.0237
      2 C          -0.7336   -1.9097   -0.0010 C.ar    1  LIG1       -0.0541
      3 C          -0.2253   -0.5801   -0.0002 C.ar    1  LIG1       -0.0464
      4 C          -1.2078    0.3880    0.0008 C.ar    1  LIG1        0.0259
      5 S          -2.7956   -0.3676    0.0007 S.2     1  LIG1       -0.0961
      6 H          -2.7439   -2.8263   -0.0011 H       1  LIG1        0.0693
      7 H          -0.1055   -2.7929   -0.0018 H       1  LIG1        0.0623
      8 H           0.8330   -0.3441   -0.0003 H       1  LIG1        0.0629
      9 C          -1.0699    1.8281    0.0018 C.ar    1  LIG1        0.0265
     10 C          -2.0481    2.7987    0.0024 C.ar    1  LIG1       -0.0458
     11 C          -1.5435    4.1232    0.0034 C.ar    1  LIG1       -0.0449
     12 C          -0.1652    4.1947    0.0034 C.ar    1  LIG1        0.0361
     13 S           0.5208    2.5801    0.0023 S.2     1  LIG1       -0.0863
     14 H          -3.1074    2.5666    0.0023 H       1  LIG1        0.0629
     15 H          -2.1893    4.9947    0.0041 H       1  LIG1        0.0630
     16 C           0.6941    5.3558    0.0042 C.ar    1  LIG1        0.0531
     17 C           2.0802    5.4739    0.0052 C.ar    1  LIG1       -0.0359
     18 C           2.4022    6.8538    0.0052 C.ar    1  LIG1       -0.0438
     19 C           1.2130    7.5545    0.0054 C.ar    1  LIG1        0.0022
     20 N           0.1881    6.6432    0.0043 N.ar    1  LIG1       -0.3603
     21 H          -0.7911    6.8764    0.0034 H       1  LIG1        0.1653
     22 H           1.0149    8.6157    0.0058 H       1  LIG1        0.0807
     23 H           2.7779    4.6484    0.0055 H       1  LIG1        0.0639
     24 H           3.3918    7.2871    0.0056 H       1  LIG1        0.0633
@<TRIPOS>BOND
     1     7     2    1
     2     6     1    1
     3     2     1   ar
     4     2     3   ar
     5     1     5   ar
     6     8     3    1
     7     3     4   ar
     8     5     4   ar
     9     4     9    1
    10     9    13   ar
    11     9    10   ar
    12    14    10    1
    13    13    12   ar
    14    10    11   ar
    15    21    20    1
    16    11    12   ar
    17    11    15    1
    18    12    16    1
    19    16    20   ar
    20    16    17   ar
    21    20    19   ar
    22    17    18   ar
    23    17    23    1
    24    18    19   ar
    25    18    24    1
    26    19    22    1
