@<TRIPOS>MOLECULE
mol_data/opt/b3lyp/geoms/mol2/55-4.out
 26 28 0 0 0
SMALL
GASTEIGER

@<TRIPOS>ATOM
      1 C          -2.1180   -1.9865   -0.0011 C.ar    1  LIG1       -0.0237
      2 C          -0.7515   -1.9427   -0.0014 C.ar    1  LIG1       -0.0541
      3 C          -0.2397   -0.6149   -0.0004 C.ar    1  LIG1       -0.0464
      4 C          -1.2194    0.3557    0.0008 C.ar    1  LIG1        0.0259
      5 S          -2.8091   -0.3943    0.0006 S.2     1  LIG1       -0.0961
      6 H          -2.7650   -2.8521   -0.0017 H       1  LIG1        0.0693
      7 H          -0.1268   -2.8285   -0.0024 H       1  LIG1        0.0623
      8 H           0.8192   -0.3813   -0.0005 H       1  LIG1        0.0629
      9 C          -1.0779    1.7964    0.0020 C.ar    1  LIG1        0.0265
     10 C          -2.0570    2.7672    0.0028 C.ar    1  LIG1       -0.0458
     11 C          -1.5495    4.0894    0.0039 C.ar    1  LIG1       -0.0463
     12 C          -0.1732    4.1665    0.0039 C.ar    1  LIG1        0.0199
     13 S           0.5082    2.5457    0.0025 S.2     1  LIG1       -0.0877
     14 H          -3.1165    2.5359    0.0027 H       1  LIG1        0.0629
     15 H          -2.1921    4.9615    0.0048 H       1  LIG1        0.0629
     16 C           2.0882    5.2560    0.0064 C.ar    1  LIG1       -0.0535
     17 C           2.8914    6.3933    0.0073 C.ar    1  LIG1       -0.0612
     18 C           0.6842    5.3562    0.0049 C.ar    1  LIG1       -0.0113
     19 C           2.3159    7.6642    0.0068 C.ar    1  LIG1       -0.0617
     20 H           3.9720    6.2841    0.0084 H       1  LIG1        0.0618
     21 C           0.1194    6.6472    0.0044 C.ar    1  LIG1       -0.0535
     22 C           0.9243    7.7821    0.0054 C.ar    1  LIG1       -0.0612
     23 H          -0.9588    6.7658    0.0032 H       1  LIG1        0.0624
     24 H           2.9421    8.5512    0.0075 H       1  LIG1        0.0618
     25 H           2.5608    4.2780    0.0069 H       1  LIG1        0.0624
     26 H           0.4611    8.7646    0.0050 H       1  LIG1        0.0618
@<TRIPOS>BOND
     1     7     2    1
     2     6     1    1
     3     2     1   ar
     4     2     3   ar
     5     1     5   ar
     6     8     3    1
     7     3     4   ar
     8     5     4   ar
     9     4     9    1
    10     9    13   ar
    11     9    10   ar
    12    13    12   ar
    13    14    10    1
    14    10    11   ar
    15    23    21    1
    16    11    12   ar
    17    11    15    1
    18    12    18    1
    19    21    18   ar
    20    21    22   ar
    21    18    16   ar
    22    26    22    1
    23    22    19   ar
    24    16    25    1
    25    16    17   ar
    26    19    17   ar
    27    19    24    1
    28    17    20    1
