@<TRIPOS>MOLECULE
mol_data/opt/b3lyp/geoms/mol2/55-4-.out
 26 28 0 0 0
SMALL
GASTEIGER

@<TRIPOS>ATOM
      1 C          -2.1465   -1.9795    0.0001 C.ar    1  LIG1       -0.0237
      2 C          -0.7797   -1.9466   -0.0009 C.ar    1  LIG1       -0.0541
      3 C          -0.2574   -0.6229   -0.0004 C.ar    1  LIG1       -0.0464
      4 C          -1.2294    0.3554    0.0009 C.ar    1  LIG1        0.0259
      5 S          -2.8249   -0.3818    0.0017 S.2     1  LIG1       -0.0961
      6 H          -2.8004   -2.8398   -0.0000 H       1  LIG1        0.0693
      7 H          -0.1622   -2.8373   -0.0019 H       1  LIG1        0.0623
      8 H           0.8033   -0.3977   -0.0011 H       1  LIG1        0.0629
      9 C          -1.0764    1.7950    0.0017 C.ar    1  LIG1        0.0265
     10 C          -2.0477    2.7736    0.0027 C.ar    1  LIG1       -0.0458
     11 C          -1.5297    4.0917    0.0032 C.ar    1  LIG1       -0.0463
     12 C          -0.1528    4.1579    0.0026 C.ar    1  LIG1        0.0199
     13 S           0.5156    2.5318    0.0013 S.2     1  LIG1       -0.0877
     14 H          -3.1089    2.5507    0.0031 H       1  LIG1        0.0629
     15 H          -2.1654    4.9689    0.0041 H       1  LIG1        0.0629
     16 C           0.1595    6.6362    0.0023 C.ar    1  LIG1       -0.0535
     17 C           0.9734    7.7645    0.0027 C.ar    1  LIG1       -0.0612
     18 C           0.7141    5.3407    0.0029 C.ar    1  LIG1       -0.0113
     19 C           2.3640    7.6357    0.0034 C.ar    1  LIG1       -0.0617
     20 H           0.5180    8.7507    0.0022 H       1  LIG1        0.0618
     21 C           2.1172    5.2294    0.0037 C.ar    1  LIG1       -0.0535
     22 C           2.9295    6.3603    0.0039 C.ar    1  LIG1       -0.0612
     23 H           2.5821    4.2479    0.0042 H       1  LIG1        0.0624
     24 H           2.9974    8.5176    0.0037 H       1  LIG1        0.0618
     25 H          -0.9179    6.7631    0.0016 H       1  LIG1        0.0624
     26 H           4.0093    6.2426    0.0046 H       1  LIG1        0.0618
@<TRIPOS>BOND
     1     7     2    1
     2     8     3    1
     3     2     3   ar
     4     2     1   ar
     5     3     4   ar
     6     6     1    1
     7     1     5   ar
     8     4     5   ar
     9     4     9    1
    10    13     9   ar
    11    13    12   ar
    12    25    16    1
    13     9    10   ar
    14    20    17    1
    15    16    17   ar
    16    16    18   ar
    17    12    18    1
    18    12    11   ar
    19    17    19   ar
    20    10    14    1
    21    10    11   ar
    22    18    21   ar
    23    11    15    1
    24    19    24    1
    25    19    22   ar
    26    21    22   ar
    27    21    23    1
    28    22    26    1
