@<TRIPOS>MOLECULE
mol_data/opt/b3lyp/geoms/mol2/55-5.out
 23 25 0 0 0
SMALL
GASTEIGER

@<TRIPOS>ATOM
      1 C          -2.1337   -1.9507   -0.0003 C.ar    1  LIG1       -0.0237
      2 C          -0.7667   -1.9215   -0.0009 C.ar    1  LIG1       -0.0541
      3 C          -0.2407   -0.5993   -0.0002 C.ar    1  LIG1       -0.0464
      4 C          -1.2104    0.3817    0.0009 C.ar    1  LIG1        0.0259
      5 S          -2.8080   -0.3514    0.0012 S.2     1  LIG1       -0.0961
      6 H          -2.7900   -2.8095   -0.0005 H       1  LIG1        0.0693
      7 H          -0.1515   -2.8139   -0.0018 H       1  LIG1        0.0623
      8 H           0.8206   -0.3774   -0.0006 H       1  LIG1        0.0629
      9 C          -1.0535    1.8202    0.0017 C.ar    1  LIG1        0.0265
     10 C          -2.0221    2.8019    0.0025 C.ar    1  LIG1       -0.0458
     11 C          -1.5028    4.1190    0.0032 C.ar    1  LIG1       -0.0458
     12 C          -0.1249    4.1755    0.0030 C.ar    1  LIG1        0.0265
     13 S           0.5448    2.5507    0.0019 S.2     1  LIG1       -0.0872
     14 H          -3.0836    2.5808    0.0026 H       1  LIG1        0.0629
     15 H          -2.1278    5.0051    0.0038 H       1  LIG1        0.0629
     16 C           0.7422    5.3340    0.0035 C.ar    1  LIG1        0.0259
     17 C           2.1205    5.3893    0.0038 C.ar    1  LIG1       -0.0464
     18 C           2.6383    6.7146    0.0044 C.ar    1  LIG1       -0.0541
     19 C           1.6592    7.6689    0.0046 C.ar    1  LIG1       -0.0237
     20 S           0.0748    6.9601    0.0040 S.2     1  LIG1       -0.0961
     21 H           1.7655    8.7445    0.0051 H       1  LIG1        0.0693
     22 H           2.7448    4.5027    0.0035 H       1  LIG1        0.0629
     23 H           3.6970    6.9470    0.0047 H       1  LIG1        0.0623
@<TRIPOS>BOND
     1     7     2    1
     2     2     1   ar
     3     2     3   ar
     4     8     3    1
     5     6     1    1
     6     1     5   ar
     7     3     4   ar
     8     4     5   ar
     9     4     9    1
    10     9    13   ar
    11     9    10   ar
    12    13    12   ar
    13    10    14    1
    14    10    11   ar
    15    12    11   ar
    16    12    16    1
    17    11    15    1
    18    16    17   ar
    19    16    20   ar
    20    22    17    1
    21    17    18   ar
    22    20    19   ar
    23    18    19   ar
    24    18    23    1
    25    19    21    1
