@<TRIPOS>MOLECULE
mol_data/opt/b3lyp/geoms/mol2/55-5-.out
 23 25 0 0 0
SMALL
GASTEIGER

@<TRIPOS>ATOM
      1 C          -2.1056   -1.9531   -0.0006 C.ar    1  LIG1       -0.0237
      2 C          -0.7391   -1.9080   -0.0011 C.ar    1  LIG1       -0.0541
      3 C          -0.2283   -0.5800   -0.0003 C.ar    1  LIG1       -0.0464
      4 C          -1.2093    0.3898    0.0009 C.ar    1  LIG1        0.0259
      5 S          -2.7983   -0.3616    0.0010 S.2     1  LIG1       -0.0961
      6 H          -2.7520   -2.8194   -0.0010 H       1  LIG1        0.0693
      7 H          -0.1136   -2.7932   -0.0021 H       1  LIG1        0.0623
      8 H           0.8304   -0.3458   -0.0005 H       1  LIG1        0.0629
      9 C          -1.0686    1.8299    0.0019 C.ar    1  LIG1        0.0265
     10 C          -2.0471    2.8027    0.0027 C.ar    1  LIG1       -0.0458
     11 C          -1.5422    4.1243    0.0035 C.ar    1  LIG1       -0.0458
     12 C          -0.1634    4.1949    0.0035 C.ar    1  LIG1        0.0265
     13 S           0.5200    2.5778    0.0023 S.2     1  LIG1       -0.0872
     14 H          -3.1064    2.5705    0.0026 H       1  LIG1        0.0629
     15 H          -2.1763    5.0030    0.0043 H       1  LIG1        0.0629
     16 C           0.6661    5.3835    0.0043 C.ar    1  LIG1        0.0259
     17 C           0.2539    6.7015    0.0043 C.ar    1  LIG1       -0.0464
     18 C           1.3272    7.6338    0.0051 C.ar    1  LIG1       -0.0541
     19 C           2.5565    7.0337    0.0058 C.ar    1  LIG1       -0.0237
     20 S           2.4201    5.3047    0.0054 S.2     1  LIG1       -0.0961
     21 H           3.5337    7.4953    0.0064 H       1  LIG1        0.0693
     22 H          -0.7902    6.9912    0.0036 H       1  LIG1        0.0629
     23 H           1.1897    8.7091    0.0052 H       1  LIG1        0.0623
@<TRIPOS>BOND
     1     7     2    1
     2     2     1   ar
     3     2     3   ar
     4     6     1    1
     5     1     5   ar
     6     8     3    1
     7     3     4   ar
     8     4     5   ar
     9     4     9    1
    10     9    13   ar
    11     9    10   ar
    12    13    12   ar
    13    14    10    1
    14    10    11   ar
    15    12    11   ar
    16    12    16    1
    17    11    15    1
    18    22    17    1
    19    16    17   ar
    20    16    20   ar
    21    17    18   ar
    22    18    23    1
    23    18    19   ar
    24    20    19   ar
    25    19    21    1
