@<TRIPOS>MOLECULE
mol_data/opt/b3lyp/geoms/mol2/55-8-.out
 22 24 0 0 0
SMALL
GASTEIGER

@<TRIPOS>ATOM
      1 C          -2.0956   -1.9091   -0.0004 C.ar    1  LIG1       -0.0237
      2 C          -0.7274   -1.8735   -0.0007 C.ar    1  LIG1       -0.0541
      3 C          -0.2108   -0.5496    0.0000 C.ar    1  LIG1       -0.0464
      4 C          -1.1884    0.4246    0.0009 C.ar    1  LIG1        0.0259
      5 S          -2.7807   -0.3177    0.0009 S.2     1  LIG1       -0.0961
      6 H          -2.7458   -2.7726   -0.0008 H       1  LIG1        0.0693
      7 H          -0.1077   -2.7624   -0.0015 H       1  LIG1        0.0623
      8 H           0.8491   -0.3205   -0.0001 H       1  LIG1        0.0629
      9 C          -1.0370    1.8636    0.0018 C.ar    1  LIG1        0.0266
     10 C          -2.0276    2.8331    0.0024 C.ar    1  LIG1       -0.0457
     11 C          -1.5237    4.1502    0.0031 C.ar    1  LIG1       -0.0432
     12 C          -0.1446    4.2009    0.0032 C.ar    1  LIG1        0.0604
     13 S           0.5531    2.5968    0.0022 S.2     1  LIG1       -0.0845
     14 H          -3.0855    2.5966    0.0022 H       1  LIG1        0.0629
     15 H          -2.1320    5.0460    0.0036 H       1  LIG1        0.0630
     16 C           0.6978    5.3749    0.0039 C.ar    1  LIG1        0.2098
     17 N           0.0921    6.5886    0.0044 N.ar    1  LIG1       -0.1253
     18 C           2.1947    7.4478    0.0051 C.ar    1  LIG1        0.1605
     19 N           2.0390    5.1865    0.0039 N.ar    1  LIG1       -0.1253
     20 N           0.8686    7.6514    0.0051 N.ar    1  LIG1       -0.1339
     21 N           2.8068    6.2568    0.0046 N.ar    1  LIG1       -0.1339
     22 H           2.8280    8.3286    0.0058 H       1  LIG1        0.1085
@<TRIPOS>BOND
     1     7     2    1
     2     6     1    1
     3     2     1   ar
     4     2     3   ar
     5     1     5   ar
     6     8     3    1
     7     3     4   ar
     8     5     4   ar
     9     4     9    1
    10     9    13   ar
    11     9    10   ar
    12    14    10    1
    13    13    12   ar
    14    10    11   ar
    15    11    12   ar
    16    11    15    1
    17    12    16    1
    18    16    19   ar
    19    16    17   ar
    20    19    21   ar
    21    17    20   ar
    22    21    18   ar
    23    18    20   ar
    24    18    22    1
