@<TRIPOS>MOLECULE
mol_data/opt/b3lyp/geoms/mol2/55-8-4-.out
 32 35 0 0 0
SMALL
GASTEIGER

@<TRIPOS>ATOM
      1 C          -2.1570   -1.9837    0.0001 C.ar    1  LIG1       -0.0237
      2 C          -0.7890   -1.9520   -0.0003 C.ar    1  LIG1       -0.0541
      3 C          -0.2680   -0.6296    0.0002 C.ar    1  LIG1       -0.0464
      4 C          -1.2421    0.3479    0.0011 C.ar    1  LIG1        0.0259
      5 S          -2.8369   -0.3896    0.0013 S.2     1  LIG1       -0.0961
      6 H          -2.8100   -2.8447   -0.0002 H       1  LIG1        0.0693
      7 H          -0.1719   -2.8428   -0.0010 H       1  LIG1        0.0623
      8 H           0.7926   -0.4035   -0.0000 H       1  LIG1        0.0629
      9 C          -1.0864    1.7867    0.0018 C.ar    1  LIG1        0.0266
     10 C          -2.0722    2.7600    0.0023 C.ar    1  LIG1       -0.0457
     11 C          -1.5632    4.0758    0.0028 C.ar    1  LIG1       -0.0432
     12 C          -0.1842    4.1220    0.0028 C.ar    1  LIG1        0.0604
     13 S           0.5071    2.5150    0.0020 S.2     1  LIG1       -0.0845
     14 H          -3.1311    2.5275    0.0022 H       1  LIG1        0.0629
     15 H          -2.1687    4.9735    0.0033 H       1  LIG1        0.0630
     16 C           0.6640    5.2920    0.0033 C.ar    1  LIG1        0.2099
     17 N           0.0703    6.5101    0.0037 N.ar    1  LIG1       -0.1247
     18 C           2.1884    7.3811    0.0042 C.ar    1  LIG1        0.2034
     19 N           2.0034    5.1032    0.0033 N.ar    1  LIG1       -0.1247
     20 N           0.8475    7.5647    0.0042 N.ar    1  LIG1       -0.1252
     21 N           2.7740    6.1638    0.0037 N.ar    1  LIG1       -0.1252
     22 C           2.4914    9.8605    0.0050 C.ar    1  LIG1       -0.0509
     23 C           3.3142   10.9833    0.0054 C.ar    1  LIG1       -0.0611
     24 C           3.0554    8.5736    0.0047 C.ar    1  LIG1        0.0226
     25 C           4.7035   10.8382    0.0056 C.ar    1  LIG1       -0.0617
     26 H           2.8705   11.9744    0.0057 H       1  LIG1        0.0618
     27 C           4.4533    8.4329    0.0048 C.ar    1  LIG1       -0.0509
     28 C           5.2690    9.5608    0.0053 C.ar    1  LIG1       -0.0611
     29 H           4.8830    7.4380    0.0046 H       1  LIG1        0.0625
     30 H           5.3426   11.7165    0.0060 H       1  LIG1        0.0618
     31 H           1.4124    9.9637    0.0048 H       1  LIG1        0.0625
     32 H           6.3486    9.4433    0.0054 H       1  LIG1        0.0618
@<TRIPOS>BOND
     1     7     2    1
     2     2     1   ar
     3     2     3   ar
     4     6     1    1
     5     8     3    1
     6     1     5   ar
     7     3     4   ar
     8     4     5   ar
     9     4     9    1
    10     9    13   ar
    11     9    10   ar
    12    13    12   ar
    13    14    10    1
    14    10    11   ar
    15    12    11   ar
    16    12    16    1
    17    11    15    1
    18    16    19   ar
    19    16    17   ar
    20    19    21   ar
    21    17    20   ar
    22    21    18   ar
    23    20    18   ar
    24    18    24    1
    25    29    27    1
    26    24    27   ar
    27    24    22   ar
    28    27    28   ar
    29    31    22    1
    30    22    23   ar
    31    28    32    1
    32    28    25   ar
    33    23    25   ar
    34    23    26    1
    35    25    30    1
