@<TRIPOS>MOLECULE
mol_data/opt/b3lyp/geoms/mol2/55-88.out
 28 31 0 0 0
SMALL
GASTEIGER

@<TRIPOS>ATOM
      1 C          -2.1287   -1.9451   -0.0004 C.ar    1  LIG1       -0.0237
      2 C          -0.7598   -1.9149   -0.0006 C.ar    1  LIG1       -0.0541
      3 C          -0.2389   -0.5937    0.0000 C.ar    1  LIG1       -0.0464
      4 C          -1.2141    0.3840    0.0009 C.ar    1  LIG1        0.0259
      5 S          -2.8091   -0.3529    0.0009 S.2     1  LIG1       -0.0961
      6 H          -2.7815   -2.8064   -0.0007 H       1  LIG1        0.0693
      7 H          -0.1437   -2.8061   -0.0014 H       1  LIG1        0.0623
      8 H           0.8218   -0.3677   -0.0001 H       1  LIG1        0.0629
      9 C          -1.0575    1.8212    0.0017 C.ar    1  LIG1        0.0266
     10 C          -2.0481    2.7940    0.0023 C.ar    1  LIG1       -0.0457
     11 C          -1.5426    4.1075    0.0030 C.ar    1  LIG1       -0.0432
     12 C          -0.1605    4.1554    0.0030 C.ar    1  LIG1        0.0604
     13 S           0.5340    2.5488    0.0022 S.2     1  LIG1       -0.0845
     14 H          -3.1061    2.5586    0.0022 H       1  LIG1        0.0629
     15 H          -2.1485    5.0049    0.0035 H       1  LIG1        0.0630
     16 C           0.6790    5.3232    0.0037 C.ar    1  LIG1        0.2099
     17 N           2.0230    5.1375    0.0037 N.ar    1  LIG1       -0.1246
     18 C           2.1857    7.4037    0.0049 C.ar    1  LIG1        0.2435
     19 N           0.0782    6.5418    0.0043 N.ar    1  LIG1       -0.1246
     20 N           2.7890    6.2006    0.0043 N.ar    1  LIG1       -0.1218
     21 N           0.8514    7.5988    0.0049 N.ar    1  LIG1       -0.1218
     22 C           3.0559    8.6094    0.0057 C.ar    1  LIG1        0.2434
     23 N           4.3880    8.4102    0.0056 N.ar    1  LIG1       -0.1224
     24 C           4.5464   10.6737    0.0071 C.ar    1  LIG1        0.1605
     25 N           2.4476    9.8110    0.0064 N.ar    1  LIG1       -0.1224
     26 N           5.1587    9.4826    0.0063 N.ar    1  LIG1       -0.1338
     27 N           3.2232   10.8801    0.0070 N.ar    1  LIG1       -0.1338
     28 H           5.1819   11.5539    0.0073 H       1  LIG1        0.1085
@<TRIPOS>BOND
     1     7     2    1
     2     6     1    1
     3     2     1   ar
     4     2     3   ar
     5     1     5   ar
     6     8     3    1
     7     3     4   ar
     8     5     4   ar
     9     4     9    1
    10     9    13   ar
    11     9    10   ar
    12    13    12   ar
    13    14    10    1
    14    10    11   ar
    15    11    12   ar
    16    11    15    1
    17    12    16    1
    18    17    16   ar
    19    17    20   ar
    20    16    19   ar
    21    19    21   ar
    22    20    18   ar
    23    21    18   ar
    24    18    22    1
    25    23    22   ar
    26    23    26   ar
    27    22    25   ar
    28    26    24   ar
    29    25    27   ar
    30    27    24   ar
    31    24    28    1
