@<TRIPOS>MOLECULE
mol_data/opt/b3lyp/geoms/mol2/551212-.out
 30 33 0 0 0
SMALL
GASTEIGER

@<TRIPOS>ATOM
      1 C          -1.9074   -2.0236   -0.0000 C.ar    1  LIG1       -0.0237
      2 C          -0.5411   -1.9532   -0.0008 C.ar    1  LIG1       -0.0541
      3 C          -0.0533   -0.6179   -0.0004 C.ar    1  LIG1       -0.0464
      4 C          -1.0521    0.3362    0.0007 C.ar    1  LIG1        0.0259
      5 S          -2.6250   -0.4445    0.0012 S.2     1  LIG1       -0.0961
      6 H          -2.5388   -2.9007   -0.0001 H       1  LIG1        0.0693
      7 H           0.0999   -2.8272   -0.0017 H       1  LIG1        0.0623
      8 H           1.0006   -0.3662   -0.0010 H       1  LIG1        0.0629
      9 C          -0.9027    1.7774    0.0014 C.ar    1  LIG1        0.0266
     10 C           0.2728    2.5054    0.0012 C.ar    1  LIG1       -0.0457
     11 C           0.0786    3.9049    0.0020 C.ar    1  LIG1       -0.0434
     12 C          -1.2525    4.2756    0.0028 C.ar    1  LIG1        0.0550
     13 S          -2.2842    2.8602    0.0025 S.2     1  LIG1       -0.0847
     14 H           1.2521    2.0416    0.0006 H       1  LIG1        0.0629
     15 H           0.8902    4.6231    0.0020 H       1  LIG1        0.0630
     16 C          -1.8090    5.5991    0.0037 C.ar    1  LIG1        0.1424
     17 C          -1.2564    6.8603    0.0044 C.ar    1  LIG1       -0.0146
     18 C          -2.3359    7.7837    0.0052 C.ar    1  LIG1       -0.0121
     19 C          -3.4893    7.0372    0.0050 C.ar    1  LIG1        0.1706
     20 O          -3.1778    5.7043    0.0041 O.2     1  LIG1       -0.4512
     21 H          -0.2017    7.0925    0.0043 H       1  LIG1        0.0656
     22 H          -2.2813    8.8618    0.0059 H       1  LIG1        0.0657
     23 C          -4.8825    7.3772    0.0055 C.ar    1  LIG1        0.1697
     24 C          -6.0342    6.6317    0.0056 C.ar    1  LIG1       -0.0128
     25 C          -7.1149    7.5668    0.0063 C.ar    1  LIG1       -0.0232
     26 C          -6.5507    8.8064    0.0066 C.ar    1  LIG1        0.0927
     27 O          -5.1889    8.7123    0.0061 O.2     1  LIG1       -0.4598
     28 H          -6.9502    9.8081    0.0071 H       1  LIG1        0.1029
     29 H          -6.0918    5.5539    0.0052 H       1  LIG1        0.0656
     30 H          -8.1718    7.3430    0.0065 H       1  LIG1        0.0649
@<TRIPOS>BOND
     1     7     2    1
     2     8     3    1
     3     2     3   ar
     4     2     1   ar
     5     3     4   ar
     6     6     1    1
     7     1     5   ar
     8    14    10    1
     9     4     5   ar
    10     4     9    1
    11    10     9   ar
    12    10    11   ar
    13     9    13   ar
    14    15    11    1
    15    11    12   ar
    16    13    12   ar
    17    12    16    1
    18    16    20   ar
    19    16    17   ar
    20    20    19   ar
    21    21    17    1
    22    17    18   ar
    23    19    18   ar
    24    19    23    1
    25    29    24    1
    26    18    22    1
    27    23    24   ar
    28    23    27   ar
    29    24    25   ar
    30    27    26   ar
    31    25    30    1
    32    25    26   ar
    33    26    28    1
