@<TRIPOS>MOLECULE
mol_data/opt/b3lyp/geoms/mol2/5512.out
 23 25 0 0 0
SMALL
GASTEIGER

@<TRIPOS>ATOM
      1 C          -2.0027   -1.9497   -0.0002 C.ar    1  LIG1       -0.0237
      2 C          -0.6357   -1.8977   -0.0008 C.ar    1  LIG1       -0.0541
      3 C          -0.1302   -0.5688   -0.0003 C.ar    1  LIG1       -0.0464
      4 C          -1.1161    0.3982    0.0007 C.ar    1  LIG1        0.0259
      5 S          -2.6991   -0.3612    0.0011 S.2     1  LIG1       -0.0961
      6 H          -2.6459   -2.8182   -0.0004 H       1  LIG1        0.0693
      7 H          -0.0065   -2.7804   -0.0016 H       1  LIG1        0.0623
      8 H           0.9270   -0.3314   -0.0007 H       1  LIG1        0.0629
      9 C          -0.9477    1.8383    0.0014 C.ar    1  LIG1        0.0266
     10 C           0.2366    2.5503    0.0013 C.ar    1  LIG1       -0.0457
     11 C           0.0592    3.9533    0.0021 C.ar    1  LIG1       -0.0434
     12 C          -1.2656    4.3396    0.0028 C.ar    1  LIG1        0.0550
     13 S          -2.3150    2.9385    0.0024 S.2     1  LIG1       -0.0847
     14 H           1.2098    2.0740    0.0007 H       1  LIG1        0.0629
     15 H           0.8795    4.6619    0.0022 H       1  LIG1        0.0630
     16 C          -1.8088    5.6733    0.0037 C.ar    1  LIG1        0.1413
     17 C          -1.2430    6.9256    0.0044 C.ar    1  LIG1       -0.0154
     18 C          -2.3231    7.8603    0.0051 C.ar    1  LIG1       -0.0233
     19 C          -3.4685    7.1233    0.0048 C.ar    1  LIG1        0.0926
     20 O          -3.1747    5.7916    0.0039 O.2     1  LIG1       -0.4624
     21 H          -4.5174    7.3731    0.0051 H       1  LIG1        0.1029
     22 H          -0.1863    7.1487    0.0044 H       1  LIG1        0.0655
     23 H          -2.2537    8.9385    0.0058 H       1  LIG1        0.0649
@<TRIPOS>BOND
     1     7     2    1
     2     2     3   ar
     3     2     1   ar
     4     8     3    1
     5     6     1    1
     6     3     4   ar
     7     1     5   ar
     8     4     5   ar
     9     4     9    1
    10    14    10    1
    11    10     9   ar
    12    10    11   ar
    13     9    13   ar
    14    11    15    1
    15    11    12   ar
    16    13    12   ar
    17    12    16    1
    18    16    20   ar
    19    16    17   ar
    20    20    19   ar
    21    17    22    1
    22    17    18   ar
    23    19    21    1
    24    19    18   ar
    25    18    23    1
