@<TRIPOS>MOLECULE
mol_data/opt/b3lyp/geoms/mol2/5512-.out
 23 25 0 0 0
SMALL
GASTEIGER

@<TRIPOS>ATOM
      1 C          -2.0320   -1.9355   -0.0002 C.ar    1  LIG1       -0.0237
      2 C          -0.6646   -1.8976   -0.0009 C.ar    1  LIG1       -0.0541
      3 C          -0.1452   -0.5741   -0.0003 C.ar    1  LIG1       -0.0464
      4 C          -1.1209    0.4031    0.0007 C.ar    1  LIG1        0.0259
      5 S          -2.7118   -0.3398    0.0011 S.2     1  LIG1       -0.0961
      6 H          -2.6842   -2.7973   -0.0004 H       1  LIG1        0.0693
      7 H          -0.0446   -2.7868   -0.0017 H       1  LIG1        0.0623
      8 H           0.9143   -0.3472   -0.0008 H       1  LIG1        0.0629
      9 C          -0.9363    1.8409    0.0014 C.ar    1  LIG1        0.0266
     10 C           0.2525    2.5434    0.0013 C.ar    1  LIG1       -0.0457
     11 C           0.0892    3.9492    0.0022 C.ar    1  LIG1       -0.0434
     12 C          -1.2309    4.3476    0.0029 C.ar    1  LIG1        0.0550
     13 S          -2.2939    2.9567    0.0025 S.2     1  LIG1       -0.0847
     14 H           1.2210    2.0574    0.0007 H       1  LIG1        0.0629
     15 H           0.9083    4.6575    0.0023 H       1  LIG1        0.0630
     16 C          -1.7573    5.6883    0.0038 C.ar    1  LIG1        0.1413
     17 C          -3.0244    6.2179    0.0043 C.ar    1  LIG1       -0.0154
     18 C          -2.8732    7.6385    0.0051 C.ar    1  LIG1       -0.0233
     19 C          -1.5330    7.8792    0.0050 C.ar    1  LIG1        0.0926
     20 O          -0.8371    6.7064    0.0043 O.2     1  LIG1       -0.4624
     21 H          -0.9370    8.7780    0.0054 H       1  LIG1        0.1029
     22 H          -3.9499    5.6604    0.0041 H       1  LIG1        0.0655
     23 H          -3.6592    8.3796    0.0056 H       1  LIG1        0.0649
@<TRIPOS>BOND
     1     7     2    1
     2     2     3   ar
     3     2     1   ar
     4     8     3    1
     5     6     1    1
     6     3     4   ar
     7     1     5   ar
     8     4     5   ar
     9     4     9    1
    10    14    10    1
    11    10     9   ar
    12    10    11   ar
    13     9    13   ar
    14    11    15    1
    15    11    12   ar
    16    13    12   ar
    17    12    16    1
    18    16    20   ar
    19    16    17   ar
    20    22    17    1
    21    20    19   ar
    22    17    18   ar
    23    19    18   ar
    24    19    21    1
    25    18    23    1
