@<TRIPOS>MOLECULE
mol_data/opt/b3lyp/geoms/mol2/5513-4-.out
 34 37 0 0 0
SMALL
GASTEIGER

@<TRIPOS>ATOM
      1 C          -2.0936   -2.0789    0.0009 C.ar    1  LIG1       -0.0237
      2 C          -0.7258   -2.0582    0.0000 C.ar    1  LIG1       -0.0541
      3 C          -0.1892   -0.7416    0.0001 C.ar    1  LIG1       -0.0464
      4 C          -1.1521    0.2485    0.0010 C.ar    1  LIG1        0.0259
      5 S          -2.7526   -0.4740    0.0018 S.2     1  LIG1       -0.0961
      6 H          -2.7568   -2.9320    0.0010 H       1  LIG1        0.0693
      7 H          -0.1173   -2.9553   -0.0006 H       1  LIG1        0.0623
      8 H           0.8734   -0.5291   -0.0005 H       1  LIG1        0.0629
      9 C          -0.9503    1.6834    0.0013 C.ar    1  LIG1        0.0265
     10 C           0.2466    2.3705    0.0009 C.ar    1  LIG1       -0.0458
     11 C           0.0998    3.7784    0.0014 C.ar    1  LIG1       -0.0449
     12 C          -1.2150    4.2031    0.0021 C.ar    1  LIG1        0.0361
     13 S          -2.2913    2.8189    0.0022 S.2     1  LIG1       -0.0863
     14 H           1.2097    1.8739    0.0004 H       1  LIG1        0.0629
     15 H           0.9480    4.4545    0.0012 H       1  LIG1        0.0630
     16 C          -1.7452    5.5439    0.0027 C.ar    1  LIG1        0.0536
     17 C          -3.0572    6.0138    0.0033 C.ar    1  LIG1       -0.0353
     18 C          -3.0124    7.4217    0.0036 C.ar    1  LIG1       -0.0358
     19 C          -1.6754    7.8164    0.0033 C.ar    1  LIG1        0.0469
     20 N          -0.9290    6.6562    0.0027 N.ar    1  LIG1       -0.3537
     21 H           0.0763    6.6201    0.0025 H       1  LIG1        0.1659
     22 H          -3.9442    5.3964    0.0034 H       1  LIG1        0.0639
     23 H          -3.8655    8.0842    0.0041 H       1  LIG1        0.0639
     24 C          -1.8942   10.2942    0.0037 C.ar    1  LIG1       -0.0526
     25 C          -1.3441   11.5712    0.0039 C.ar    1  LIG1       -0.0611
     26 C          -1.0746    9.1478    0.0035 C.ar    1  LIG1       -0.0017
     27 C           0.0419   11.7470    0.0040 C.ar    1  LIG1       -0.0617
     28 H          -2.0020   12.4356    0.0040 H       1  LIG1        0.0618
     29 C           0.3198    9.3433    0.0036 C.ar    1  LIG1       -0.0526
     30 C           0.8687   10.6236    0.0039 C.ar    1  LIG1       -0.0611
     31 H           0.9977    8.4939    0.0036 H       1  LIG1        0.0624
     32 H           0.4701   12.7446    0.0042 H       1  LIG1        0.0618
     33 H          -2.9731   10.1799    0.0035 H       1  LIG1        0.0624
     34 H           1.9486   10.7414    0.0039 H       1  LIG1        0.0618
@<TRIPOS>BOND
     1     7     2    1
     2     8     3    1
     3     2     3   ar
     4     2     1   ar
     5     3     4   ar
     6    14    10    1
     7     1     6    1
     8     1     5   ar
     9    10     9   ar
    10    10    11   ar
    11     4     9    1
    12     4     5   ar
    13    15    11    1
    14     9    13   ar
    15    11    12   ar
    16    12    13   ar
    17    12    16    1
    18    21    20    1
    19    16    20   ar
    20    16    17   ar
    21    20    19   ar
    22    17    22    1
    23    17    18   ar
    24    19    26    1
    25    19    18   ar
    26    26    29   ar
    27    26    24   ar
    28    33    24    1
    29    31    29    1
    30    29    30   ar
    31    18    23    1
    32    24    25   ar
    33    30    34    1
    34    30    27   ar
    35    25    28    1
    36    25    27   ar
    37    27    32    1
