@<TRIPOS>MOLECULE
mol_data/opt/b3lyp/geoms/mol2/5513-.out
 24 26 0 0 0
SMALL
GASTEIGER

@<TRIPOS>ATOM
      1 C          -2.0253   -1.9588   -0.0001 C.ar    1  LIG1       -0.0237
      2 C          -0.6580   -1.9214   -0.0006 C.ar    1  LIG1       -0.0541
      3 C          -0.1373   -0.5981   -0.0002 C.ar    1  LIG1       -0.0464
      4 C          -1.1120    0.3801    0.0007 C.ar    1  LIG1        0.0259
      5 S          -2.7037   -0.3620    0.0009 S.2     1  LIG1       -0.0961
      6 H          -2.6781   -2.8200   -0.0003 H       1  LIG1        0.0693
      7 H          -0.0382   -2.8107   -0.0013 H       1  LIG1        0.0623
      8 H           0.9225   -0.3726   -0.0005 H       1  LIG1        0.0629
      9 C          -0.9286    1.8178    0.0013 C.ar    1  LIG1        0.0265
     10 C           0.2578    2.5215    0.0014 C.ar    1  LIG1       -0.0458
     11 C           0.0907    3.9281    0.0021 C.ar    1  LIG1       -0.0449
     12 C          -1.2290    4.3340    0.0026 C.ar    1  LIG1        0.0361
     13 S          -2.2854    2.9355    0.0021 S.2     1  LIG1       -0.0863
     14 H           1.2282    2.0390    0.0009 H       1  LIG1        0.0629
     15 H           0.9292    4.6165    0.0022 H       1  LIG1        0.0630
     16 C          -1.7797    5.6694    0.0034 C.ar    1  LIG1        0.0531
     17 C          -3.0951    6.1223    0.0037 C.ar    1  LIG1       -0.0359
     18 C          -3.0703    7.5391    0.0049 C.ar    1  LIG1       -0.0438
     19 C          -1.7461    7.9283    0.0043 C.ar    1  LIG1        0.0022
     20 N          -0.9747    6.7943    0.0038 N.ar    1  LIG1       -0.3603
     21 H           0.0318    6.7813    0.0038 H       1  LIG1        0.1653
     22 H          -1.2951    8.9092    0.0045 H       1  LIG1        0.0807
     23 H          -3.9737    5.4925    0.0035 H       1  LIG1        0.0639
     24 H          -3.9244    8.2008    0.0057 H       1  LIG1        0.0633
@<TRIPOS>BOND
     1     7     2    1
     2     2     3   ar
     3     2     1   ar
     4     8     3    1
     5     6     1    1
     6     3     4   ar
     7     1     5   ar
     8     4     5   ar
     9     4     9    1
    10    14    10    1
    11     9    10   ar
    12     9    13   ar
    13    10    11   ar
    14    11    15    1
    15    11    12   ar
    16    13    12   ar
    17    12    16    1
    18    16    17   ar
    19    16    20   ar
    20    23    17    1
    21    17    18   ar
    22    20    21    1
    23    20    19   ar
    24    19    22    1
    25    19    18   ar
    26    18    24    1
