@<TRIPOS>MOLECULE
mol_data/opt/b3lyp/geoms/mol2/555-5-.out
 30 33 0 0 0
SMALL
GASTEIGER

@<TRIPOS>ATOM
      1 C          -1.9931   -2.0799   -0.0002 C.ar    1  LIG1       -0.0237
      2 C          -0.6261   -2.0263   -0.0012 C.ar    1  LIG1       -0.0541
      3 C          -0.1221   -0.6971   -0.0008 C.ar    1  LIG1       -0.0464
      4 C          -1.1095    0.2689    0.0006 C.ar    1  LIG1        0.0259
      5 S          -2.6917   -0.4924    0.0013 S.2     1  LIG1       -0.0961
      6 H          -2.6352   -2.9491   -0.0003 H       1  LIG1        0.0693
      7 H           0.0041   -2.9083   -0.0022 H       1  LIG1        0.0623
      8 H           0.9347   -0.4579   -0.0014 H       1  LIG1        0.0629
      9 C          -0.9412    1.7077    0.0013 C.ar    1  LIG1        0.0265
     10 C           0.2410    2.4222    0.0011 C.ar    1  LIG1       -0.0458
     11 C           0.0623    3.8245    0.0020 C.ar    1  LIG1       -0.0458
     12 C          -1.2613    4.2202    0.0030 C.ar    1  LIG1        0.0265
     13 S          -2.3084    2.8092    0.0028 S.2     1  LIG1       -0.0872
     14 H           1.2150    1.9472    0.0002 H       1  LIG1        0.0629
     15 H           0.8861    4.5295    0.0019 H       1  LIG1        0.0629
     16 C          -1.8155    5.5518    0.0041 C.ar    1  LIG1        0.0265
     17 C          -3.1391    5.9475    0.0049 C.ar    1  LIG1       -0.0458
     18 C          -3.3179    7.3498    0.0060 C.ar    1  LIG1       -0.0458
     19 C          -2.1356    8.0643    0.0060 C.ar    1  LIG1        0.0265
     20 S          -0.7685    6.9628    0.0047 S.2     1  LIG1       -0.0872
     21 H          -3.9629    5.2424    0.0048 H       1  LIG1        0.0629
     22 H          -4.2918    7.8247    0.0067 H       1  LIG1        0.0629
     23 C          -1.9673    9.5031    0.0069 C.ar    1  LIG1        0.0259
     24 C          -2.9547   10.4690    0.0069 C.ar    1  LIG1       -0.0464
     25 C          -2.4508   11.7982    0.0080 C.ar    1  LIG1       -0.0541
     26 C          -1.0838   11.8518    0.0088 C.ar    1  LIG1       -0.0237
     27 S          -0.3851   10.2644    0.0083 S.2     1  LIG1       -0.0961
     28 H          -0.4416   12.7210    0.0097 H       1  LIG1        0.0693
     29 H          -4.0115   10.2299    0.0060 H       1  LIG1        0.0629
     30 H          -3.0809   12.6802    0.0081 H       1  LIG1        0.0623
@<TRIPOS>BOND
     1     7     2    1
     2     8     3    1
     3     2     3   ar
     4     2     1   ar
     5     3     4   ar
     6     6     1    1
     7     1     5   ar
     8    14    10    1
     9     4     5   ar
    10     4     9    1
    11    10     9   ar
    12    10    11   ar
    13     9    13   ar
    14    15    11    1
    15    11    12   ar
    16    13    12   ar
    17    12    16    1
    18    16    20   ar
    19    16    17   ar
    20    20    19   ar
    21    21    17    1
    22    17    18   ar
    23    18    19   ar
    24    18    22    1
    25    19    23    1
    26    29    24    1
    27    24    23   ar
    28    24    25   ar
    29    23    27   ar
    30    25    30    1
    31    25    26   ar
    32    27    26   ar
    33    26    28    1
