@<TRIPOS>MOLECULE
mol_data/opt/b3lyp/geoms/mol2/555-.out
 23 25 0 0 0
SMALL
GASTEIGER

@<TRIPOS>ATOM
      1 C          -1.9943   -1.9762   -0.0002 C.ar    1  LIG1       -0.0237
      2 C          -0.6274   -1.9214   -0.0010 C.ar    1  LIG1       -0.0541
      3 C          -0.1248   -0.5915   -0.0005 C.ar    1  LIG1       -0.0464
      4 C          -1.1129    0.3733    0.0007 C.ar    1  LIG1        0.0259
      5 S          -2.6944   -0.3894    0.0013 S.2     1  LIG1       -0.0961
      6 H          -2.6356   -2.8460   -0.0003 H       1  LIG1        0.0693
      7 H           0.0037   -2.8027   -0.0019 H       1  LIG1        0.0623
      8 H           0.9318   -0.3512   -0.0010 H       1  LIG1        0.0629
      9 C          -0.9464    1.8131    0.0015 C.ar    1  LIG1        0.0265
     10 C           0.2339    2.5293    0.0013 C.ar    1  LIG1       -0.0458
     11 C           0.0515    3.9323    0.0022 C.ar    1  LIG1       -0.0458
     12 C          -1.2714    4.3245    0.0030 C.ar    1  LIG1        0.0265
     13 S          -2.3152    2.9125    0.0027 S.2     1  LIG1       -0.0872
     14 H           1.2089    2.0566    0.0005 H       1  LIG1        0.0629
     15 H           0.8738    4.6392    0.0022 H       1  LIG1        0.0629
     16 C          -1.8307    5.6589    0.0041 C.ar    1  LIG1        0.0259
     17 C          -3.1543    6.0474    0.0046 C.ar    1  LIG1       -0.0464
     18 C          -3.3346    7.4588    0.0055 C.ar    1  LIG1       -0.0541
     19 C          -2.1530    8.1467    0.0057 C.ar    1  LIG1       -0.0237
     20 S          -0.7882    7.0742    0.0048 S.2     1  LIG1       -0.0961
     21 H          -1.9949    9.2159    0.0063 H       1  LIG1        0.0693
     22 H          -3.9753    5.3390    0.0044 H       1  LIG1        0.0629
     23 H          -4.3051    7.9413    0.0061 H       1  LIG1        0.0623
@<TRIPOS>BOND
     1     7     2    1
     2     8     3    1
     3     2     3   ar
     4     2     1   ar
     5     3     4   ar
     6     6     1    1
     7     1     5   ar
     8    14    10    1
     9     4     5   ar
    10     4     9    1
    11    10     9   ar
    12    10    11   ar
    13     9    13   ar
    14    11    15    1
    15    11    12   ar
    16    13    12   ar
    17    12    16    1
    18    16    17   ar
    19    16    20   ar
    20    22    17    1
    21    17    18   ar
    22    20    19   ar
    23    18    19   ar
    24    18    23    1
    25    19    21    1
