@<TRIPOS>MOLECULE
mol_data/opt/b3lyp/geoms/mol2/558-.out
 22 24 0 0 0
SMALL
GASTEIGER

@<TRIPOS>ATOM
      1 C          -2.0173   -1.9227   -0.0002 C.ar    1  LIG1       -0.0237
      2 C          -0.6490   -1.8749   -0.0008 C.ar    1  LIG1       -0.0541
      3 C          -0.1436   -0.5476   -0.0003 C.ar    1  LIG1       -0.0464
      4 C          -1.1307    0.4192    0.0007 C.ar    1  LIG1        0.0259
      5 S          -2.7139   -0.3376    0.0010 S.2     1  LIG1       -0.0961
      6 H          -2.6606   -2.7912   -0.0004 H       1  LIG1        0.0693
      7 H          -0.0218   -2.7587   -0.0016 H       1  LIG1        0.0623
      8 H           0.9137   -0.3105   -0.0006 H       1  LIG1        0.0629
      9 C          -0.9569    1.8578    0.0014 C.ar    1  LIG1        0.0266
     10 C           0.2423    2.5559    0.0014 C.ar    1  LIG1       -0.0457
     11 C           0.0758    3.9551    0.0022 C.ar    1  LIG1       -0.0432
     12 C          -1.2493    4.3433    0.0028 C.ar    1  LIG1        0.0604
     13 S          -2.3163    2.9588    0.0024 S.2     1  LIG1       -0.0845
     14 H           1.2096    2.0687    0.0008 H       1  LIG1        0.0629
     15 H           0.8851    4.6746    0.0023 H       1  LIG1        0.0630
     16 C          -1.7783    5.6875    0.0037 C.ar    1  LIG1        0.2098
     17 N          -3.1249    5.8339    0.0042 N.ar    1  LIG1       -0.1253
     18 C          -2.7210    8.0643    0.0052 C.ar    1  LIG1        0.1605
     19 N          -0.8934    6.7156    0.0040 N.ar    1  LIG1       -0.1253
     20 N          -3.6066    7.0596    0.0050 N.ar    1  LIG1       -0.1339
     21 N          -1.3856    7.9364    0.0049 N.ar    1  LIG1       -0.1339
     22 H          -3.1190    9.0733    0.0061 H       1  LIG1        0.1085
@<TRIPOS>BOND
     1     7     2    1
     2     2     3   ar
     3     2     1   ar
     4     8     3    1
     5     6     1    1
     6     3     4   ar
     7     1     5   ar
     8     4     5   ar
     9     4     9    1
    10    14    10    1
    11    10     9   ar
    12    10    11   ar
    13     9    13   ar
    14    11    15    1
    15    11    12   ar
    16    13    12   ar
    17    12    16    1
    18    16    19   ar
    19    16    17   ar
    20    19    21   ar
    21    17    20   ar
    22    21    18   ar
    23    20    18   ar
    24    18    22    1
