@<TRIPOS>MOLECULE
mol_data/opt/b3lyp/geoms/mol2/558-5-.out
 29 32 0 0 0
SMALL
GASTEIGER

@<TRIPOS>ATOM
      1 C          -1.9854   -1.9874   -0.0004 C.ar    1  LIG1       -0.0237
      2 C          -0.6174   -1.9347   -0.0011 C.ar    1  LIG1       -0.0541
      3 C          -0.1163   -0.6056   -0.0005 C.ar    1  LIG1       -0.0464
      4 C          -1.1061    0.3583    0.0006 C.ar    1  LIG1        0.0259
      5 S          -2.6870   -0.4039    0.0010 S.2     1  LIG1       -0.0961
      6 H          -2.6258   -2.8578   -0.0006 H       1  LIG1        0.0693
      7 H           0.0128   -2.8164   -0.0020 H       1  LIG1        0.0623
      8 H           0.9403   -0.3649   -0.0010 H       1  LIG1        0.0629
      9 C          -0.9377    1.7975    0.0014 C.ar    1  LIG1        0.0266
     10 C           0.2577    2.5008    0.0012 C.ar    1  LIG1       -0.0457
     11 C           0.0859    3.9000    0.0022 C.ar    1  LIG1       -0.0432
     12 C          -1.2404    4.2837    0.0030 C.ar    1  LIG1        0.0604
     13 S          -2.3018    2.8943    0.0026 S.2     1  LIG1       -0.0845
     14 H           1.2273    2.0177    0.0005 H       1  LIG1        0.0629
     15 H           0.8928    4.6223    0.0023 H       1  LIG1        0.0630
     16 C          -1.7759    5.6251    0.0040 C.ar    1  LIG1        0.2099
     17 N          -3.1230    5.7690    0.0046 N.ar    1  LIG1       -0.1247
     18 C          -2.7431    8.0164    0.0059 C.ar    1  LIG1        0.2099
     19 N          -0.9018    6.6608    0.0043 N.ar    1  LIG1       -0.1247
     20 N          -3.6165    6.9819    0.0056 N.ar    1  LIG1       -0.1247
     21 N          -1.3968    7.8728    0.0052 N.ar    1  LIG1       -0.1247
     22 C          -3.2813    9.3617    0.0069 C.ar    1  LIG1        0.0598
     23 C          -4.6075    9.7393    0.0077 C.ar    1  LIG1       -0.0438
     24 C          -4.7788   11.1481    0.0086 C.ar    1  LIG1       -0.0540
     25 C          -3.5841   11.8229    0.0084 C.ar    1  LIG1       -0.0236
     26 S          -2.2237   10.7548    0.0073 S.2     1  LIG1       -0.0934
     27 H          -3.4251   12.8926    0.0089 H       1  LIG1        0.0693
     28 H          -5.4121    9.0147    0.0076 H       1  LIG1        0.0630
     29 H          -5.7440   11.6407    0.0093 H       1  LIG1        0.0623
@<TRIPOS>BOND
     1     7     2    1
     2     2     3   ar
     3     2     1   ar
     4     8     3    1
     5     6     1    1
     6     3     4   ar
     7     1     5   ar
     8    14    10    1
     9     4     5   ar
    10     4     9    1
    11    10     9   ar
    12    10    11   ar
    13     9    13   ar
    14    11    15    1
    15    11    12   ar
    16    13    12   ar
    17    12    16    1
    18    16    19   ar
    19    16    17   ar
    20    19    21   ar
    21    17    20   ar
    22    21    18   ar
    23    20    18   ar
    24    18    22    1
    25    22    26   ar
    26    22    23   ar
    27    26    25   ar
    28    28    23    1
    29    23    24   ar
    30    25    24   ar
    31    25    27    1
    32    24    29    1
