@<TRIPOS>MOLECULE
mol_data/opt/b3lyp/geoms/mol2/558-4-.out
 32 35 0 0 0
SMALL
GASTEIGER

@<TRIPOS>ATOM
      1 C          -2.0112   -2.0019   -0.0003 C.ar    1  LIG1       -0.0237
      2 C          -0.6429   -1.9605   -0.0006 C.ar    1  LIG1       -0.0541
      3 C          -0.1308   -0.6355   -0.0001 C.ar    1  LIG1       -0.0464
      4 C          -1.1126    0.3365    0.0007 C.ar    1  LIG1        0.0259
      5 S          -2.6997   -0.4128    0.0007 S.2     1  LIG1       -0.0961
      6 H          -2.6589   -2.8672   -0.0005 H       1  LIG1        0.0693
      7 H          -0.0199   -2.8471   -0.0013 H       1  LIG1        0.0623
      8 H           0.9275   -0.4036   -0.0003 H       1  LIG1        0.0629
      9 C          -0.9317    1.7742    0.0014 C.ar    1  LIG1        0.0266
     10 C           0.2700    2.4668    0.0016 C.ar    1  LIG1       -0.0457
     11 C           0.1105    3.8674    0.0023 C.ar    1  LIG1       -0.0432
     12 C          -1.2123    4.2627    0.0027 C.ar    1  LIG1        0.0604
     13 S          -2.2859    2.8829    0.0022 S.2     1  LIG1       -0.0845
     14 H           1.2353    1.9754    0.0012 H       1  LIG1        0.0629
     15 H           0.9238    4.5823    0.0025 H       1  LIG1        0.0630
     16 C          -1.7361    5.6090    0.0035 C.ar    1  LIG1        0.2099
     17 N          -3.0799    5.7661    0.0037 N.ar    1  LIG1       -0.1247
     18 C          -2.6815    8.0167    0.0048 C.ar    1  LIG1        0.2034
     19 N          -0.8533    6.6371    0.0039 N.ar    1  LIG1       -0.1247
     20 N          -3.5563    6.9872    0.0044 N.ar    1  LIG1       -0.1252
     21 N          -1.3381    7.8544    0.0046 N.ar    1  LIG1       -0.1252
     22 C          -4.6065    9.6071    0.0058 C.ar    1  LIG1       -0.0509
     23 C          -5.1106   10.9045    0.0065 C.ar    1  LIG1       -0.0611
     24 C          -3.2184    9.3896    0.0056 C.ar    1  LIG1        0.0226
     25 C          -4.2408   11.9976    0.0071 C.ar    1  LIG1       -0.0617
     26 H          -6.1847   11.0635    0.0066 H       1  LIG1        0.0618
     27 C          -2.3476   10.4924    0.0062 C.ar    1  LIG1       -0.0509
     28 C          -2.8599   11.7868    0.0069 C.ar    1  LIG1       -0.0611
     29 H          -1.2777   10.3198    0.0061 H       1  LIG1        0.0625
     30 H          -4.6370   13.0088    0.0076 H       1  LIG1        0.0618
     31 H          -5.2737    8.7531    0.0053 H       1  LIG1        0.0625
     32 H          -2.1801   12.6336    0.0074 H       1  LIG1        0.0618
@<TRIPOS>BOND
     1     7     2    1
     2     2     1   ar
     3     2     3   ar
     4     6     1    1
     5     8     3    1
     6     1     5   ar
     7     3     4   ar
     8     4     5   ar
     9     4     9    1
    10    14    10    1
    11     9    10   ar
    12     9    13   ar
    13    10    11   ar
    14    13    12   ar
    15    11    15    1
    16    11    12   ar
    17    12    16    1
    18    16    17   ar
    19    16    19   ar
    20    17    20   ar
    21    19    21   ar
    22    20    18   ar
    23    21    18   ar
    24    18    24    1
    25    31    22    1
    26    24    22   ar
    27    24    27   ar
    28    22    23   ar
    29    29    27    1
    30    27    28   ar
    31    23    26    1
    32    23    25   ar
    33    28    25   ar
    34    28    32    1
    35    25    30    1
