@<TRIPOS>MOLECULE
mol_data/opt/b3lyp/geoms/mol2/58-.out
 15 16 0 0 0
SMALL
GASTEIGER

@<TRIPOS>ATOM
      1 C          -2.0456   -1.7960   -0.0003 C.ar    1  LIG1       -0.0236
      2 C          -0.6731   -1.7727   -0.0006 C.ar    1  LIG1       -0.0540
      3 C          -0.1545   -0.4525    0.0001 C.ar    1  LIG1       -0.0438
      4 C          -1.1427    0.5097    0.0008 C.ar    1  LIG1        0.0598
      5 S          -2.7345   -0.2116    0.0006 S.2     1  LIG1       -0.0934
      6 H          -2.6939   -2.6620   -0.0007 H       1  LIG1        0.0693
      7 H          -0.0595   -2.6658   -0.0012 H       1  LIG1        0.0623
      8 H           0.8976   -0.1966    0.0001 H       1  LIG1        0.0630
      9 C          -0.9743    1.9493    0.0015 C.ar    1  LIG1        0.2098
     10 N          -2.0908    2.7134    0.0020 N.ar    1  LIG1       -0.1253
     11 C          -0.6827    4.4891    0.0029 C.ar    1  LIG1        0.1605
     12 N           0.2894    2.4371    0.0017 N.ar    1  LIG1       -0.1253
     13 N          -1.9377    4.0221    0.0027 N.ar    1  LIG1       -0.1339
     14 N           0.4335    3.7467    0.0024 N.ar    1  LIG1       -0.1339
     15 H          -0.5574    5.5662    0.0035 H       1  LIG1        0.1085
@<TRIPOS>BOND
     1     7     2    1
     2     6     1    1
     3     2     1   ar
     4     2     3   ar
     5     1     5   ar
     6     8     3    1
     7     3     4   ar
     8     5     4   ar
     9     4     9    1
    10     9    12   ar
    11     9    10   ar
    12    12    14   ar
    13    10    13   ar
    14    14    11   ar
    15    13    11   ar
    16    11    15    1
