@<TRIPOS>MOLECULE
mol_data/opt/b3lyp/geoms/mol2/58-134-.out
 33 36 0 0 0
SMALL
GASTEIGER

@<TRIPOS>ATOM
      1 C          -2.0894   -1.8845   -0.0014 C.ar    1  LIG1       -0.0236
      2 C          -0.7178   -1.8882   -0.0009 C.ar    1  LIG1       -0.0540
      3 C          -0.1696   -0.5786    0.0002 C.ar    1  LIG1       -0.0438
      4 C          -1.1349    0.4058    0.0006 C.ar    1  LIG1        0.0598
      5 S          -2.7427   -0.2822   -0.0004 S.2     1  LIG1       -0.0934
      6 H          -2.7569   -2.7355   -0.0023 H       1  LIG1        0.0693
      7 H          -0.1222   -2.7936   -0.0014 H       1  LIG1        0.0623
      8 H           0.8881   -0.3472    0.0007 H       1  LIG1        0.0630
      9 C          -0.9364    1.8419    0.0016 C.ar    1  LIG1        0.2099
     10 N          -2.0295    2.6348    0.0017 N.ar    1  LIG1       -0.1246
     11 C          -0.5732    4.3958    0.0035 C.ar    1  LIG1        0.2194
     12 N           0.3401    2.3048    0.0025 N.ar    1  LIG1       -0.1246
     13 N          -1.8470    3.9334    0.0027 N.ar    1  LIG1       -0.1237
     14 N           0.5269    3.5986    0.0035 N.ar    1  LIG1       -0.1237
     15 C          -0.3890    5.8212    0.0045 C.ar    1  LIG1        0.0879
     16 C           0.7608    6.6090    0.0053 C.ar    1  LIG1       -0.0326
     17 C           0.3446    7.9502    0.0061 C.ar    1  LIG1       -0.0357
     18 C          -1.0570    7.9763    0.0056 C.ar    1  LIG1        0.0470
     19 N          -1.4722    6.6707    0.0046 N.ar    1  LIG1       -0.3516
     20 H          -2.4209    6.3273    0.0037 H       1  LIG1        0.1660
     21 H           1.7717    6.2304    0.0054 H       1  LIG1        0.0640
     22 H           0.9898    8.8162    0.0070 H       1  LIG1        0.0639
     23 C          -3.3789    8.9286    0.0068 C.ar    1  LIG1       -0.0526
     24 C          -4.2428   10.0208    0.0071 C.ar    1  LIG1       -0.0611
     25 C          -1.9833    9.1084    0.0060 C.ar    1  LIG1       -0.0017
     26 C          -3.7366   11.3211    0.0067 C.ar    1  LIG1       -0.0617
     27 H          -5.3158    9.8532    0.0078 H       1  LIG1        0.0618
     28 C          -1.4886   10.4265    0.0055 C.ar    1  LIG1       -0.0526
     29 C          -2.3536   11.5159    0.0059 C.ar    1  LIG1       -0.0611
     30 H          -0.4175   10.5981    0.0048 H       1  LIG1        0.0624
     31 H          -4.4107   12.1720    0.0070 H       1  LIG1        0.0618
     32 H          -3.8070    7.9305    0.0073 H       1  LIG1        0.0624
     33 H          -1.9456   12.5224    0.0055 H       1  LIG1        0.0618
@<TRIPOS>BOND
     1     6     1    1
     2     1     2   ar
     3     1     5   ar
     4     7     2    1
     5     2     3   ar
     6     5     4   ar
     7     3     4   ar
     8     3     8    1
     9     4     9    1
    10     9    10   ar
    11     9    12   ar
    12    10    13   ar
    13    12    14   ar
    14    13    11   ar
    15    14    11   ar
    16    11    15    1
    17    20    19    1
    18    15    19   ar
    19    15    16   ar
    20    19    18   ar
    21    30    28    1
    22    16    21    1
    23    16    17   ar
    24    28    29   ar
    25    28    25   ar
    26    33    29    1
    27    18    25    1
    28    18    17   ar
    29    29    26   ar
    30    25    23   ar
    31    17    22    1
    32    26    31    1
    33    26    24   ar
    34    23    24   ar
    35    23    32    1
    36    24    27    1
