@<TRIPOS>MOLECULE
mol_data/opt/b3lyp/geoms/mol2/58-13-8.out
 29 32 0 0 0
SMALL
GASTEIGER

@<TRIPOS>ATOM
      1 C          -2.0511   -1.8701   -0.0002 C.ar    1  LIG1       -0.0236
      2 C          -0.6789   -1.8417   -0.0004 C.ar    1  LIG1       -0.0540
      3 C          -0.1633   -0.5202    0.0002 C.ar    1  LIG1       -0.0438
      4 C          -1.1537    0.4401    0.0009 C.ar    1  LIG1        0.0598
      5 S          -2.7444   -0.2864    0.0008 S.2     1  LIG1       -0.0934
      6 H          -2.6973   -2.7374   -0.0005 H       1  LIG1        0.0693
      7 H          -0.0622   -2.7326   -0.0010 H       1  LIG1        0.0623
      8 H           0.8887   -0.2632    0.0001 H       1  LIG1        0.0630
      9 C          -0.9909    1.8787    0.0015 C.ar    1  LIG1        0.2099
     10 N          -2.1109    2.6423    0.0021 N.ar    1  LIG1       -0.1246
     11 C          -0.7155    4.4390    0.0027 C.ar    1  LIG1        0.2194
     12 N           0.2685    2.3768    0.0016 N.ar    1  LIG1       -0.1246
     13 N          -1.9744    3.9442    0.0027 N.ar    1  LIG1       -0.1237
     14 N           0.4050    3.6803    0.0022 N.ar    1  LIG1       -0.1237
     15 C          -0.5438    5.8741    0.0034 C.ar    1  LIG1        0.0880
     16 C          -1.4849    6.9093    0.0042 C.ar    1  LIG1       -0.0325
     17 C          -0.7743    8.1189    0.0045 C.ar    1  LIG1       -0.0325
     18 C           0.5877    7.8015    0.0042 C.ar    1  LIG1        0.0880
     19 N           0.7025    6.4367    0.0035 N.ar    1  LIG1       -0.3491
     20 H           1.5743    5.9242    0.0031 H       1  LIG1        0.1661
     21 H          -2.5552    6.7703    0.0045 H       1  LIG1        0.0640
     22 H          -1.1744    9.1214    0.0051 H       1  LIG1        0.0640
     23 C           1.7568    8.6486    0.0044 C.ar    1  LIG1        0.2193
     24 N           2.9638    8.0355    0.0040 N.ar    1  LIG1       -0.1243
     25 C           3.8388   10.1260    0.0048 C.ar    1  LIG1        0.1605
     26 N           1.5706    9.9905    0.0051 N.ar    1  LIG1       -0.1243
     27 N           4.0366    8.8016    0.0041 N.ar    1  LIG1       -0.1338
     28 N           2.6481   10.7462    0.0052 N.ar    1  LIG1       -0.1338
     29 H           4.7215   10.7564    0.0047 H       1  LIG1        0.1085
@<TRIPOS>BOND
     1     7     2    1
     2     6     1    1
     3     2     1   ar
     4     2     3   ar
     5     1     5   ar
     6     8     3    1
     7     3     4   ar
     8     5     4   ar
     9     4     9    1
    10     9    12   ar
    11     9    10   ar
    12    12    14   ar
    13    10    13   ar
    14    14    11   ar
    15    13    11   ar
    16    11    15    1
    17    20    19    1
    18    15    19   ar
    19    15    16   ar
    20    19    18   ar
    21    24    27   ar
    22    24    23   ar
    23    27    25   ar
    24    18    23    1
    25    18    17   ar
    26    16    21    1
    27    16    17   ar
    28    23    26   ar
    29    17    22    1
    30    29    25    1
    31    25    28   ar
    32    26    28   ar
