@<TRIPOS>MOLECULE
mol_data/opt/b3lyp/geoms/mol2/58-12.out
 22 24 0 0 0
SMALL
GASTEIGER

@<TRIPOS>ATOM
      1 C          -2.0094   -1.8503   -0.0006 C.ar    1  LIG1       -0.0236
      2 C          -0.6381   -1.8023   -0.0006 C.ar    1  LIG1       -0.0540
      3 C          -0.1411   -0.4730    0.0002 C.ar    1  LIG1       -0.0438
      4 C          -1.1444    0.4730    0.0008 C.ar    1  LIG1        0.0598
      5 S          -2.7245   -0.2756    0.0005 S.2     1  LIG1       -0.0934
      6 H          -2.6435   -2.7264   -0.0011 H       1  LIG1        0.0693
      7 H          -0.0086   -2.6843   -0.0012 H       1  LIG1        0.0623
      8 H           0.9070   -0.2005    0.0003 H       1  LIG1        0.0630
      9 C          -1.0024    1.9152    0.0016 C.ar    1  LIG1        0.2099
     10 N          -2.1277    2.6627    0.0020 N.ar    1  LIG1       -0.1246
     11 C          -0.7553    4.4772    0.0031 C.ar    1  LIG1        0.2381
     12 N           0.2527    2.4291    0.0019 N.ar    1  LIG1       -0.1246
     13 N          -2.0074    3.9703    0.0028 N.ar    1  LIG1       -0.1220
     14 N           0.3768    3.7318    0.0027 N.ar    1  LIG1       -0.1220
     15 C          -0.5754    5.9132    0.0039 C.ar    1  LIG1        0.1751
     16 C           0.5575    6.6898    0.0043 C.ar    1  LIG1       -0.0126
     17 C           0.1136    8.0428    0.0051 C.ar    1  LIG1       -0.0232
     18 C          -1.2517    7.9920    0.0051 C.ar    1  LIG1        0.0927
     19 O          -1.6875    6.7084    0.0043 O.2     1  LIG1       -0.4597
     20 H          -2.0213    8.7483    0.0055 H       1  LIG1        0.1029
     21 H           1.5711    6.3191    0.0041 H       1  LIG1        0.0656
     22 H           0.7237    8.9339    0.0056 H       1  LIG1        0.0649
@<TRIPOS>BOND
     1     7     2    1
     2     6     1    1
     3     2     1   ar
     4     2     3   ar
     5     1     5   ar
     6     3     8    1
     7     3     4   ar
     8     5     4   ar
     9     4     9    1
    10     9    12   ar
    11     9    10   ar
    12    12    14   ar
    13    10    13   ar
    14    14    11   ar
    15    13    11   ar
    16    11    15    1
    17    15    19   ar
    18    15    16   ar
    19    21    16    1
    20    19    18   ar
    21    16    17   ar
    22    18    17   ar
    23    18    20    1
    24    17    22    1
