@<TRIPOS>MOLECULE
mol_data/opt/b3lyp/geoms/mol2/58-4-5.out
 32 35 0 0 0
SMALL
GASTEIGER

@<TRIPOS>ATOM
      1 C          -2.1231   -1.9346    0.0006 C.ar    1  LIG1       -0.0236
      2 C          -0.7510   -1.9352    0.0007 C.ar    1  LIG1       -0.0540
      3 C          -0.2072   -0.6244    0.0010 C.ar    1  LIG1       -0.0438
      4 C          -1.1761    0.3566    0.0011 C.ar    1  LIG1        0.0598
      5 S          -2.7819   -0.3354    0.0009 S.2     1  LIG1       -0.0934
      6 H          -2.7878   -2.7875    0.0003 H       1  LIG1        0.0693
      7 H          -0.1532   -2.8390    0.0006 H       1  LIG1        0.0623
      8 H           0.8497   -0.3890    0.0011 H       1  LIG1        0.0630
      9 C          -0.9824    1.7929    0.0014 C.ar    1  LIG1        0.2099
     10 N          -2.0808    2.5806    0.0014 N.ar    1  LIG1       -0.1247
     11 C          -0.6420    4.3564    0.0018 C.ar    1  LIG1        0.2034
     12 N           0.2869    2.2632    0.0017 N.ar    1  LIG1       -0.1247
     13 N          -1.9073    3.8799    0.0016 N.ar    1  LIG1       -0.1252
     14 N           0.4549    3.5632    0.0019 N.ar    1  LIG1       -0.1252
     15 C          -1.5483    6.6841    0.0019 C.ar    1  LIG1       -0.0503
     16 C          -1.3596    8.0583    0.0021 C.ar    1  LIG1       -0.0529
     17 C          -0.4466    5.8127    0.0020 C.ar    1  LIG1        0.0227
     18 C          -0.0690    8.6233    0.0025 C.ar    1  LIG1       -0.0113
     19 H          -2.2325    8.7038    0.0019 H       1  LIG1        0.0624
     20 C           0.8466    6.3638    0.0024 C.ar    1  LIG1       -0.0503
     21 C           1.0288    7.7381    0.0026 C.ar    1  LIG1       -0.0529
     22 H           1.7031    5.6997    0.0026 H       1  LIG1        0.0625
     23 H          -2.5498    6.2698    0.0016 H       1  LIG1        0.0625
     24 H           2.0400    8.1302    0.0031 H       1  LIG1        0.0624
     25 C           0.1384   10.0735    0.0026 C.ar    1  LIG1        0.0193
     26 C           1.3251   10.7766    0.0020 C.ar    1  LIG1       -0.0469
     27 C           1.1592   12.1888    0.0024 C.ar    1  LIG1       -0.0541
     28 C          -0.1556   12.5670    0.0035 C.ar    1  LIG1       -0.0237
     29 S          -1.2134   11.1967    0.0038 S.2     1  LIG1       -0.0967
     30 H          -0.5687   13.5658    0.0040 H       1  LIG1        0.0693
     31 H           2.2973   10.2986    0.0011 H       1  LIG1        0.0629
     32 H           1.9832   12.8928    0.0020 H       1  LIG1        0.0623
@<TRIPOS>BOND
     1     6     1    1
     2     1     2   ar
     3     1     5   ar
     4     7     2    1
     5     2     3   ar
     6     5     4   ar
     7     3     4   ar
     8     3     8    1
     9    31    26    1
    10     4     9    1
    11    10     9   ar
    12    10    13   ar
    13     9    12   ar
    14    13    11   ar
    15    23    15    1
    16    12    14   ar
    17    11    14   ar
    18    11    17    1
    19    19    16    1
    20    15    17   ar
    21    15    16   ar
    22    26    27   ar
    23    26    25   ar
    24    32    27    1
    25    17    20   ar
    26    16    18   ar
    27    27    28   ar
    28    20    22    1
    29    20    21   ar
    30    18    25    1
    31    18    21   ar
    32    25    29   ar
    33    21    24    1
    34    28    29   ar
    35    28    30    1
