@<TRIPOS>MOLECULE
mol_data/opt/b3lyp/geoms/mol2/58-48.out
 31 34 0 0 0
SMALL
GASTEIGER

@<TRIPOS>ATOM
      1 C          -2.0570   -1.9250   -0.0022 C.ar    1  LIG1       -0.0236
      2 C          -0.6845   -1.9025   -0.0019 C.ar    1  LIG1       -0.0540
      3 C          -0.1639   -0.5831   -0.0005 C.ar    1  LIG1       -0.0438
      4 C          -1.1508    0.3808    0.0003 C.ar    1  LIG1        0.0598
      5 S          -2.7445   -0.3390   -0.0006 S.2     1  LIG1       -0.0934
      6 H          -2.7064   -2.7895   -0.0032 H       1  LIG1        0.0693
      7 H          -0.0717   -2.7959   -0.0026 H       1  LIG1        0.0623
      8 H           0.8886   -0.3293   -0.0001 H       1  LIG1        0.0630
      9 C          -0.9813    1.8186    0.0018 C.ar    1  LIG1        0.2099
     10 N          -2.0933    2.5884    0.0023 N.ar    1  LIG1       -0.1247
     11 C          -0.6837    4.3851    0.0043 C.ar    1  LIG1        0.2034
     12 N           0.2808    2.3102    0.0025 N.ar    1  LIG1       -0.1247
     13 N          -1.9397    3.8903    0.0036 N.ar    1  LIG1       -0.1252
     14 N           0.4257    3.6128    0.0038 N.ar    1  LIG1       -0.1252
     15 C           0.7757    6.4138    0.0067 C.ar    1  LIG1       -0.0503
     16 C           0.9376    7.7925    0.0081 C.ar    1  LIG1       -0.0503
     17 C          -0.5115    5.8498    0.0058 C.ar    1  LIG1        0.0227
     18 C          -0.1839    8.6389    0.0085 C.ar    1  LIG1        0.0227
     19 H           1.9295    8.2284    0.0088 H       1  LIG1        0.0625
     20 C          -1.6330    6.6967    0.0063 C.ar    1  LIG1       -0.0503
     21 C          -1.4711    8.0754    0.0076 C.ar    1  LIG1       -0.0503
     22 H          -2.6249    6.2607    0.0055 H       1  LIG1        0.0625
     23 H           1.6394    5.7595    0.0063 H       1  LIG1        0.0625
     24 H          -2.3353    8.7296    0.0080 H       1  LIG1        0.0625
     25 C          -0.0118   10.1046    0.0100 C.ar    1  LIG1        0.2033
     26 N           1.2473   10.5947    0.0105 N.ar    1  LIG1       -0.1258
     27 C           0.2866   12.6482    0.0126 C.ar    1  LIG1        0.1605
     28 N          -1.1233   10.8728    0.0107 N.ar    1  LIG1       -0.1258
     29 N           1.4003   11.9045    0.0118 N.ar    1  LIG1       -0.1339
     30 N          -0.9689   12.1825    0.0119 N.ar    1  LIG1       -0.1339
     31 H           0.4131   13.7261    0.0133 H       1  LIG1        0.1085
@<TRIPOS>BOND
     1     6     1    1
     2     7     2    1
     3     1     2   ar
     4     1     5   ar
     5     2     3   ar
     6     5     4   ar
     7     3     8    1
     8     3     4   ar
     9     4     9    1
    10     9    10   ar
    11     9    12   ar
    12    10    13   ar
    13    12    14   ar
    14    13    11   ar
    15    14    11   ar
    16    11    17    1
    17    22    20    1
    18    17    20   ar
    19    17    15   ar
    20    20    21   ar
    21    23    15    1
    22    15    16   ar
    23    21    24    1
    24    21    18   ar
    25    16    18   ar
    26    16    19    1
    27    18    25    1
    28    25    26   ar
    29    25    28   ar
    30    26    29   ar
    31    28    30   ar
    32    29    27   ar
    33    30    27   ar
    34    27    31    1
