@<TRIPOS>MOLECULE
mol_data/opt/b3lyp/geoms/mol2/58-4-.out
 25 27 0 0 0
SMALL
GASTEIGER

@<TRIPOS>ATOM
      1 C          -2.0791   -1.8656   -0.0002 C.ar    1  LIG1       -0.0236
      2 C          -0.7070   -1.8541   -0.0002 C.ar    1  LIG1       -0.0540
      3 C          -0.1750   -0.5384    0.0004 C.ar    1  LIG1       -0.0438
      4 C          -1.1529    0.4335    0.0008 C.ar    1  LIG1        0.0598
      5 S          -2.7523   -0.2727    0.0005 S.2     1  LIG1       -0.0934
      6 H          -2.7362   -2.7246   -0.0006 H       1  LIG1        0.0693
      7 H          -0.1012   -2.7525   -0.0005 H       1  LIG1        0.0623
      8 H           0.8798   -0.2935    0.0005 H       1  LIG1        0.0630
      9 C          -0.9718    1.8717    0.0014 C.ar    1  LIG1        0.2099
     10 N          -2.0767    2.6497    0.0016 N.ar    1  LIG1       -0.1247
     11 C          -0.6537    4.4380    0.0023 C.ar    1  LIG1        0.2034
     12 N           0.2931    2.3531    0.0017 N.ar    1  LIG1       -0.1247
     13 N          -1.9137    3.9510    0.0021 N.ar    1  LIG1       -0.1252
     14 N           0.4490    3.6549    0.0022 N.ar    1  LIG1       -0.1252
     15 C          -1.5860    6.7549    0.0030 C.ar    1  LIG1       -0.0509
     16 C          -1.4086    8.1355    0.0035 C.ar    1  LIG1       -0.0611
     17 C          -0.4702    5.9009    0.0029 C.ar    1  LIG1        0.0226
     18 C          -0.1222    8.6799    0.0039 C.ar    1  LIG1       -0.0617
     19 H          -2.2761    8.7885    0.0036 H       1  LIG1        0.0618
     20 C           0.8216    6.4534    0.0033 C.ar    1  LIG1       -0.0509
     21 C           0.9903    7.8351    0.0038 C.ar    1  LIG1       -0.0611
     22 H           1.6789    5.7905    0.0033 H       1  LIG1        0.0625
     23 H           0.0128    9.7576    0.0043 H       1  LIG1        0.0618
     24 H          -2.5804    6.3237    0.0026 H       1  LIG1        0.0625
     25 H           1.9921    8.2542    0.0042 H       1  LIG1        0.0618
@<TRIPOS>BOND
     1     6     1    1
     2     7     2    1
     3     1     2   ar
     4     1     5   ar
     5     2     3   ar
     6     3     8    1
     7     3     4   ar
     8     5     4   ar
     9     4     9    1
    10     9    10   ar
    11     9    12   ar
    12    10    13   ar
    13    12    14   ar
    14    13    11   ar
    15    14    11   ar
    16    11    17    1
    17    24    15    1
    18    17    15   ar
    19    17    20   ar
    20    15    16   ar
    21    22    20    1
    22    20    21   ar
    23    16    19    1
    24    16    18   ar
    25    21    18   ar
    26    21    25    1
    27    18    23    1
