@<TRIPOS>MOLECULE
mol_data/opt/b3lyp/geoms/mol2/58-54-.out
 32 35 0 0 0
SMALL
GASTEIGER

@<TRIPOS>ATOM
      1 C          -2.0764   -1.9348   -0.0001 C.ar    1  LIG1       -0.0236
      2 C          -0.7044   -1.9327   -0.0003 C.ar    1  LIG1       -0.0540
      3 C          -0.1629   -0.6208    0.0002 C.ar    1  LIG1       -0.0438
      4 C          -1.1336    0.3586    0.0009 C.ar    1  LIG1        0.0598
      5 S          -2.7382   -0.3367    0.0010 S.2     1  LIG1       -0.0934
      6 H          -2.7395   -2.7890   -0.0004 H       1  LIG1        0.0693
      7 H          -0.1048   -2.8353   -0.0010 H       1  LIG1        0.0623
      8 H           0.8937   -0.3841    0.0001 H       1  LIG1        0.0630
      9 C          -0.9430    1.7950    0.0016 C.ar    1  LIG1        0.2099
     10 N          -2.0424    2.5809    0.0021 N.ar    1  LIG1       -0.1247
     11 C          -0.6031    4.3520    0.0027 C.ar    1  LIG1        0.2099
     12 N           0.3284    2.2666    0.0016 N.ar    1  LIG1       -0.1247
     13 N          -1.8707    3.8800    0.0027 N.ar    1  LIG1       -0.1247
     14 N           0.5014    3.5640    0.0022 N.ar    1  LIG1       -0.1247
     15 C          -0.4114    5.7851    0.0033 C.ar    1  LIG1        0.0604
     16 C           0.7818    6.4776    0.0033 C.ar    1  LIG1       -0.0432
     17 C           0.6057    7.8779    0.0040 C.ar    1  LIG1       -0.0462
     18 C          -0.7206    8.2750    0.0045 C.ar    1  LIG1        0.0200
     19 S          -1.7752    6.8760    0.0041 S.2     1  LIG1       -0.0850
     20 H           1.7405    5.9744    0.0028 H       1  LIG1        0.0630
     21 H           1.4356    8.5737    0.0040 H       1  LIG1        0.0629
     22 C          -2.6483    9.8827    0.0047 C.ar    1  LIG1       -0.0535
     23 C          -3.1497   11.1812    0.0054 C.ar    1  LIG1       -0.0612
     24 C          -1.2618    9.6395    0.0052 C.ar    1  LIG1       -0.0113
     25 C          -2.2802   12.2727    0.0066 C.ar    1  LIG1       -0.0617
     26 H          -4.2240   11.3393    0.0050 H       1  LIG1        0.0618
     27 C          -0.3982   10.7522    0.0064 C.ar    1  LIG1       -0.0535
     28 C          -0.9019   12.0492    0.0071 C.ar    1  LIG1       -0.0612
     29 H           0.6763   10.6045    0.0069 H       1  LIG1        0.0624
     30 H          -2.6713   13.2856    0.0071 H       1  LIG1        0.0618
     31 H          -3.3447    9.0493    0.0037 H       1  LIG1        0.0624
     32 H          -0.2138   12.8896    0.0080 H       1  LIG1        0.0618
@<TRIPOS>BOND
     1     7     2    1
     2     6     1    1
     3     2     1   ar
     4     2     3   ar
     5     1     5   ar
     6     8     3    1
     7     3     4   ar
     8     4     5   ar
     9     4     9    1
    10     9    12   ar
    11     9    10   ar
    12    12    14   ar
    13    10    13   ar
    14    14    11   ar
    15    13    11   ar
    16    11    15    1
    17    20    16    1
    18    15    16   ar
    19    15    19   ar
    20    16    17   ar
    21    31    22    1
    22    17    21    1
    23    17    18   ar
    24    19    18   ar
    25    18    24    1
    26    22    24   ar
    27    22    23   ar
    28    26    23    1
    29    24    27   ar
    30    23    25   ar
    31    27    29    1
    32    27    28   ar
    33    25    28   ar
    34    25    30    1
    35    28    32    1
