@<TRIPOS>MOLECULE
mol_data/opt/b3lyp/geoms/mol2/58-5.out
 22 24 0 0 0
SMALL
GASTEIGER

@<TRIPOS>ATOM
      1 C          -2.0747   -1.8415   -0.0003 C.ar    1  LIG1       -0.0236
      2 C          -0.7026   -1.8337   -0.0006 C.ar    1  LIG1       -0.0540
      3 C          -0.1668   -0.5196    0.0001 C.ar    1  LIG1       -0.0438
      4 C          -1.1419    0.4554    0.0008 C.ar    1  LIG1        0.0598
      5 S          -2.7433   -0.2466    0.0008 S.2     1  LIG1       -0.0934
      6 H          -2.7343   -2.6986   -0.0007 H       1  LIG1        0.0693
      7 H          -0.0993   -2.7337   -0.0012 H       1  LIG1        0.0623
      8 H           0.8888   -0.2781   -0.0000 H       1  LIG1        0.0630
      9 C          -0.9567    1.8927    0.0016 C.ar    1  LIG1        0.2099
     10 N          -2.0590    2.6746    0.0021 N.ar    1  LIG1       -0.1247
     11 C          -0.6266    4.4508    0.0029 C.ar    1  LIG1        0.2099
     12 N           0.3124    2.3691    0.0017 N.ar    1  LIG1       -0.1247
     13 N          -1.8914    3.9745    0.0028 N.ar    1  LIG1       -0.1247
     14 N           0.4800    3.6680    0.0023 N.ar    1  LIG1       -0.1247
     15 C          -0.4409    5.8880    0.0036 C.ar    1  LIG1        0.0598
     16 C           0.7497    6.5837    0.0037 C.ar    1  LIG1       -0.0438
     17 C           0.5649    7.9907    0.0045 C.ar    1  LIG1       -0.0540
     18 C          -0.7604    8.3464    0.0050 C.ar    1  LIG1       -0.0236
     19 S          -1.8119    6.9735    0.0045 S.2     1  LIG1       -0.0934
     20 H          -1.1808    9.3429    0.0057 H       1  LIG1        0.0693
     21 H           1.7094    6.0822    0.0032 H       1  LIG1        0.0630
     22 H           1.3768    8.7081    0.0047 H       1  LIG1        0.0623
@<TRIPOS>BOND
     1     7     2    1
     2     6     1    1
     3     2     1   ar
     4     2     3   ar
     5     1     5   ar
     6     8     3    1
     7     3     4   ar
     8     5     4   ar
     9     4     9    1
    10     9    12   ar
    11     9    10   ar
    12    12    14   ar
    13    10    13   ar
    14    14    11   ar
    15    13    11   ar
    16    11    15    1
    17    21    16    1
    18    15    16   ar
    19    15    19   ar
    20    16    17   ar
    21    19    18   ar
    22    17    22    1
    23    17    18   ar
    24    18    20    1
