@<TRIPOS>MOLECULE
mol_data/opt/b3lyp/geoms/mol2/58-58-.out
 28 31 0 0 0
SMALL
GASTEIGER

@<TRIPOS>ATOM
      1 C          -2.0666   -1.8824   -0.0004 C.ar    1  LIG1       -0.0236
      2 C          -0.6938   -1.8745   -0.0007 C.ar    1  LIG1       -0.0540
      3 C          -0.1591   -0.5611   -0.0001 C.ar    1  LIG1       -0.0438
      4 C          -1.1360    0.4136    0.0008 C.ar    1  LIG1        0.0598
      5 S          -2.7372   -0.2895    0.0008 S.2     1  LIG1       -0.0934
      6 H          -2.7252   -2.7401   -0.0008 H       1  LIG1        0.0693
      7 H          -0.0906   -2.7745   -0.0014 H       1  LIG1        0.0623
      8 H           0.8963   -0.3191   -0.0002 H       1  LIG1        0.0630
      9 C          -0.9513    1.8488    0.0016 C.ar    1  LIG1        0.2099
     10 N          -2.0557    2.6305    0.0023 N.ar    1  LIG1       -0.1247
     11 C          -0.6237    4.4044    0.0029 C.ar    1  LIG1        0.2099
     12 N           0.3183    2.3263    0.0016 N.ar    1  LIG1       -0.1247
     13 N          -1.8877    3.9295    0.0029 N.ar    1  LIG1       -0.1247
     14 N           0.4835    3.6253    0.0023 N.ar    1  LIG1       -0.1247
     15 C          -0.4393    5.8445    0.0037 C.ar    1  LIG1        0.0605
     16 C           0.7616    6.5304    0.0037 C.ar    1  LIG1       -0.0431
     17 C           0.5863    7.9295    0.0046 C.ar    1  LIG1       -0.0431
     18 C          -0.7462    8.2985    0.0052 C.ar    1  LIG1        0.0605
     19 S          -1.8123    6.9184    0.0048 S.2     1  LIG1       -0.0818
     20 H           1.7178    6.0233    0.0031 H       1  LIG1        0.0630
     21 H           1.3881    8.6568    0.0048 H       1  LIG1        0.0630
     22 C          -1.2783    9.6490    0.0062 C.ar    1  LIG1        0.2099
     23 N          -2.6226    9.7935    0.0066 N.ar    1  LIG1       -0.1253
     24 C          -2.2189   12.0236    0.0077 C.ar    1  LIG1        0.1605
     25 N          -0.3934   10.6733    0.0066 N.ar    1  LIG1       -0.1253
     26 N          -3.1054   11.0194    0.0075 N.ar    1  LIG1       -0.1339
     27 N          -0.8840   11.8960    0.0074 N.ar    1  LIG1       -0.1339
     28 H          -2.6170   13.0329    0.0087 H       1  LIG1        0.1085
@<TRIPOS>BOND
     1     7     2    1
     2     6     1    1
     3     2     1   ar
     4     2     3   ar
     5     1     5   ar
     6     8     3    1
     7     3     4   ar
     8     4     5   ar
     9     4     9    1
    10     9    12   ar
    11     9    10   ar
    12    12    14   ar
    13    10    13   ar
    14    14    11   ar
    15    11    13   ar
    16    11    15    1
    17    20    16    1
    18    15    16   ar
    19    15    19   ar
    20    16    17   ar
    21    17    21    1
    22    17    18   ar
    23    19    18   ar
    24    18    22    1
    25    22    25   ar
    26    22    23   ar
    27    25    27   ar
    28    23    26   ar
    29    27    24   ar
    30    26    24   ar
    31    24    28    1
