@<TRIPOS>MOLECULE
mol_data/opt/b3lyp/geoms/mol2/58-55.out
 29 32 0 0 0
SMALL
GASTEIGER

@<TRIPOS>ATOM
      1 C          -2.0757   -1.9075   -0.0003 C.ar    1  LIG1       -0.0236
      2 C          -0.7037   -1.9052   -0.0006 C.ar    1  LIG1       -0.0540
      3 C          -0.1623   -0.5933   -0.0000 C.ar    1  LIG1       -0.0438
      4 C          -1.1331    0.3861    0.0008 C.ar    1  LIG1        0.0598
      5 S          -2.7377   -0.3094    0.0009 S.2     1  LIG1       -0.0934
      6 H          -2.7388   -2.7617   -0.0006 H       1  LIG1        0.0693
      7 H          -0.1040   -2.8077   -0.0013 H       1  LIG1        0.0623
      8 H           0.8944   -0.3565   -0.0002 H       1  LIG1        0.0630
      9 C          -0.9427    1.8226    0.0016 C.ar    1  LIG1        0.2099
     10 N          -2.0423    2.6084    0.0022 N.ar    1  LIG1       -0.1247
     11 C          -0.6031    4.3796    0.0028 C.ar    1  LIG1        0.2099
     12 N           0.3287    2.2945    0.0015 N.ar    1  LIG1       -0.1247
     13 N          -1.8709    3.9071    0.0029 N.ar    1  LIG1       -0.1247
     14 N           0.5020    3.5917    0.0022 N.ar    1  LIG1       -0.1247
     15 C          -0.4135    5.8114    0.0036 C.ar    1  LIG1        0.0604
     16 C           0.7781    6.5088    0.0035 C.ar    1  LIG1       -0.0432
     17 C           0.6015    7.9072    0.0044 C.ar    1  LIG1       -0.0457
     18 C          -0.7299    8.2958    0.0050 C.ar    1  LIG1        0.0266
     19 S          -1.7833    6.8981    0.0045 S.2     1  LIG1       -0.0845
     20 H           1.7375    6.0067    0.0030 H       1  LIG1        0.0630
     21 H           1.4232    8.6134    0.0045 H       1  LIG1        0.0629
     22 C          -1.2456    9.6499    0.0058 C.ar    1  LIG1        0.0259
     23 C          -0.5214   10.8265    0.0063 C.ar    1  LIG1       -0.0464
     24 C          -1.3321   11.9928    0.0072 C.ar    1  LIG1       -0.0541
     25 C          -2.6714   11.7096    0.0074 C.ar    1  LIG1       -0.0237
     26 S          -2.9649   10.0027    0.0065 S.2     1  LIG1       -0.0961
     27 H          -3.5051   12.3971    0.0080 H       1  LIG1        0.0693
     28 H           0.5620   10.8510    0.0060 H       1  LIG1        0.0629
     29 H          -0.9365   13.0018    0.0076 H       1  LIG1        0.0623
@<TRIPOS>BOND
     1     7     2    1
     2     2     1   ar
     3     2     3   ar
     4     6     1    1
     5     1     5   ar
     6     8     3    1
     7     3     4   ar
     8     4     5   ar
     9     4     9    1
    10    12     9   ar
    11    12    14   ar
    12     9    10   ar
    13    14    11   ar
    14    10    13   ar
    15    11    13   ar
    16    11    15    1
    17    20    16    1
    18    16    15   ar
    19    16    17   ar
    20    15    19   ar
    21    17    21    1
    22    17    18   ar
    23    19    18   ar
    24    18    22    1
    25    22    23   ar
    26    22    26   ar
    27    28    23    1
    28    23    24   ar
    29    26    25   ar
    30    24    25   ar
    31    24    29    1
    32    25    27    1
