@<TRIPOS>MOLECULE
mol_data/opt/b3lyp/geoms/mol2/58-8-13-.out
 29 32 0 0 0
SMALL
GASTEIGER

@<TRIPOS>ATOM
      1 C          -2.0512   -1.8708   -0.0005 C.ar    1  LIG1       -0.0236
      2 C          -0.6780   -1.8499   -0.0005 C.ar    1  LIG1       -0.0540
      3 C          -0.1565   -0.5317    0.0002 C.ar    1  LIG1       -0.0438
      4 C          -1.1436    0.4331    0.0008 C.ar    1  LIG1        0.0598
      5 S          -2.7379   -0.2855    0.0003 S.2     1  LIG1       -0.0934
      6 H          -2.7009   -2.7354   -0.0010 H       1  LIG1        0.0693
      7 H          -0.0659   -2.7439   -0.0010 H       1  LIG1        0.0623
      8 H           0.8962   -0.2779    0.0003 H       1  LIG1        0.0630
      9 C          -0.9729    1.8691    0.0016 C.ar    1  LIG1        0.2099
     10 N          -2.0857    2.6390    0.0020 N.ar    1  LIG1       -0.1246
     11 C          -0.6757    4.4234    0.0030 C.ar    1  LIG1        0.2435
     12 N           0.2906    2.3593    0.0019 N.ar    1  LIG1       -0.1246
     13 N          -1.9341    3.9419    0.0027 N.ar    1  LIG1       -0.1218
     14 N           0.4385    3.6624    0.0027 N.ar    1  LIG1       -0.1218
     15 C          -0.5014    5.8955    0.0039 C.ar    1  LIG1        0.2435
     16 N          -1.6171    6.6572    0.0043 N.ar    1  LIG1       -0.1218
     17 C          -0.2076    8.4498    0.0053 C.ar    1  LIG1        0.2194
     18 N           0.7568    6.3754    0.0041 N.ar    1  LIG1       -0.1218
     19 N          -1.4740    7.9585    0.0050 N.ar    1  LIG1       -0.1236
     20 N           0.9089    7.6779    0.0049 N.ar    1  LIG1       -0.1236
     21 C          -0.0213    9.8722    0.0060 C.ar    1  LIG1        0.0875
     22 C          -0.9323   10.9278    0.0067 C.ar    1  LIG1       -0.0333
     23 C          -0.1866   12.1236    0.0076 C.ar    1  LIG1       -0.0437
     24 C           1.1591   11.7748    0.0068 C.ar    1  LIG1        0.0023
     25 N           1.2468   10.4181    0.0062 N.ar    1  LIG1       -0.3582
     26 H           2.0840    9.8537    0.0059 H       1  LIG1        0.1654
     27 H           2.0439   12.3939    0.0070 H       1  LIG1        0.0807
     28 H          -2.0062   10.8167    0.0066 H       1  LIG1        0.0640
     29 H          -0.5758   13.1312    0.0084 H       1  LIG1        0.0633
@<TRIPOS>BOND
     1     7     2    1
     2     6     1    1
     3     1     2   ar
     4     1     5   ar
     5     2     3   ar
     6     3     8    1
     7     3     4   ar
     8     5     4   ar
     9     4     9    1
    10     9    12   ar
    11     9    10   ar
    12    12    14   ar
    13    10    13   ar
    14    14    11   ar
    15    13    11   ar
    16    11    15    1
    17    15    18   ar
    18    15    16   ar
    19    18    20   ar
    20    16    19   ar
    21    20    17   ar
    22    19    17   ar
    23    17    21    1
    24    26    25    1
    25    21    25   ar
    26    21    22   ar
    27    25    24   ar
    28    28    22    1
    29    22    23   ar
    30    24    27    1
    31    24    23   ar
    32    23    29    1
