@<TRIPOS>MOLECULE
mol_data/opt/b3lyp/geoms/mol2/5812-8.out
 28 31 0 0 0
SMALL
GASTEIGER

@<TRIPOS>ATOM
      1 C          -2.2922   -1.8582   -0.0007 C.ar    1  LIG1       -0.0236
      2 C          -0.9209   -1.9237   -0.0007 C.ar    1  LIG1       -0.0540
      3 C          -0.3165   -0.6409    0.0001 C.ar    1  LIG1       -0.0438
      4 C          -1.2398    0.3848    0.0007 C.ar    1  LIG1        0.0598
      5 S          -2.8765   -0.2316    0.0003 S.2     1  LIG1       -0.0934
      6 H          -2.9958   -2.6797   -0.0012 H       1  LIG1        0.0693
      7 H          -0.3667   -2.8547   -0.0012 H       1  LIG1        0.0623
      8 H           0.7503   -0.4550    0.0003 H       1  LIG1        0.0630
      9 C          -0.9773    1.8075    0.0015 C.ar    1  LIG1        0.2099
     10 N           0.3148    2.2154    0.0019 N.ar    1  LIG1       -0.1246
     11 C          -0.5134    4.3358    0.0030 C.ar    1  LIG1        0.2381
     12 N          -2.0403    2.6478    0.0019 N.ar    1  LIG1       -0.1246
     13 N           0.5524    3.5054    0.0026 N.ar    1  LIG1       -0.1220
     14 N          -1.8044    3.9352    0.0027 N.ar    1  LIG1       -0.1220
     15 C          -0.2913    5.7686    0.0039 C.ar    1  LIG1        0.1761
     16 C          -1.1803    6.8218    0.0044 C.ar    1  LIG1       -0.0119
     17 C          -0.3966    7.9989    0.0052 C.ar    1  LIG1       -0.0119
     18 C           0.9178    7.5863    0.0050 C.ar    1  LIG1        0.1761
     19 O           0.9879    6.2273    0.0043 O.2     1  LIG1       -0.4483
     20 H          -2.2558    6.7339    0.0043 H       1  LIG1        0.0657
     21 H          -0.7310    9.0250    0.0057 H       1  LIG1        0.0657
     22 C           2.1533    8.3444    0.0056 C.ar    1  LIG1        0.2381
     23 N           3.3286    7.6788    0.0055 N.ar    1  LIG1       -0.1226
     24 C           4.2849    9.7404    0.0066 C.ar    1  LIG1        0.1605
     25 N           2.0179    9.6911    0.0061 N.ar    1  LIG1       -0.1226
     26 N           4.4287    8.4092    0.0060 N.ar    1  LIG1       -0.1338
     27 N           3.1213   10.4087    0.0066 N.ar    1  LIG1       -0.1338
     28 H           5.1928   10.3343    0.0068 H       1  LIG1        0.1085
@<TRIPOS>BOND
     1     7     2    1
     2     6     1    1
     3     1     2   ar
     4     1     5   ar
     5     2     3   ar
     6     3     8    1
     7     3     4   ar
     8     5     4   ar
     9     4     9    1
    10     9    10   ar
    11     9    12   ar
    12    10    13   ar
    13    12    14   ar
    14    13    11   ar
    15    14    11   ar
    16    11    15    1
    17    15    19   ar
    18    15    16   ar
    19    20    16    1
    20    19    18   ar
    21    16    17   ar
    22    18    17   ar
    23    18    22    1
    24    17    21    1
    25    23    22   ar
    26    23    26   ar
    27    22    25   ar
    28    26    24   ar
    29    25    27   ar
    30    27    24   ar
    31    24    28    1
