@<TRIPOS>MOLECULE
mol_data/opt/b3lyp/geoms/mol2/5812-5-.out
 29 32 0 0 0
SMALL
GASTEIGER

@<TRIPOS>ATOM
      1 C          -2.2431   -1.8648   -0.0009 C.ar    1  LIG1       -0.0236
      2 C          -0.8717   -1.9099   -0.0007 C.ar    1  LIG1       -0.0540
      3 C          -0.2850   -0.6176    0.0002 C.ar    1  LIG1       -0.0438
      4 C          -1.2209    0.3950    0.0007 C.ar    1  LIG1        0.0598
      5 S          -2.8489   -0.2445    0.0001 S.2     1  LIG1       -0.0934
      6 H          -2.9354   -2.6956   -0.0015 H       1  LIG1        0.0693
      7 H          -0.3037   -2.8327   -0.0012 H       1  LIG1        0.0623
      8 H           0.7793   -0.4172    0.0004 H       1  LIG1        0.0630
      9 C          -0.9800    1.8238    0.0015 C.ar    1  LIG1        0.2099
     10 N           0.3036    2.2523    0.0020 N.ar    1  LIG1       -0.1246
     11 C          -0.5573    4.3632    0.0031 C.ar    1  LIG1        0.2381
     12 N          -2.0560    2.6469    0.0018 N.ar    1  LIG1       -0.1246
     13 N           0.5226    3.5459    0.0028 N.ar    1  LIG1       -0.1220
     14 N          -1.8442    3.9375    0.0026 N.ar    1  LIG1       -0.1220
     15 C          -0.3570    5.7916    0.0040 C.ar    1  LIG1        0.1760
     16 C          -1.2480    6.8404    0.0045 C.ar    1  LIG1       -0.0120
     17 C          -0.4766    8.0265    0.0052 C.ar    1  LIG1       -0.0146
     18 C           0.8479    7.6346    0.0052 C.ar    1  LIG1        0.1424
     19 O           0.9236    6.2742    0.0045 O.2     1  LIG1       -0.4511
     20 H          -2.3231    6.7453    0.0043 H       1  LIG1        0.0657
     21 H          -0.8409    9.0430    0.0057 H       1  LIG1        0.0656
     22 C           2.0883    8.3647    0.0058 C.ar    1  LIG1        0.0544
     23 C           2.2658    9.7338    0.0063 C.ar    1  LIG1       -0.0440
     24 C           3.6331   10.1183    0.0069 C.ar    1  LIG1       -0.0540
     25 C           4.4848    9.0452    0.0067 C.ar    1  LIG1       -0.0236
     26 S           3.6318    7.5380    0.0061 S.2     1  LIG1       -0.0936
     27 H           5.5658    9.0486    0.0070 H       1  LIG1        0.0693
     28 H           1.4405   10.4366    0.0063 H       1  LIG1        0.0630
     29 H           3.9700   11.1483    0.0073 H       1  LIG1        0.0623
@<TRIPOS>BOND
     1     6     1    1
     2     7     2    1
     3     1     2   ar
     4     1     5   ar
     5     2     3   ar
     6     5     4   ar
     7     3     8    1
     8     3     4   ar
     9     4     9    1
    10     9    12   ar
    11     9    10   ar
    12    12    14   ar
    13    10    13   ar
    14    14    11   ar
    15    13    11   ar
    16    11    15    1
    17    15    16   ar
    18    15    19   ar
    19    20    16    1
    20    16    17   ar
    21    19    18   ar
    22    17    18   ar
    23    17    21    1
    24    18    22    1
    25    22    26   ar
    26    22    23   ar
    27    26    25   ar
    28    28    23    1
    29    23    24   ar
    30    25    24   ar
    31    25    27    1
    32    24    29    1
