@<TRIPOS>MOLECULE
mol_data/opt/b3lyp/geoms/mol2/5813-4-.out
 33 36 0 0 0
SMALL
GASTEIGER

@<TRIPOS>ATOM
      1 C          -2.0915   -1.9146    0.0004 C.ar    1  LIG1       -0.0236
      2 C          -0.7200   -1.8871   -0.0001 C.ar    1  LIG1       -0.0540
      3 C          -0.2022   -0.5653    0.0002 C.ar    1  LIG1       -0.0438
      4 C          -1.1899    0.3966    0.0010 C.ar    1  LIG1        0.0598
      5 S          -2.7815   -0.3280    0.0014 S.2     1  LIG1       -0.0934
      6 H          -2.7392   -2.7807    0.0003 H       1  LIG1        0.0693
      7 H          -0.1038   -2.7786   -0.0008 H       1  LIG1        0.0623
      8 H           0.8501   -0.3101   -0.0001 H       1  LIG1        0.0630
      9 C          -1.0269    1.8372    0.0016 C.ar    1  LIG1        0.2099
     10 N           0.2303    2.3361    0.0014 N.ar    1  LIG1       -0.1246
     11 C          -0.7551    4.4025    0.0025 C.ar    1  LIG1        0.2194
     12 N          -2.1474    2.6002    0.0022 N.ar    1  LIG1       -0.1246
     13 N           0.3671    3.6397    0.0019 N.ar    1  LIG1       -0.1237
     14 N          -2.0160    3.9012    0.0027 N.ar    1  LIG1       -0.1237
     15 C          -0.5800    5.8292    0.0031 C.ar    1  LIG1        0.0879
     16 C          -1.4981    6.8779    0.0040 C.ar    1  LIG1       -0.0326
     17 C          -0.7617    8.0737    0.0041 C.ar    1  LIG1       -0.0357
     18 C           0.6025    7.7508    0.0035 C.ar    1  LIG1        0.0470
     19 N           0.6802    6.3831    0.0029 N.ar    1  LIG1       -0.3516
     20 H           1.5136    5.8146    0.0024 H       1  LIG1        0.1660
     21 H          -2.5713    6.7621    0.0044 H       1  LIG1        0.0640
     22 H          -1.1715    9.0729    0.0047 H       1  LIG1        0.0639
     23 C           1.6309   10.0163    0.0037 C.ar    1  LIG1       -0.0526
     24 C           2.7402   10.8557    0.0036 C.ar    1  LIG1       -0.0611
     25 C           1.7815    8.6166    0.0034 C.ar    1  LIG1       -0.0017
     26 C           4.0309   10.3222    0.0032 C.ar    1  LIG1       -0.0617
     27 H           2.5960   11.9321    0.0039 H       1  LIG1        0.0618
     28 C           3.0883    8.0945    0.0030 C.ar    1  LIG1       -0.0526
     29 C           4.1972    8.9368    0.0029 C.ar    1  LIG1       -0.0611
     30 H           3.2541    7.0211    0.0028 H       1  LIG1        0.0624
     31 H           4.8959   10.9782    0.0032 H       1  LIG1        0.0618
     32 H           0.6361   10.4491    0.0040 H       1  LIG1        0.0624
     33 H           5.1946    8.5073    0.0026 H       1  LIG1        0.0618
@<TRIPOS>BOND
     1     7     2    1
     2     2     3   ar
     3     2     1   ar
     4     8     3    1
     5     3     4   ar
     6     6     1    1
     7     1     5   ar
     8     4     5   ar
     9     4     9    1
    10    10     9   ar
    11    10    13   ar
    12     9    12   ar
    13    13    11   ar
    14    12    14   ar
    15    20    19    1
    16    11    14   ar
    17    11    15    1
    18    33    29    1
    19    30    28    1
    20    19    15   ar
    21    19    18   ar
    22    29    28   ar
    23    29    26   ar
    24    28    25   ar
    25    15    16   ar
    26    31    26    1
    27    26    24   ar
    28    25    18    1
    29    25    23   ar
    30    18    17   ar
    31    24    23   ar
    32    24    27    1
    33    23    32    1
    34    16    17   ar
    35    16    21    1
    36    17    22    1
