@<TRIPOS>MOLECULE
mol_data/opt/b3lyp/geoms/mol2/581313-.out
 31 34 0 0 0
SMALL
GASTEIGER

@<TRIPOS>ATOM
      1 C          -2.0929   -1.8666   -0.0012 C.ar    1  LIG1       -0.0236
      2 C          -0.7215   -1.8692   -0.0010 C.ar    1  LIG1       -0.0540
      3 C          -0.1738   -0.5589   -0.0000 C.ar    1  LIG1       -0.0438
      4 C          -1.1392    0.4251    0.0005 C.ar    1  LIG1        0.0598
      5 S          -2.7470   -0.2640   -0.0002 S.2     1  LIG1       -0.0934
      6 H          -2.7600   -2.7178   -0.0018 H       1  LIG1        0.0693
      7 H          -0.1250   -2.7739   -0.0015 H       1  LIG1        0.0623
      8 H           0.8839   -0.3273    0.0003 H       1  LIG1        0.0630
      9 C          -0.9425    1.8618    0.0016 C.ar    1  LIG1        0.2099
     10 N           0.3339    2.3265    0.0022 N.ar    1  LIG1       -0.1246
     11 C          -0.5825    4.4169    0.0035 C.ar    1  LIG1        0.2194
     12 N          -2.0362    2.6532    0.0019 N.ar    1  LIG1       -0.1246
     13 N           0.5193    3.6199    0.0031 N.ar    1  LIG1       -0.1237
     14 N          -1.8567    3.9522    0.0029 N.ar    1  LIG1       -0.1237
     15 C          -0.4000    5.8402    0.0045 C.ar    1  LIG1        0.0880
     16 C           0.7489    6.6286    0.0052 C.ar    1  LIG1       -0.0326
     17 C           0.3357    7.9718    0.0061 C.ar    1  LIG1       -0.0343
     18 C          -1.0668    7.9946    0.0059 C.ar    1  LIG1        0.0634
     19 N          -1.4854    6.6925    0.0050 N.ar    1  LIG1       -0.3505
     20 H          -2.4384    6.3605    0.0043 H       1  LIG1        0.1660
     21 H           1.7596    6.2494    0.0052 H       1  LIG1        0.0640
     22 H           0.9841    8.8370    0.0069 H       1  LIG1        0.0639
     23 C          -1.9941    9.0997    0.0066 C.ar    1  LIG1        0.0629
     24 C          -3.3848    9.1347    0.0079 C.ar    1  LIG1       -0.0350
     25 C          -3.7855   10.4941    0.0083 C.ar    1  LIG1       -0.0438
     26 C          -2.6388   11.2623    0.0065 C.ar    1  LIG1        0.0022
     27 N          -1.5634   10.4121    0.0058 N.ar    1  LIG1       -0.3595
     28 H          -0.5981   10.6984    0.0046 H       1  LIG1        0.1654
     29 H          -2.5032   12.3332    0.0060 H       1  LIG1        0.0807
     30 H          -4.0407    8.2750    0.0089 H       1  LIG1        0.0639
     31 H          -4.7988   10.8689    0.0095 H       1  LIG1        0.0633
@<TRIPOS>BOND
     1     6     1    1
     2     7     2    1
     3     1     2   ar
     4     1     5   ar
     5     2     3   ar
     6     5     4   ar
     7     3     8    1
     8     3     4   ar
     9     4     9    1
    10     9    12   ar
    11     9    10   ar
    12    12    14   ar
    13    10    13   ar
    14    14    11   ar
    15    13    11   ar
    16    11    15    1
    17    20    19    1
    18    15    19   ar
    19    15    16   ar
    20    28    27    1
    21    19    18   ar
    22    21    16    1
    23    16    17   ar
    24    27    26   ar
    25    27    23   ar
    26    18    17   ar
    27    18    23    1
    28    29    26    1
    29    17    22    1
    30    26    25   ar
    31    23    24   ar
    32    24    25   ar
    33    24    30    1
    34    25    31    1
