@<TRIPOS>MOLECULE
mol_data/opt/b3lyp/geoms/mol2/584-8-.out
 31 34 0 0 0
SMALL
GASTEIGER

@<TRIPOS>ATOM
      1 C          -2.0999   -1.9114    0.0005 C.ar    1  LIG1       -0.0236
      2 C          -0.7272   -1.9056    0.0006 C.ar    1  LIG1       -0.0540
      3 C          -0.1906   -0.5927    0.0009 C.ar    1  LIG1       -0.0438
      4 C          -1.1657    0.3832    0.0010 C.ar    1  LIG1        0.0598
      5 S          -2.7679   -0.3172    0.0009 S.2     1  LIG1       -0.0934
      6 H          -2.7597   -2.7679    0.0002 H       1  LIG1        0.0693
      7 H          -0.1253   -2.8064    0.0005 H       1  LIG1        0.0623
      8 H           0.8650   -0.3516    0.0009 H       1  LIG1        0.0630
      9 C          -0.9787    1.8188    0.0013 C.ar    1  LIG1        0.2099
     10 N           0.2893    2.2951    0.0015 N.ar    1  LIG1       -0.1247
     11 C          -0.6499    4.3816    0.0018 C.ar    1  LIG1        0.2034
     12 N          -2.0813    2.6021    0.0014 N.ar    1  LIG1       -0.1247
     13 N           0.4500    3.5958    0.0018 N.ar    1  LIG1       -0.1252
     14 N          -1.9119    3.9020    0.0016 N.ar    1  LIG1       -0.1252
     15 C          -1.5715    6.7043    0.0021 C.ar    1  LIG1       -0.0503
     16 C          -1.3930    8.0809    0.0023 C.ar    1  LIG1       -0.0503
     17 C          -0.4601    5.8441    0.0021 C.ar    1  LIG1        0.0227
     18 C          -0.0992    8.6290    0.0026 C.ar    1  LIG1        0.0227
     19 H          -2.2490    8.7451    0.0023 H       1  LIG1        0.0625
     20 C           0.8336    6.3927    0.0024 C.ar    1  LIG1       -0.0503
     21 C           1.0122    7.7693    0.0027 C.ar    1  LIG1       -0.0503
     22 H           1.6895    5.7283    0.0024 H       1  LIG1        0.0625
     23 H          -2.5686    6.2799    0.0018 H       1  LIG1        0.0625
     24 H           2.0096    8.1935    0.0029 H       1  LIG1        0.0625
     25 C           0.0906   10.0926    0.0029 C.ar    1  LIG1        0.2033
     26 N          -1.0114   10.8744    0.0032 N.ar    1  LIG1       -0.1258
     27 C           0.4202   12.6323    0.0033 C.ar    1  LIG1        0.1605
     28 N           1.3556   10.5671    0.0030 N.ar    1  LIG1       -0.1258
     29 N          -0.8409   12.1820    0.0034 N.ar    1  LIG1       -0.1339
     30 N           1.5246   11.8750    0.0032 N.ar    1  LIG1       -0.1339
     31 H           0.5599   13.7086    0.0039 H       1  LIG1        0.1085
@<TRIPOS>BOND
     1     6     1    1
     2     7     2    1
     3     1     2   ar
     4     1     5   ar
     5     2     3   ar
     6     3     8    1
     7     3     4   ar
     8     5     4   ar
     9     4     9    1
    10     9    12   ar
    11     9    10   ar
    12    12    14   ar
    13    10    13   ar
    14    14    11   ar
    15    13    11   ar
    16    11    17    1
    17    23    15    1
    18    15    17   ar
    19    15    16   ar
    20    17    20   ar
    21    19    16    1
    22    16    18   ar
    23    20    22    1
    24    20    21   ar
    25    18    21   ar
    26    18    25    1
    27    21    24    1
    28    25    28   ar
    29    25    26   ar
    30    28    30   ar
    31    26    29   ar
    32    30    27   ar
    33    27    29   ar
    34    27    31    1
