@<TRIPOS>MOLECULE
mol_data/opt/b3lyp/geoms/mol2/584.out
 25 27 0 0 0
SMALL
GASTEIGER

@<TRIPOS>ATOM
      1 C          -2.0519   -1.8746   -0.0012 C.ar    1  LIG1       -0.0236
      2 C          -0.6799   -1.8520   -0.0010 C.ar    1  LIG1       -0.0540
      3 C          -0.1586   -0.5321    0.0001 C.ar    1  LIG1       -0.0438
      4 C          -1.1443    0.4320    0.0007 C.ar    1  LIG1        0.0598
      5 S          -2.7380   -0.2872    0.0000 S.2     1  LIG1       -0.0934
      6 H          -2.7020   -2.7389   -0.0019 H       1  LIG1        0.0693
      7 H          -0.0669   -2.7454   -0.0017 H       1  LIG1        0.0623
      8 H           0.8942   -0.2785    0.0003 H       1  LIG1        0.0630
      9 C          -0.9748    1.8715    0.0018 C.ar    1  LIG1        0.2099
     10 N           0.2862    2.3631    0.0024 N.ar    1  LIG1       -0.1247
     11 C          -0.6775    4.4403    0.0038 C.ar    1  LIG1        0.2034
     12 N          -2.0860    2.6406    0.0022 N.ar    1  LIG1       -0.1247
     13 N           0.4316    3.6661    0.0034 N.ar    1  LIG1       -0.1252
     14 N          -1.9335    3.9431    0.0032 N.ar    1  LIG1       -0.1252
     15 C           0.7818    6.4672    0.0057 C.ar    1  LIG1       -0.0509
     16 C           0.9397    7.8502    0.0068 C.ar    1  LIG1       -0.0611
     17 C          -0.5056    5.9047    0.0049 C.ar    1  LIG1        0.0226
     18 C          -0.1793    8.6862    0.0071 C.ar    1  LIG1       -0.0617
     19 H           1.9382    8.2770    0.0073 H       1  LIG1        0.0618
     20 C          -1.6281    6.7499    0.0053 C.ar    1  LIG1       -0.0509
     21 C          -1.4615    8.1318    0.0064 C.ar    1  LIG1       -0.0611
     22 H          -2.6191    6.3111    0.0047 H       1  LIG1        0.0625
     23 H          -0.0529    9.7650    0.0079 H       1  LIG1        0.0618
     24 H           1.6442    5.8108    0.0054 H       1  LIG1        0.0625
     25 H          -2.3340    8.7782    0.0066 H       1  LIG1        0.0618
@<TRIPOS>BOND
     1     6     1    1
     2     7     2    1
     3     1     2   ar
     4     1     5   ar
     5     2     3   ar
     6     5     4   ar
     7     3     8    1
     8     3     4   ar
     9     4     9    1
    10     9    12   ar
    11     9    10   ar
    12    12    14   ar
    13    10    13   ar
    14    14    11   ar
    15    13    11   ar
    16    11    17    1
    17    22    20    1
    18    17    20   ar
    19    17    15   ar
    20    20    21   ar
    21    24    15    1
    22    15    16   ar
    23    21    25    1
    24    21    18   ar
    25    16    18   ar
    26    16    19    1
    27    18    23    1
