@<TRIPOS>MOLECULE
mol_data/opt/b3lyp/geoms/mol2/588-13.out
 29 32 0 0 0
SMALL
GASTEIGER

@<TRIPOS>ATOM
      1 C          -2.0911   -1.8583   -0.0008 C.ar    1  LIG1       -0.0236
      2 C          -0.7178   -1.8517   -0.0007 C.ar    1  LIG1       -0.0540
      3 C          -0.1826   -0.5389    0.0001 C.ar    1  LIG1       -0.0438
      4 C          -1.1595    0.4361    0.0006 C.ar    1  LIG1        0.0598
      5 S          -2.7612   -0.2658    0.0001 S.2     1  LIG1       -0.0934
      6 H          -2.7498   -2.7162   -0.0014 H       1  LIG1        0.0693
      7 H          -0.1150   -2.7519   -0.0013 H       1  LIG1        0.0623
      8 H           0.8728   -0.2962    0.0003 H       1  LIG1        0.0630
      9 C          -0.9732    1.8701    0.0015 C.ar    1  LIG1        0.2099
     10 N           0.2956    2.3462    0.0020 N.ar    1  LIG1       -0.1246
     11 C          -0.6469    4.4209    0.0032 C.ar    1  LIG1        0.2435
     12 N          -2.0774    2.6525    0.0019 N.ar    1  LIG1       -0.1246
     13 N           0.4585    3.6475    0.0028 N.ar    1  LIG1       -0.1218
     14 N          -1.9107    3.9536    0.0027 N.ar    1  LIG1       -0.1218
     15 C          -0.4571    5.8911    0.0041 C.ar    1  LIG1        0.2435
     16 N          -1.5605    6.6632    0.0045 N.ar    1  LIG1       -0.1218
     17 C          -0.1198    8.4400    0.0057 C.ar    1  LIG1        0.2194
     18 N           0.8104    6.3580    0.0044 N.ar    1  LIG1       -0.1218
     19 N          -1.3908    7.9635    0.0053 N.ar    1  LIG1       -0.1236
     20 N           0.9886    7.6550    0.0053 N.ar    1  LIG1       -0.1236
     21 C           0.0469    9.8648    0.0066 C.ar    1  LIG1        0.0875
     22 C           1.1887   10.6650    0.0072 C.ar    1  LIG1       -0.0333
     23 C           0.7589   12.0071    0.0077 C.ar    1  LIG1       -0.0437
     24 C          -0.6312   11.9987    0.0082 C.ar    1  LIG1        0.0023
     25 N          -1.0488   10.7048    0.0072 N.ar    1  LIG1       -0.3582
     26 H          -1.9989   10.3632    0.0069 H       1  LIG1        0.1654
     27 H          -1.3374   12.8157    0.0088 H       1  LIG1        0.0807
     28 H           2.2026   10.2941    0.0070 H       1  LIG1        0.0640
     29 H           1.3831   12.8886    0.0081 H       1  LIG1        0.0633
@<TRIPOS>BOND
     1     6     1    1
     2     7     2    1
     3     1     2   ar
     4     1     5   ar
     5     2     3   ar
     6     3     8    1
     7     3     4   ar
     8     5     4   ar
     9     4     9    1
    10     9    12   ar
    11     9    10   ar
    12    12    14   ar
    13    10    13   ar
    14    14    11   ar
    15    13    11   ar
    16    11    15    1
    17    15    18   ar
    18    15    16   ar
    19    18    20   ar
    20    16    19   ar
    21    20    17   ar
    22    19    17   ar
    23    17    21    1
    24    21    25   ar
    25    21    22   ar
    26    26    25    1
    27    28    22    1
    28    25    24   ar
    29    22    23   ar
    30    23    29    1
    31    23    24   ar
    32    24    27    1
