@<TRIPOS>MOLECULE
mol_data/opt/b3lyp/geoms/mol2/588-4.out
 31 34 0 0 0
SMALL
GASTEIGER

@<TRIPOS>ATOM
      1 C          -2.0637   -1.8922   -0.0013 C.ar    1  LIG1       -0.0236
      2 C          -0.6902   -1.8756   -0.0010 C.ar    1  LIG1       -0.0540
      3 C          -0.1651   -0.5593   -0.0000 C.ar    1  LIG1       -0.0438
      4 C          -1.1499    0.4083    0.0005 C.ar    1  LIG1        0.0598
      5 S          -2.7464   -0.3055   -0.0002 S.2     1  LIG1       -0.0934
      6 H          -2.7158   -2.7548   -0.0021 H       1  LIG1        0.0693
      7 H          -0.0814   -2.7715   -0.0016 H       1  LIG1        0.0623
      8 H           0.8882   -0.3081    0.0003 H       1  LIG1        0.0630
      9 C          -0.9744    1.8430    0.0016 C.ar    1  LIG1        0.2099
     10 N           0.2914    2.3284    0.0022 N.ar    1  LIG1       -0.1246
     11 C          -0.6679    4.3943    0.0034 C.ar    1  LIG1        0.2435
     12 N          -2.0851    2.6169    0.0019 N.ar    1  LIG1       -0.1246
     13 N           0.4435    3.6310    0.0031 N.ar    1  LIG1       -0.1218
     14 N          -1.9277    3.9191    0.0028 N.ar    1  LIG1       -0.1218
     15 C          -0.4886    5.8682    0.0045 C.ar    1  LIG1        0.2435
     16 N          -1.5975    6.6315    0.0049 N.ar    1  LIG1       -0.1218
     17 C          -0.1774    8.4258    0.0063 C.ar    1  LIG1        0.2034
     18 N           0.7709    6.3433    0.0050 N.ar    1  LIG1       -0.1218
     19 N          -1.4376    7.9348    0.0058 N.ar    1  LIG1       -0.1251
     20 N           0.9282    7.6470    0.0059 N.ar    1  LIG1       -0.1251
     21 C           1.2920   10.4420    0.0080 C.ar    1  LIG1       -0.0509
     22 C           1.4558   11.8239    0.0090 C.ar    1  LIG1       -0.0611
     23 C           0.0006    9.8871    0.0074 C.ar    1  LIG1        0.0226
     24 C           0.3394   12.6640    0.0093 C.ar    1  LIG1       -0.0617
     25 H           2.4556   12.2470    0.0095 H       1  LIG1        0.0618
     26 C          -1.1195   10.7362    0.0077 C.ar    1  LIG1       -0.0509
     27 C          -0.9461   12.1169    0.0087 C.ar    1  LIG1       -0.0611
     28 H          -2.1121   10.3013    0.0072 H       1  LIG1        0.0625
     29 H           0.4709   13.7423    0.0101 H       1  LIG1        0.0618
     30 H           2.1509    9.7808    0.0077 H       1  LIG1        0.0625
     31 H          -1.8150   12.7682    0.0090 H       1  LIG1        0.0618
@<TRIPOS>BOND
     1     6     1    1
     2     7     2    1
     3     1     2   ar
     4     1     5   ar
     5     2     3   ar
     6     5     4   ar
     7     3     8    1
     8     3     4   ar
     9     4     9    1
    10     9    12   ar
    11     9    10   ar
    12    12    14   ar
    13    10    13   ar
    14    14    11   ar
    15    13    11   ar
    16    11    15    1
    17    15    16   ar
    18    15    18   ar
    19    16    19   ar
    20    18    20   ar
    21    19    17   ar
    22    20    17   ar
    23    17    23    1
    24    28    26    1
    25    23    26   ar
    26    23    21   ar
    27    30    21    1
    28    26    27   ar
    29    21    22   ar
    30    27    31    1
    31    27    24   ar
    32    22    24   ar
    33    22    25    1
    34    24    29    1
