@<TRIPOS>MOLECULE
mol_data/opt/b3lyp/geoms/mol2/5aa.out
 9 9 0 0 0
SMALL
GASTEIGER

@<TRIPOS>ATOM
      1 C          -2.0377   -1.7483   -0.0002 C.ar    1  LIG1       -0.0243
      2 C          -0.6709   -1.7188   -0.0004 C.ar    1  LIG1       -0.0547
      3 C          -0.1465   -0.3890   -0.0001 C.ar    1  LIG1       -0.0547
      4 C          -1.1253    0.5654    0.0005 C.ar    1  LIG1       -0.0243
      5 S          -2.7079   -0.1472    0.0006 S.2     1  LIG1       -0.1051
      6 H          -2.6920   -2.6084   -0.0004 H       1  LIG1        0.0693
      7 H          -1.0164    1.6406    0.0009 H       1  LIG1        0.0693
      8 H          -0.0567   -2.6121   -0.0009 H       1  LIG1        0.0623
      9 H           0.9120   -0.1553   -0.0002 H       1  LIG1        0.0623
@<TRIPOS>BOND
     1     8     2    1
     2     2     1   ar
     3     2     3   ar
     4     6     1    1
     5     9     3    1
     6     1     5   ar
     7     3     4   ar
     8     4     5   ar
     9     4     7    1
