@<TRIPOS>MOLECULE
mol_data/opt/b3lyp/geoms/mol2/5aa5aa-5aa.out
 23 25 0 0 0
SMALL
GASTEIGER

@<TRIPOS>ATOM
      1 C          -2.0181   -1.9591   -0.0000 C.ar    1  LIG1       -0.0237
      2 C          -0.6507   -1.9191   -0.0007 C.ar    1  LIG1       -0.0541
      3 C          -0.1336   -0.5948   -0.0003 C.ar    1  LIG1       -0.0464
      4 C          -1.1114    0.3805    0.0007 C.ar    1  LIG1        0.0259
      5 S          -2.7009   -0.3649    0.0012 S.2     1  LIG1       -0.0961
      6 H          -2.6688   -2.8220   -0.0002 H       1  LIG1        0.0693
      7 H          -0.0292   -2.8073   -0.0015 H       1  LIG1        0.0623
      8 H           0.9257   -0.3665   -0.0007 H       1  LIG1        0.0629
      9 C          -0.9297    1.8184    0.0013 C.ar    1  LIG1        0.0265
     10 C           0.2579    2.5235    0.0012 C.ar    1  LIG1       -0.0458
     11 C           0.0905    3.9275    0.0019 C.ar    1  LIG1       -0.0458
     12 C          -1.2296    4.3337    0.0026 C.ar    1  LIG1        0.0265
     13 S          -2.2848    2.9323    0.0023 S.2     1  LIG1       -0.0872
     14 H           1.2279    2.0406    0.0006 H       1  LIG1        0.0629
     15 H           0.9198    4.6249    0.0020 H       1  LIG1        0.0629
     16 C          -1.7442    5.6885    0.0034 C.ar    1  LIG1        0.0259
     17 C          -1.0231    6.8664    0.0037 C.ar    1  LIG1       -0.0464
     18 C          -1.8370    8.0320    0.0046 C.ar    1  LIG1       -0.0541
     19 C          -3.1756    7.7494    0.0049 C.ar    1  LIG1       -0.0237
     20 S          -3.4644    6.0394    0.0040 S.2     1  LIG1       -0.0961
     21 H          -4.0108    8.4351    0.0055 H       1  LIG1        0.0693
     22 H           0.0601    6.8936    0.0034 H       1  LIG1        0.0629
     23 H          -1.4418    9.0414    0.0050 H       1  LIG1        0.0623
@<TRIPOS>BOND
     1     7     2    1
     2     8     3    1
     3     2     3   ar
     4     2     1   ar
     5     3     4   ar
     6     6     1    1
     7     1     5   ar
     8    14    10    1
     9     4     5   ar
    10     4     9    1
    11    10     9   ar
    12    10    11   ar
    13     9    13   ar
    14    11    15    1
    15    11    12   ar
    16    13    12   ar
    17    12    16    1
    18    16    17   ar
    19    16    20   ar
    20    22    17    1
    21    17    18   ar
    22    20    19   ar
    23    18    19   ar
    24    18    23    1
    25    19    21    1
