@<TRIPOS>MOLECULE
mol_data/opt/b3lyp/geoms/mol2/5aa5aa-5aa-5aa-.out
 30 33 0 0 0
SMALL
GASTEIGER

@<TRIPOS>ATOM
      1 C          -1.8857   -2.0645   -0.1316 C.ar    1  LIG1       -0.0237
      2 C          -0.5607   -1.9870    0.2006 C.ar    1  LIG1       -0.0541
      3 C          -0.0807   -0.6487    0.2577 C.ar    1  LIG1       -0.0464
      4 C          -1.0424    0.2937   -0.0414 C.ar    1  LIG1        0.0259
      5 S          -2.5695   -0.4940   -0.4018 S.2     1  LIG1       -0.0961
      6 H          -2.5039   -2.9453   -0.2332 H       1  LIG1        0.0693
      7 H           0.0520   -2.8558    0.4121 H       1  LIG1        0.0623
      8 H           0.9315   -0.3809    0.5369 H       1  LIG1        0.0629
      9 C          -0.8838    1.7337   -0.0964 C.ar    1  LIG1        0.0265
     10 C           0.2681    2.4472   -0.3580 C.ar    1  LIG1       -0.0458
     11 C           0.0879    3.8510   -0.3329 C.ar    1  LIG1       -0.0458
     12 C          -1.2068    4.2402   -0.0510 C.ar    1  LIG1        0.0265
     13 S          -2.2173    2.8302    0.2140 S.2     1  LIG1       -0.0872
     14 H           1.2078    1.9662   -0.6028 H       1  LIG1        0.0629
     15 H           0.8747    4.5617   -0.5570 H       1  LIG1        0.0629
     16 C          -1.7235    5.5878    0.0510 C.ar    1  LIG1        0.0265
     17 C          -1.0227    6.7412    0.3439 C.ar    1  LIG1       -0.0458
     18 C          -1.8265    7.9062    0.3657 C.ar    1  LIG1       -0.0458
     19 C          -3.1578    7.6687    0.0905 C.ar    1  LIG1        0.0265
     20 S          -3.4147    5.9631   -0.2288 S.2     1  LIG1       -0.0872
     21 H           0.0354    6.7371    0.5782 H       1  LIG1        0.0629
     22 H          -1.4510    8.8909    0.6179 H       1  LIG1        0.0629
     23 C          -4.2372    8.6346    0.0287 C.ar    1  LIG1        0.0259
     24 C          -4.1483    9.9792   -0.2652 C.ar    1  LIG1       -0.0464
     25 C          -5.3999   10.6543   -0.2173 C.ar    1  LIG1       -0.0541
     26 C          -6.4407    9.8259    0.1028 C.ar    1  LIG1       -0.0237
     27 S          -5.9030    8.1996    0.3727 S.2     1  LIG1       -0.0961
     28 H          -7.4900   10.0681    0.1956 H       1  LIG1        0.0693
     29 H          -3.2136   10.4570   -0.5343 H       1  LIG1        0.0629
     30 H          -5.5224   11.7108   -0.4265 H       1  LIG1        0.0623
@<TRIPOS>BOND
     1    14    10    1
     2    15    11    1
     3    29    24    1
     4    30    25    1
     5     5     1   ar
     6     5     4   ar
     7    10    11   ar
     8    10     9   ar
     9    11    12   ar
    10    24    25   ar
    11    24    23   ar
    12     6     1    1
    13    20    16   ar
    14    20    19   ar
    15    25    26   ar
    16     1     2   ar
    17     9     4    1
    18     9    13   ar
    19    12    16    1
    20    12    13   ar
    21     4     3   ar
    22    23    19    1
    23    23    27   ar
    24    16    17   ar
    25    19    18   ar
    26    26    28    1
    27    26    27   ar
    28     2     3   ar
    29     2     7    1
    30     3     8    1
    31    17    18   ar
    32    17    21    1
    33    18    22    1
