@<TRIPOS>MOLECULE
mol_data/opt/b3lyp/geoms/mol2/5aa5aa5aa-5aa-.out
 30 33 0 0 0
SMALL
GASTEIGER

@<TRIPOS>ATOM
      1 C          -1.9243   -2.0537   -0.1107 C.ar    1  LIG1       -0.0237
      2 C          -0.5954   -1.9930    0.2105 C.ar    1  LIG1       -0.0541
      3 C          -0.0989   -0.6621    0.2702 C.ar    1  LIG1       -0.0464
      4 C          -1.0519    0.2957   -0.0125 C.ar    1  LIG1        0.0259
      5 S          -2.5910   -0.4726   -0.3621 S.2     1  LIG1       -0.0961
      6 H          -2.5545   -2.9261   -0.2153 H       1  LIG1        0.0693
      7 H           0.0091   -2.8700    0.4088 H       1  LIG1        0.0623
      8 H           0.9220   -0.4130    0.5343 H       1  LIG1        0.0629
      9 C          -0.8773    1.7329   -0.0526 C.ar    1  LIG1        0.0265
     10 C           0.3065    2.4408   -0.1282 C.ar    1  LIG1       -0.0458
     11 C           0.1350    3.8435   -0.1368 C.ar    1  LIG1       -0.0458
     12 C          -1.1869    4.2456   -0.0746 C.ar    1  LIG1        0.0265
     13 S          -2.2354    2.8411    0.0152 S.2     1  LIG1       -0.0872
     14 H           1.2736    1.9574   -0.1986 H       1  LIG1        0.0629
     15 H           0.9597    4.5432   -0.2023 H       1  LIG1        0.0629
     16 C          -1.7039    5.5955   -0.0756 C.ar    1  LIG1        0.0265
     17 C          -0.9877    6.7785   -0.0995 C.ar    1  LIG1       -0.0458
     18 C          -1.7972    7.9366   -0.1050 C.ar    1  LIG1       -0.0458
     19 C          -3.1532    7.6720   -0.0784 C.ar    1  LIG1        0.0265
     20 S          -3.4246    5.9393   -0.0463 S.2     1  LIG1       -0.0872
     21 H           0.0952    6.8098   -0.1187 H       1  LIG1        0.0629
     22 H          -1.3969    8.9428   -0.1426 H       1  LIG1        0.0629
     23 C          -4.2443    8.6245   -0.0647 C.ar    1  LIG1        0.0259
     24 C          -4.1725    9.9874    0.1462 C.ar    1  LIG1       -0.0464
     25 C          -5.4339   10.6397    0.0835 C.ar    1  LIG1       -0.0541
     26 C          -6.4683    9.7802   -0.1694 C.ar    1  LIG1       -0.0237
     27 S          -5.9097    8.1481   -0.3480 S.2     1  LIG1       -0.0961
     28 H          -7.5228   10.0008   -0.2622 H       1  LIG1        0.0693
     29 H          -3.2418   10.5009    0.3566 H       1  LIG1        0.0629
     30 H          -5.5678   11.7051    0.2284 H       1  LIG1        0.0623
@<TRIPOS>BOND
     1     5     1   ar
     2     5     4   ar
     3    27    26   ar
     4    27    23   ar
     5    28    26    1
     6     6     1    1
     7    15    11    1
     8    14    10    1
     9    26    25   ar
    10    22    18    1
    11    11    10   ar
    12    11    12   ar
    13    10     9   ar
    14    21    17    1
    15     1     2   ar
    16    18    17   ar
    17    18    19   ar
    18    17    16   ar
    19    19    23    1
    20    19    20   ar
    21    16    12    1
    22    16    20   ar
    23    12    13   ar
    24    23    24   ar
    25     9     4    1
    26     9    13   ar
    27     4     3   ar
    28    25    24   ar
    29    25    30    1
    30    24    29    1
    31     2     3   ar
    32     2     7    1
    33     3     8    1
