@<TRIPOS>MOLECULE
mol_data/opt/b3lyp/geoms/mol2/5aa5aa-5aa5aa-.out
 30 33 0 0 0
SMALL
GASTEIGER

@<TRIPOS>ATOM
      1 C          -1.9534   -2.0481    0.0001 C.ar    1  LIG1       -0.0237
      2 C          -0.5859   -2.0031   -0.0008 C.ar    1  LIG1       -0.0541
      3 C          -0.0737   -0.6772   -0.0005 C.ar    1  LIG1       -0.0464
      4 C          -1.0553    0.2949    0.0007 C.ar    1  LIG1        0.0259
      5 S          -2.6420   -0.4564    0.0014 S.2     1  LIG1       -0.0961
      6 H          -2.6009   -2.9133    0.0001 H       1  LIG1        0.0693
      7 H           0.0387   -2.8891   -0.0016 H       1  LIG1        0.0623
      8 H           0.9847   -0.4448   -0.0011 H       1  LIG1        0.0629
      9 C          -0.8789    1.7325    0.0013 C.ar    1  LIG1        0.0265
     10 C           0.3072    2.4421    0.0010 C.ar    1  LIG1       -0.0458
     11 C           0.1363    3.8443    0.0017 C.ar    1  LIG1       -0.0458
     12 C          -1.1868    4.2471    0.0026 C.ar    1  LIG1        0.0265
     13 S          -2.2379    2.8418    0.0024 S.2     1  LIG1       -0.0872
     14 H           1.2785    1.9618    0.0003 H       1  LIG1        0.0629
     15 H           0.9637    4.5440    0.0016 H       1  LIG1        0.0629
     16 C          -1.7036    5.5962    0.0034 C.ar    1  LIG1        0.0265
     17 C          -0.9881    6.7799    0.0037 C.ar    1  LIG1       -0.0458
     18 C          -1.7977    7.9374    0.0046 C.ar    1  LIG1       -0.0458
     19 C          -3.1543    7.6731    0.0051 C.ar    1  LIG1        0.0265
     20 S          -3.4246    5.9397    0.0044 S.2     1  LIG1       -0.0872
     21 H           0.0950    6.8119    0.0032 H       1  LIG1        0.0629
     22 H          -1.3957    8.9437    0.0049 H       1  LIG1        0.0629
     23 C          -4.2460    8.6250    0.0060 C.ar    1  LIG1        0.0259
     24 C          -4.1650   10.0040    0.0067 C.ar    1  LIG1       -0.0464
     25 C          -5.4320   10.6485    0.0075 C.ar    1  LIG1       -0.0541
     26 C          -6.4795    9.7685    0.0076 C.ar    1  LIG1       -0.0237
     27 S          -5.9286    8.1240    0.0066 S.2     1  LIG1       -0.0961
     28 H          -7.5393    9.9797    0.0082 H       1  LIG1        0.0693
     29 H          -3.2222   10.5382    0.0065 H       1  LIG1        0.0629
     30 H          -5.5590   11.7250    0.0081 H       1  LIG1        0.0623
@<TRIPOS>BOND
     1     7     2    1
     2     8     3    1
     3     2     3   ar
     4     2     1   ar
     5     3     4   ar
     6     1     6    1
     7     1     5   ar
     8    14    10    1
     9     4     9    1
    10     4     5   ar
    11    10     9   ar
    12    10    11   ar
    13     9    13   ar
    14    15    11    1
    15    11    12   ar
    16    13    12   ar
    17    12    16    1
    18    21    17    1
    19    16    17   ar
    20    16    20   ar
    21    17    18   ar
    22    20    19   ar
    23    18    22    1
    24    18    19   ar
    25    19    23    1
    26    23    27   ar
    27    23    24   ar
    28    29    24    1
    29    27    26   ar
    30    24    25   ar
    31    25    26   ar
    32    25    30    1
    33    26    28    1
