@<TRIPOS>MOLECULE
mol_data/opt/b3lyp/geoms/mol2/5aa5aa5aa-5aa.out
 30 33 0 0 0
SMALL
GASTEIGER

@<TRIPOS>ATOM
      1 C          -1.8853   -2.0639    0.1381 C.ar    1  LIG1       -0.0237
      2 C          -0.5555   -1.9872   -0.1747 C.ar    1  LIG1       -0.0541
      3 C          -0.0751   -0.6490   -0.2302 C.ar    1  LIG1       -0.0464
      4 C          -1.0415    0.2943    0.0504 C.ar    1  LIG1        0.0259
      5 S          -2.5736   -0.4926    0.3913 S.2     1  LIG1       -0.0961
      6 H          -2.5046   -2.9445    0.2341 H       1  LIG1        0.0693
      7 H           0.0606   -2.8566   -0.3733 H       1  LIG1        0.0623
      8 H           0.9411   -0.3819   -0.4952 H       1  LIG1        0.0629
      9 C          -0.8843    1.7345    0.1017 C.ar    1  LIG1        0.0265
     10 C           0.2632    2.4497    0.3781 C.ar    1  LIG1       -0.0458
     11 C           0.0829    3.8533    0.3440 C.ar    1  LIG1       -0.0458
     12 C          -1.2074    4.2407    0.0402 C.ar    1  LIG1        0.0265
     13 S          -2.2132    2.8292   -0.2343 S.2     1  LIG1       -0.0872
     14 H           1.1991    1.9700    0.6397 H       1  LIG1        0.0629
     15 H           0.8660    4.5652    0.5772 H       1  LIG1        0.0629
     16 C          -1.7229    5.5877   -0.0756 C.ar    1  LIG1        0.0265
     17 C          -1.0180    6.7401   -0.3626 C.ar    1  LIG1       -0.0458
     18 C          -1.8218    7.9046   -0.4020 C.ar    1  LIG1       -0.0458
     19 C          -3.1572    7.6677   -0.1466 C.ar    1  LIG1        0.0265
     20 S          -3.4184    5.9634    0.1760 S.2     1  LIG1       -0.0872
     21 H           0.0436    6.7354   -0.5802 H       1  LIG1        0.0629
     22 H          -1.4428    8.8884   -0.6526 H       1  LIG1        0.0629
     23 C          -4.2376    8.6335   -0.1057 C.ar    1  LIG1        0.0259
     24 C          -4.1536    9.9794    0.1838 C.ar    1  LIG1       -0.0464
     25 C          -5.4045   10.6539    0.1137 C.ar    1  LIG1       -0.0541
     26 C          -6.4399    9.8239   -0.2191 C.ar    1  LIG1       -0.0237
     27 S          -5.8978    8.1966   -0.4736 S.2     1  LIG1       -0.0961
     28 H          -7.4877   10.0654   -0.3292 H       1  LIG1        0.0693
     29 H          -3.2233   10.4586    0.4653 H       1  LIG1        0.0629
     30 H          -5.5304   11.7113    0.3164 H       1  LIG1        0.0623
@<TRIPOS>BOND
     1    22    18    1
     2    21    17    1
     3     8     3    1
     4    27    26   ar
     5    27    23   ar
     6    18    17   ar
     7    18    19   ar
     8     7     2    1
     9    17    16   ar
    10    28    26    1
    11    13    12   ar
    12    13     9   ar
    13     3     2   ar
    14     3     4   ar
    15    26    25   ar
    16     2     1   ar
    17    19    23    1
    18    19    20   ar
    19    23    24   ar
    20    16    12    1
    21    16    20   ar
    22    12    11   ar
    23     4     9    1
    24     4     5   ar
    25     9    10   ar
    26    25    24   ar
    27    25    30    1
    28     1     6    1
    29     1     5   ar
    30    24    29    1
    31    11    10   ar
    32    11    15    1
    33    10    14    1
