@<TRIPOS>MOLECULE
mol_data/opt/b3lyp/geoms/mol2/5aa5aa-5aa-.out
 23 25 0 0 0
SMALL
GASTEIGER

@<TRIPOS>ATOM
      1 C          -1.9695   -1.9693   -0.0588 C.ar    1  LIG1       -0.0237
      2 C          -0.6409   -1.8966    0.2591 C.ar    1  LIG1       -0.0541
      3 C          -0.1495   -0.5613    0.2869 C.ar    1  LIG1       -0.0464
      4 C          -1.1062    0.3831   -0.0201 C.ar    1  LIG1        0.0259
      5 S          -2.6431   -0.3982   -0.3512 S.2     1  LIG1       -0.0961
      6 H          -2.5958   -2.8466   -0.1379 H       1  LIG1        0.0693
      7 H          -0.0331   -2.7664    0.4805 H       1  LIG1        0.0623
      8 H           0.8675   -0.2964    0.5511 H       1  LIG1        0.0629
      9 C          -0.9360    1.8210   -0.1047 C.ar    1  LIG1        0.0265
     10 C           0.2149    2.5184   -0.4074 C.ar    1  LIG1       -0.0458
     11 C           0.0468    3.9253   -0.4035 C.ar    1  LIG1       -0.0458
     12 C          -1.2358    4.3302   -0.0976 C.ar    1  LIG1        0.0265
     13 S          -2.2513    2.9354    0.2190 S.2     1  LIG1       -0.0872
     14 H           1.1438    2.0244   -0.6675 H       1  LIG1        0.0629
     15 H           0.8329    4.6257   -0.6602 H       1  LIG1        0.0629
     16 C          -1.7400    5.6870   -0.0052 C.ar    1  LIG1        0.0259
     17 C          -1.0325    6.8285    0.3076 C.ar    1  LIG1       -0.0464
     18 C          -1.8246    8.0106    0.2867 C.ar    1  LIG1       -0.0541
     19 C          -3.1332    7.7699   -0.0316 C.ar    1  LIG1       -0.0237
     20 S          -3.4179    6.0861   -0.3332 S.2     1  LIG1       -0.0961
     21 H          -3.9486    8.4755   -0.1064 H       1  LIG1        0.0693
     22 H           0.0185    6.8092    0.5712 H       1  LIG1        0.0629
     23 H          -1.4387    8.9979    0.5134 H       1  LIG1        0.0623
@<TRIPOS>BOND
     1    14    10    1
     2    15    11    1
     3    10    11   ar
     4    10     9   ar
     5    11    12   ar
     6     5     1   ar
     7     5     4   ar
     8    20    19   ar
     9    20    16   ar
    10     6     1    1
    11    21    19    1
    12     9     4    1
    13     9    13   ar
    14    12    16    1
    15    12    13   ar
    16     1     2   ar
    17    19    18   ar
    18     4     3   ar
    19    16    17   ar
    20     2     3   ar
    21     2     7    1
    22    18    17   ar
    23    18    23    1
    24     3     8    1
    25    17    22    1
