@<TRIPOS>MOLECULE
mol_data/opt/b3lyp/geoms/mol2/5aa5aa5aa.out
 23 25 0 0 0
SMALL
GASTEIGER

@<TRIPOS>ATOM
      1 C          -1.9722   -1.9687    0.0362 C.ar    1  LIG1       -0.0237
      2 C          -0.6384   -1.8966   -0.2595 C.ar    1  LIG1       -0.0541
      3 C          -0.1457   -0.5616   -0.2775 C.ar    1  LIG1       -0.0464
      4 C          -1.1068    0.3831    0.0148 C.ar    1  LIG1        0.0259
      5 S          -2.6496   -0.3977    0.3193 S.2     1  LIG1       -0.0961
      6 H          -2.6001   -2.8459    0.1040 H       1  LIG1        0.0693
      7 H          -0.0277   -2.7665   -0.4719 H       1  LIG1        0.0623
      8 H           0.8758   -0.2970   -0.5243 H       1  LIG1        0.0629
      9 C          -0.9374    1.8208    0.1036 C.ar    1  LIG1        0.0265
     10 C           0.2087    2.5176    0.4256 C.ar    1  LIG1       -0.0458
     11 C           0.0410    3.9245    0.4208 C.ar    1  LIG1       -0.0458
     12 C          -1.2365    4.3302    0.0951 C.ar    1  LIG1        0.0265
     13 S          -2.2472    2.9360   -0.2395 S.2     1  LIG1       -0.0872
     14 H           1.1332    2.0230    0.6997 H       1  LIG1        0.0629
     15 H           0.8231    4.6244    0.6908 H       1  LIG1        0.0629
     16 C          -1.7390    5.6872   -0.0035 C.ar    1  LIG1        0.0259
     17 C          -1.0267    6.8291   -0.3037 C.ar    1  LIG1       -0.0464
     18 C          -1.8192    8.0111   -0.2940 C.ar    1  LIG1       -0.0541
     19 C          -3.1326    7.7699    0.0032 C.ar    1  LIG1       -0.0237
     20 S          -3.4220    6.0858    0.2982 S.2     1  LIG1       -0.0961
     21 H          -3.9491    8.4755    0.0659 H       1  LIG1        0.0693
     22 H           0.0283    6.8101   -0.5504 H       1  LIG1        0.0629
     23 H          -1.4299    8.9987   -0.5134 H       1  LIG1        0.0623
@<TRIPOS>BOND
     1    22    17    1
     2     8     3    1
     3    23    18    1
     4     7     2    1
     5    17    18   ar
     6    17    16   ar
     7    18    19   ar
     8     3     2   ar
     9     3     4   ar
    10     2     1   ar
    11    13    12   ar
    12    13     9   ar
    13    16    12    1
    14    16    20   ar
    15    19    21    1
    16    19    20   ar
    17     4     9    1
    18     4     5   ar
    19     1     6    1
    20     1     5   ar
    21    12    11   ar
    22     9    10   ar
    23    11    10   ar
    24    11    15    1
    25    10    14    1
