@<TRIPOS>MOLECULE
mol_data/opt/b3lyp/geoms/mol2/5aa5aa5aa-.out
 23 25 0 0 0
SMALL
GASTEIGER

@<TRIPOS>ATOM
      1 C          -1.9726   -1.9691    0.0200 C.ar    1  LIG1       -0.0237
      2 C          -0.6366   -1.8959   -0.2653 C.ar    1  LIG1       -0.0541
      3 C          -0.1442   -0.5608   -0.2764 C.ar    1  LIG1       -0.0464
      4 C          -1.1077    0.3830    0.0106 C.ar    1  LIG1        0.0259
      5 S          -2.6525   -0.3988    0.3017 S.2     1  LIG1       -0.0961
      6 H          -2.6010   -2.8464    0.0807 H       1  LIG1        0.0693
      7 H          -0.0241   -2.7652   -0.4751 H       1  LIG1        0.0623
      8 H           0.8790   -0.2953   -0.5151 H       1  LIG1        0.0629
      9 C          -0.9390    1.8204    0.1047 C.ar    1  LIG1        0.0265
     10 C           0.2044    2.5163    0.4381 C.ar    1  LIG1       -0.0458
     11 C           0.0369    3.9232    0.4351 C.ar    1  LIG1       -0.0458
     12 C          -1.2377    4.3299    0.0995 C.ar    1  LIG1        0.0265
     13 S          -2.2456    2.9367   -0.2470 S.2     1  LIG1       -0.0872
     14 H           1.1264    2.0209    0.7191 H       1  LIG1        0.0629
     15 H           0.8168    4.6223    0.7136 H       1  LIG1        0.0629
     16 C          -1.7389    5.6873   -0.0003 C.ar    1  LIG1        0.0259
     17 C          -1.0236    6.8296   -0.2912 C.ar    1  LIG1       -0.0464
     18 C          -1.8155    8.0120   -0.2853 C.ar    1  LIG1       -0.0541
     19 C          -3.1317    7.7707   -0.0002 C.ar    1  LIG1       -0.0237
     20 S          -3.4243    6.0858    0.2879 S.2     1  LIG1       -0.0961
     21 H          -3.9485    8.4762    0.0570 H       1  LIG1        0.0693
     22 H           0.0336    6.8109   -0.5288 H       1  LIG1        0.0629
     23 H          -1.4239    8.9999   -0.4986 H       1  LIG1        0.0623
@<TRIPOS>BOND
     1    22    17    1
     2     8     3    1
     3    23    18    1
     4     7     2    1
     5    17    18   ar
     6    17    16   ar
     7    18    19   ar
     8     3     2   ar
     9     3     4   ar
    10     2     1   ar
    11    13    12   ar
    12    13     9   ar
    13    16    12    1
    14    16    20   ar
    15    19    21    1
    16    19    20   ar
    17     4     9    1
    18     4     5   ar
    19     1     6    1
    20     1     5   ar
    21    12    11   ar
    22     9    10   ar
    23    11    10   ar
    24    11    15    1
    25    10    14    1
