@<TRIPOS>MOLECULE
mol_data/opt/b3lyp/geoms/mol2/5aa5aa5aa5aa-.out
 30 33 0 0 0
SMALL
GASTEIGER

@<TRIPOS>ATOM
      1 C          -1.8870   -2.0640    0.1329 C.ar    1  LIG1       -0.0237
      2 C          -0.5583   -1.9875   -0.1845 C.ar    1  LIG1       -0.0541
      3 C          -0.0776   -0.6494   -0.2398 C.ar    1  LIG1       -0.0464
      4 C          -1.0426    0.2939    0.0454 C.ar    1  LIG1        0.0259
      5 S          -2.5738   -0.4928    0.3906 S.2     1  LIG1       -0.0961
      6 H          -2.5063   -2.9445    0.2298 H       1  LIG1        0.0693
      7 H           0.0567   -2.8569   -0.3864 H       1  LIG1        0.0623
      8 H           0.9378   -0.3823   -0.5080 H       1  LIG1        0.0629
      9 C          -0.8847    1.7340    0.0982 C.ar    1  LIG1        0.0265
     10 C           0.2639    2.4484    0.3718 C.ar    1  LIG1       -0.0458
     11 C           0.0840    3.8521    0.3403 C.ar    1  LIG1       -0.0458
     12 C          -1.2072    4.2404    0.0414 C.ar    1  LIG1        0.0265
     13 S          -2.2144    2.8296   -0.2317 S.2     1  LIG1       -0.0872
     14 H           1.2005    1.9681    0.6295 H       1  LIG1        0.0629
     15 H           0.8680    4.5636    0.5719 H       1  LIG1        0.0629
     16 C          -1.7227    5.5877   -0.0707 C.ar    1  LIG1        0.0265
     17 C          -1.0184    6.7403   -0.3583 C.ar    1  LIG1       -0.0458
     18 C          -1.8220    7.9051   -0.3930 C.ar    1  LIG1       -0.0458
     19 C          -3.1565    7.6683   -0.1334 C.ar    1  LIG1        0.0265
     20 S          -3.4172    5.9636    0.1874 S.2     1  LIG1       -0.0872
     21 H           0.0424    6.7356   -0.5796 H       1  LIG1        0.0629
     22 H          -1.4434    8.8892   -0.6433 H       1  LIG1        0.0629
     23 C          -4.2366    8.6343   -0.0873 C.ar    1  LIG1        0.0259
     24 C          -4.1514    9.9798    0.2040 C.ar    1  LIG1       -0.0464
     25 C          -5.4024   10.6546    0.1392 C.ar    1  LIG1       -0.0541
     26 C          -6.4391    9.8252   -0.1911 C.ar    1  LIG1       -0.0237
     27 S          -5.8981    8.1982   -0.4500 S.2     1  LIG1       -0.0961
     28 H          -7.4873   10.0670   -0.2972 H       1  LIG1        0.0693
     29 H          -3.2200   10.4584    0.4830 H       1  LIG1        0.0629
     30 H          -5.5274   11.7116    0.3440 H       1  LIG1        0.0623
@<TRIPOS>BOND
     1    22    18    1
     2    21    17    1
     3     8     3    1
     4    27    26   ar
     5    27    23   ar
     6    18    17   ar
     7    18    19   ar
     8     7     2    1
     9    17    16   ar
    10    28    26    1
    11     3     2   ar
    12     3     4   ar
    13    13    12   ar
    14    13     9   ar
    15    26    25   ar
    16     2     1   ar
    17    19    23    1
    18    19    20   ar
    19    23    24   ar
    20    16    12    1
    21    16    20   ar
    22    12    11   ar
    23     4     9    1
    24     4     5   ar
    25     9    10   ar
    26     1     6    1
    27     1     5   ar
    28    25    24   ar
    29    25    30    1
    30    24    29    1
    31    11    10   ar
    32    11    15    1
    33    10    14    1
