@<TRIPOS>MOLECULE
mol_data/opt/b3lyp/geoms/mol2/5aa5aa-.out
 16 17 0 0 0
SMALL
GASTEIGER

@<TRIPOS>ATOM
      1 C          -2.0470   -1.8563   -0.0001 C.ar    1  LIG1       -0.0237
      2 C          -0.6801   -1.8210   -0.0006 C.ar    1  LIG1       -0.0541
      3 C          -0.1595   -0.4971   -0.0002 C.ar    1  LIG1       -0.0464
      4 C          -1.1330    0.4804    0.0007 C.ar    1  LIG1        0.0259
      5 S          -2.7240   -0.2594    0.0009 S.2     1  LIG1       -0.0961
      6 H          -2.7008   -2.7174   -0.0002 H       1  LIG1        0.0693
      7 H          -0.0616   -2.7115   -0.0012 H       1  LIG1        0.0623
      8 H           0.9002   -0.2712   -0.0004 H       1  LIG1        0.0629
      9 C          -0.9467    1.9220    0.0013 C.ar    1  LIG1        0.0259
     10 C           0.2432    2.6200    0.0014 C.ar    1  LIG1       -0.0464
     11 C           0.0761    4.0328    0.0020 C.ar    1  LIG1       -0.0541
     12 C          -1.2370    4.4142    0.0024 C.ar    1  LIG1       -0.0237
     13 S          -2.2976    3.0419    0.0021 S.2     1  LIG1       -0.0961
     14 H          -1.6505    5.4132    0.0029 H       1  LIG1        0.0693
     15 H           1.2107    2.1322    0.0010 H       1  LIG1        0.0629
     16 H           0.9007    4.7369    0.0022 H       1  LIG1        0.0623
@<TRIPOS>BOND
     1     7     2    1
     2     2     3   ar
     3     2     1   ar
     4     8     3    1
     5     6     1    1
     6     3     4   ar
     7     1     5   ar
     8     4     5   ar
     9     4     9    1
    10    15    10    1
    11     9    10   ar
    12     9    13   ar
    13    10    11   ar
    14    11    16    1
    15    11    12   ar
    16    13    12   ar
    17    12    14    1
