@<TRIPOS>MOLECULE
mol_data/opt/b3lyp/geoms/mol2/5aa5aa.out
 16 17 0 0 0
SMALL
GASTEIGER

@<TRIPOS>ATOM
      1 C          -2.0136   -1.8559    0.2019 C.ar    1  LIG1       -0.0237
      2 C          -0.6910   -1.8177   -0.1443 C.ar    1  LIG1       -0.0541
      3 C          -0.1869   -0.4913   -0.2623 C.ar    1  LIG1       -0.0464
      4 C          -1.1272    0.4798    0.0037 C.ar    1  LIG1        0.0259
      5 S          -2.6648   -0.2621    0.4109 S.2     1  LIG1       -0.0961
      6 H          -2.6473   -2.7198    0.3451 H       1  LIG1        0.0693
      7 H          -0.0964   -2.7061   -0.3240 H       1  LIG1        0.0623
      8 H           0.8275   -0.2533   -0.5603 H       1  LIG1        0.0629
      9 C          -0.9410    1.9211   -0.0007 C.ar    1  LIG1        0.0259
     10 C           0.2109    2.6219    0.2825 C.ar    1  LIG1       -0.0464
     11 C           0.0623    4.0327    0.1592 C.ar    1  LIG1       -0.0541
     12 C          -1.2014    4.4050   -0.2083 C.ar    1  LIG1       -0.0237
     13 S          -2.2327    3.0285   -0.4311 S.2     1  LIG1       -0.0961
     14 H          -1.5923    5.4012   -0.3598 H       1  LIG1        0.0693
     15 H           1.1265    2.1346    0.5963 H       1  LIG1        0.0629
     16 H           0.8602    4.7412    0.3503 H       1  LIG1        0.0623
@<TRIPOS>BOND
     1     8     3    1
     2    13    12   ar
     3    13     9   ar
     4    14    12    1
     5     7     2    1
     6     3     2   ar
     7     3     4   ar
     8    12    11   ar
     9     2     1   ar
    10     9     4    1
    11     9    10   ar
    12     4     5   ar
    13    11    10   ar
    14    11    16    1
    15     1     6    1
    16     1     5   ar
    17    10    15    1
