@<TRIPOS>MOLECULE
mol_data/opt/b3lyp/geoms/mol2/5aa5aa5aa5aa.out
 30 33 0 0 0
SMALL
GASTEIGER

@<TRIPOS>ATOM
      1 C          -1.8869   -2.0644    0.1274 C.ar    1  LIG1       -0.0237
      2 C          -0.5579   -1.9872   -0.1882 C.ar    1  LIG1       -0.0541
      3 C          -0.0773   -0.6490   -0.2411 C.ar    1  LIG1       -0.0464
      4 C          -1.0429    0.2937    0.0443 C.ar    1  LIG1        0.0259
      5 S          -2.5743   -0.4936    0.3865 S.2     1  LIG1       -0.0961
      6 H          -2.5063   -2.9451    0.2225 H       1  LIG1        0.0693
      7 H           0.0575   -2.8562   -0.3906 H       1  LIG1        0.0623
      8 H           0.9383   -0.3814   -0.5078 H       1  LIG1        0.0629
      9 C          -0.8851    1.7339    0.0993 C.ar    1  LIG1        0.0265
     10 C           0.2629    2.4479    0.3762 C.ar    1  LIG1       -0.0458
     11 C           0.0830    3.8516    0.3461 C.ar    1  LIG1       -0.0458
     12 C          -1.2076    4.2402    0.0450 C.ar    1  LIG1        0.0265
     13 S          -2.2141    2.8298   -0.2321 S.2     1  LIG1       -0.0872
     14 H           1.1990    1.9672    0.6353 H       1  LIG1        0.0629
     15 H           0.8665    4.5627    0.5803 H       1  LIG1        0.0629
     16 C          -1.7227    5.5877   -0.0667 C.ar    1  LIG1        0.0265
     17 C          -1.0178    6.7406   -0.3511 C.ar    1  LIG1       -0.0458
     18 C          -1.8212    7.9055   -0.3863 C.ar    1  LIG1       -0.0458
     19 C          -3.1563    7.6684   -0.1302 C.ar    1  LIG1        0.0265
     20 S          -3.4179    5.9633    0.1878 S.2     1  LIG1       -0.0872
     21 H           0.0436    6.7361   -0.5699 H       1  LIG1        0.0629
     22 H          -1.4420    8.8899   -0.6344 H       1  LIG1        0.0629
     23 C          -4.2365    8.6344   -0.0856 C.ar    1  LIG1        0.0259
     24 C          -4.1517    9.9797    0.2065 C.ar    1  LIG1       -0.0464
     25 C          -5.4026   10.6547    0.1398 C.ar    1  LIG1       -0.0541
     26 C          -6.4388    9.8255   -0.1929 C.ar    1  LIG1       -0.0237
     27 S          -5.8974    8.1985   -0.4515 S.2     1  LIG1       -0.0961
     28 H          -7.4867   10.0674   -0.3008 H       1  LIG1        0.0693
     29 H          -3.2208   10.4581    0.4874 H       1  LIG1        0.0629
     30 H          -5.5279   11.7116    0.3448 H       1  LIG1        0.0623
@<TRIPOS>BOND
     1    22    18    1
     2    21    17    1
     3     8     3    1
     4    27    26   ar
     5    27    23   ar
     6     7     2    1
     7    18    17   ar
     8    18    19   ar
     9    17    16   ar
    10    28    26    1
    11     3     2   ar
    12     3     4   ar
    13    13    12   ar
    14    13     9   ar
    15    26    25   ar
    16     2     1   ar
    17    19    23    1
    18    19    20   ar
    19    23    24   ar
    20    16    12    1
    21    16    20   ar
    22     4     9    1
    23     4     5   ar
    24    12    11   ar
    25     9    10   ar
    26     1     6    1
    27     1     5   ar
    28    25    24   ar
    29    25    30    1
    30    24    29    1
    31    11    10   ar
    32    11    15    1
    33    10    14    1
