@<TRIPOS>MOLECULE
mol_data/opt/b3lyp/geoms/mol2/5aa5aa-5aa5aa.out
 30 33 0 0 0
SMALL
GASTEIGER

@<TRIPOS>ATOM
      1 C          -1.9235   -2.0636    0.2243 C.ar    1  LIG1       -0.0237
      2 C          -0.6063   -1.9993   -0.1403 C.ar    1  LIG1       -0.0541
      3 C          -0.1197   -0.6650   -0.2280 C.ar    1  LIG1       -0.0464
      4 C          -1.0683    0.2876    0.0802 C.ar    1  LIG1        0.0259
      5 S          -2.5911   -0.4851    0.4881 S.2     1  LIG1       -0.0961
      6 H          -2.5443   -2.9389    0.3532 H       1  LIG1        0.0693
      7 H          -0.0041   -2.8748   -0.3537 H       1  LIG1        0.0623
      8 H           0.8872   -0.4076   -0.5349 H       1  LIG1        0.0629
      9 C          -0.8998    1.7273    0.1107 C.ar    1  LIG1        0.0265
     10 C           0.2622    2.4371    0.3353 C.ar    1  LIG1       -0.0458
     11 C           0.0899    3.8415    0.2939 C.ar    1  LIG1       -0.0458
     12 C          -1.2086    4.2348    0.0363 C.ar    1  LIG1        0.0265
     13 S          -2.2335    2.8277   -0.1847 S.2     1  LIG1       -0.0872
     14 H           1.2043    1.9535    0.5654 H       1  LIG1        0.0629
     15 H           0.8860    4.5503    0.4895 H       1  LIG1        0.0629
     16 C          -1.7193    5.5842   -0.0733 C.ar    1  LIG1        0.0265
     17 C          -1.0185    6.7286   -0.3993 C.ar    1  LIG1       -0.0458
     18 C          -1.8155    7.8983   -0.4194 C.ar    1  LIG1       -0.0458
     19 C          -3.1415    7.6734   -0.1099 C.ar    1  LIG1        0.0265
     20 S          -3.4012    5.9742    0.2400 S.2     1  LIG1       -0.0872
     21 H           0.0338    6.7143   -0.6579 H       1  LIG1        0.0629
     22 H          -1.4400    8.8769   -0.6945 H       1  LIG1        0.0629
     23 C          -4.2132    8.6470   -0.0371 C.ar    1  LIG1        0.0259
     24 C          -4.1093    9.9952    0.2348 C.ar    1  LIG1       -0.0464
     25 C          -5.3576   10.6775    0.2063 C.ar    1  LIG1       -0.0541
     26 C          -6.4106    9.8511   -0.0772 C.ar    1  LIG1       -0.0237
     27 S          -5.8892    8.2177   -0.3356 S.2     1  LIG1       -0.0961
     28 H          -7.4603   10.0987   -0.1489 H       1  LIG1        0.0693
     29 H          -3.1657   10.4708    0.4748 H       1  LIG1        0.0629
     30 H          -5.4687   11.7377    0.4027 H       1  LIG1        0.0623
@<TRIPOS>BOND
     1    22    18    1
     2    21    17    1
     3     8     3    1
     4    18    17   ar
     5    18    19   ar
     6    17    16   ar
     7     7     2    1
     8    27    26   ar
     9    27    23   ar
    10     3     2   ar
    11     3     4   ar
    12    13    12   ar
    13    13     9   ar
    14    28    26    1
    15     2     1   ar
    16    19    23    1
    17    19    20   ar
    18    26    25   ar
    19    16    12    1
    20    16    20   ar
    21    23    24   ar
    22    12    11   ar
    23     4     9    1
    24     4     5   ar
    25     9    10   ar
    26    25    24   ar
    27    25    30    1
    28     1     6    1
    29     1     5   ar
    30    24    29    1
    31    11    10   ar
    32    11    15    1
    33    10    14    1
