@<TRIPOS>MOLECULE
mol_data/opt/b3lyp/geoms/mol2/5ad.out
 10 10 0 0 0
SMALL
GASTEIGER

@<TRIPOS>ATOM
      1 C          -2.0846   -1.7612   -0.0001 C.ar    1  LIG1       -0.0231
      2 C          -0.7215   -1.7398   -0.0005 C.ar    1  LIG1       -0.0373
      3 C          -0.1979   -0.4014   -0.0003 C.ar    1  LIG1        0.0588
      4 C          -1.1879    0.5568    0.0005 C.ar    1  LIG1       -0.0070
      5 S          -2.7549   -0.1588    0.0008 S.2     1  LIG1       -0.1038
      6 H          -2.7399   -2.6206   -0.0001 H       1  LIG1        0.0694
      7 H          -1.0658    1.6300    0.0009 H       1  LIG1        0.0706
      8 H          -0.0972   -2.6245   -0.0011 H       1  LIG1        0.0636
      9 N           2.3331    0.1529   -0.0010 N.1     1  LIG1       -0.1909
     10 C           1.1952   -0.0903   -0.0007 C.1     1  LIG1        0.0997
@<TRIPOS>BOND
     1     8     2    1
     2     9    10    3
     3    10     3    1
     4     2     3   ar
     5     2     1   ar
     6     3     4   ar
     7     6     1    1
     8     1     5   ar
     9     4     5   ar
    10     4     7    1
