@<TRIPOS>MOLECULE
mol_data/opt/b3lyp/geoms/mol2/5ad5ad-5ad5ad.out
 34 37 0 0 0
SMALL
GASTEIGER

@<TRIPOS>ATOM
      1 C          -2.1190   -1.9557    0.2205 C.ar    1  LIG1       -0.0225
      2 C          -0.7903   -2.0098   -0.0758 C.ar    1  LIG1       -0.0367
      3 C          -0.1871   -0.7125   -0.1504 C.ar    1  LIG1        0.0670
      4 C          -1.0812    0.3270    0.1009 C.ar    1  LIG1        0.0433
      5 S          -2.6665   -0.3254    0.4366 S.2     1  LIG1       -0.0948
      6 H          -2.8147   -2.7751    0.3316 H       1  LIG1        0.0694
      7 H          -0.2402   -2.9264   -0.2474 H       1  LIG1        0.0636
      8 N           2.3152   -0.3806   -0.7232 N.1     1  LIG1       -0.1908
      9 C           1.1878   -0.5242   -0.4703 C.1     1  LIG1        0.1003
     10 C          -0.8346    1.7543    0.1140 C.ar    1  LIG1        0.0290
     11 C           0.3539    2.4229    0.3001 C.ar    1  LIG1       -0.0284
     12 C           0.2178    3.8404    0.2637 C.ar    1  LIG1        0.0676
     13 C          -1.0907    4.2737    0.0442 C.ar    1  LIG1        0.0439
     14 S          -2.1447    2.8965   -0.1465 S.2     1  LIG1       -0.0859
     15 H           1.3007    1.9308    0.4780 H       1  LIG1        0.0642
     16 N           2.2229    5.4359    0.6336 N.1     1  LIG1       -0.1908
     17 C           1.3209    4.7183    0.4706 C.1     1  LIG1        0.1003
     18 C          -1.6017    5.6230   -0.0432 C.ar    1  LIG1        0.0290
     19 C          -0.9196    6.7897   -0.3104 C.ar    1  LIG1       -0.0284
     20 C          -1.7577    7.9407   -0.3352 C.ar    1  LIG1        0.0676
     21 C          -3.1016    7.6638   -0.0830 C.ar    1  LIG1        0.0439
     22 S          -3.3081    5.9586    0.2166 S.2     1  LIG1       -0.0859
     23 H           0.1434    6.8363   -0.5050 H       1  LIG1        0.0642
     24 N          -0.8449   10.3063   -0.8596 N.1     1  LIG1       -0.1908
     25 C          -1.2569    9.2429   -0.6274 C.1     1  LIG1        0.1003
     26 C          -4.2279    8.5728   -0.0357 C.ar    1  LIG1        0.0284
     27 C          -4.2261    9.9318    0.1907 C.ar    1  LIG1       -0.0290
     28 C          -5.5377   10.4990    0.1693 C.ar    1  LIG1        0.0594
     29 C          -6.5242    9.5660   -0.0708 C.ar    1  LIG1       -0.0063
     30 S          -5.8706    7.9918   -0.2887 S.2     1  LIG1       -0.0948
     31 H          -7.5894    9.7353   -0.1352 H       1  LIG1        0.0706
     32 H          -3.3330   10.5127    0.3771 H       1  LIG1        0.0642
     33 N          -6.0376   13.0105    0.5654 N.1     1  LIG1       -0.1909
     34 C          -5.8116   11.8839    0.3860 C.1     1  LIG1        0.0997
@<TRIPOS>BOND
     1    24    25    3
     2     8     9    3
     3    25    20    1
     4    23    19    1
     5     9     3    1
     6    20    19   ar
     7    20    21   ar
     8    19    18   ar
     9    30    29   ar
    10    30    26   ar
    11     7     2    1
    12     3     2   ar
    13     3     4   ar
    14    14    13   ar
    15    14    10   ar
    16    31    29    1
    17    21    26    1
    18    21    22   ar
    19     2     1   ar
    20    29    28   ar
    21    18    13    1
    22    18    22   ar
    23    26    27   ar
    24    13    12   ar
    25     4    10    1
    26     4     5   ar
    27    10    11   ar
    28    28    27   ar
    29    28    34    1
    30    27    32    1
    31     1     6    1
    32     1     5   ar
    33    12    11   ar
    34    12    17    1
    35    11    15    1
    36    34    33    3
    37    17    16    3
