@<TRIPOS>MOLECULE
mol_data/opt/b3lyp/geoms/mol2/5ad5ad5ad-.out
 26 28 0 0 0
SMALL
GASTEIGER

@<TRIPOS>ATOM
      1 C          -2.0753   -1.9310    0.1688 C.ar    1  LIG1       -0.0225
      2 C          -0.7457   -1.9491   -0.1277 C.ar    1  LIG1       -0.0367
      3 C          -0.1730   -0.6368   -0.1812 C.ar    1  LIG1        0.0670
      4 C          -1.0909    0.3773    0.0867 C.ar    1  LIG1        0.0433
      5 S          -2.6604   -0.3172    0.4111 S.2     1  LIG1       -0.0948
      6 H          -2.7518   -2.7680    0.2660 H       1  LIG1        0.0694
      7 H          -0.1743   -2.8496   -0.3139 H       1  LIG1        0.0636
      8 N           2.3210   -0.2393   -0.7485 N.1     1  LIG1       -0.1908
      9 C           1.1971   -0.4117   -0.4979 C.1     1  LIG1        0.1003
     10 C          -0.8780    1.8099    0.1237 C.ar    1  LIG1        0.0290
     11 C           0.2934    2.5024    0.3264 C.ar    1  LIG1       -0.0284
     12 C           0.1232    3.9176    0.3136 C.ar    1  LIG1        0.0676
     13 C          -1.1931    4.3229    0.0968 C.ar    1  LIG1        0.0439
     14 S          -2.2130    2.9258   -0.1238 S.2     1  LIG1       -0.0859
     15 H           1.2508    2.0298    0.5005 H       1  LIG1        0.0642
     16 N           2.0914    5.5507    0.7182 N.1     1  LIG1       -0.1908
     17 C           1.2047    4.8181    0.5399 C.1     1  LIG1        0.1003
     18 C          -1.7363    5.6642    0.0300 C.ar    1  LIG1        0.0284
     19 C          -1.0833    6.8418   -0.2597 C.ar    1  LIG1       -0.0290
     20 C          -1.9510    7.9776   -0.2355 C.ar    1  LIG1        0.0594
     21 C          -3.2556    7.6523    0.0694 C.ar    1  LIG1       -0.0063
     22 S          -3.4418    5.9664    0.3462 S.2     1  LIG1       -0.0948
     23 H          -4.1003    8.3215    0.1486 H       1  LIG1        0.0706
     24 H          -0.0290    6.9070   -0.4924 H       1  LIG1        0.0642
     25 N          -1.1816   10.4004   -0.7378 N.1     1  LIG1       -0.1909
     26 C          -1.5253    9.3127   -0.5107 C.1     1  LIG1        0.0997
@<TRIPOS>BOND
     1     8     9    3
     2    25    26    3
     3    26    20    1
     4     9     3    1
     5    24    19    1
     6     7     2    1
     7    19    20   ar
     8    19    18   ar
     9    20    21   ar
    10     3     2   ar
    11     3     4   ar
    12     2     1   ar
    13    14    13   ar
    14    14    10   ar
    15    18    13    1
    16    18    22   ar
    17    21    23    1
    18    21    22   ar
    19     4    10    1
    20     4     5   ar
    21    13    12   ar
    22    10    11   ar
    23     1     6    1
    24     1     5   ar
    25    12    11   ar
    26    12    17    1
    27    11    15    1
    28    17    16    3
