@<TRIPOS>MOLECULE
mol_data/opt/b3lyp/geoms/mol2/5ad5ad-5ad-.out
 26 28 0 0 0
SMALL
GASTEIGER

@<TRIPOS>ATOM
      1 C          -2.1012   -1.9278   -0.0368 C.ar    1  LIG1       -0.0225
      2 C          -0.7567   -1.9479    0.1825 C.ar    1  LIG1       -0.0367
      3 C          -0.1773   -0.6374    0.1870 C.ar    1  LIG1        0.0670
      4 C          -1.1058    0.3772   -0.0393 C.ar    1  LIG1        0.0433
      5 S          -2.6939   -0.3146   -0.2638 S.2     1  LIG1       -0.0948
      6 H          -2.7851   -2.7631   -0.0847 H       1  LIG1        0.0694
      7 H          -0.1786   -2.8485    0.3461 H       1  LIG1        0.0636
      8 N           2.3467   -0.2436    0.6040 N.1     1  LIG1       -0.1908
      9 C           1.2096   -0.4142    0.4209 C.1     1  LIG1        0.1003
     10 C          -0.8905    1.8084   -0.1059 C.ar    1  LIG1        0.0290
     11 C           0.2696    2.4936   -0.3841 C.ar    1  LIG1       -0.0284
     12 C           0.1053    3.9096   -0.3782 C.ar    1  LIG1        0.0676
     13 C          -1.1950    4.3227   -0.0906 C.ar    1  LIG1        0.0439
     14 S          -2.2051    2.9325    0.2053 S.2     1  LIG1       -0.0859
     15 H           1.2137    2.0152   -0.6076 H       1  LIG1        0.0642
     16 N           2.0521    5.5300   -0.9153 N.1     1  LIG1       -0.1908
     17 C           1.1749    4.8029   -0.6773 C.1     1  LIG1        0.1003
     18 C          -1.7289    5.6670   -0.0088 C.ar    1  LIG1        0.0284
     19 C          -1.0563    6.8453    0.2292 C.ar    1  LIG1       -0.0290
     20 C          -1.9202    7.9841    0.2415 C.ar    1  LIG1        0.0594
     21 C          -3.2413    7.6606    0.0158 C.ar    1  LIG1       -0.0063
     22 S          -3.4486    5.9724   -0.2301 S.2     1  LIG1       -0.0948
     23 H          -4.0868    8.3323   -0.0228 H       1  LIG1        0.0706
     24 H           0.0097    6.9088    0.4003 H       1  LIG1        0.0642
     25 N          -1.1152   10.4095    0.6703 N.1     1  LIG1       -0.1909
     26 C          -1.4749    9.3207    0.4762 C.1     1  LIG1        0.0997
@<TRIPOS>BOND
     1    16    17    3
     2    17    12    1
     3    15    11    1
     4    11    12   ar
     5    11    10   ar
     6    12    13   ar
     7     5     4   ar
     8     5     1   ar
     9    22    18   ar
    10    22    21   ar
    11    10     4    1
    12    10    14   ar
    13    13    18    1
    14    13    14   ar
    15     6     1    1
    16     4     3   ar
    17     1     2   ar
    18    23    21    1
    19    18    19   ar
    20    21    20   ar
    21     2     3   ar
    22     2     7    1
    23     3     9    1
    24    19    20   ar
    25    19    24    1
    26    20    26    1
    27     9     8    3
    28    26    25    3
