@<TRIPOS>MOLECULE
mol_data/opt/b3lyp/geoms/mol2/5ad5ad-5ad.out
 26 28 0 0 0
SMALL
GASTEIGER

@<TRIPOS>ATOM
      1 C          -2.1428   -1.9119    0.0003 C.ar    1  LIG1       -0.0225
      2 C          -0.7821   -1.9631   -0.0005 C.ar    1  LIG1       -0.0367
      3 C          -0.1780   -0.6640   -0.0003 C.ar    1  LIG1        0.0670
      4 C          -1.1055    0.3794    0.0007 C.ar    1  LIG1        0.0433
      5 S          -2.7247   -0.2793    0.0013 S.2     1  LIG1       -0.0948
      6 H          -2.8462   -2.7322    0.0003 H       1  LIG1        0.0694
      7 H          -0.2058   -2.8795   -0.0013 H       1  LIG1        0.0636
      8 N           2.3918   -0.3590   -0.0016 N.1     1  LIG1       -0.1908
      9 C           1.2345   -0.4901   -0.0010 C.1     1  LIG1        0.1003
     10 C          -0.8772    1.8099    0.0012 C.ar    1  LIG1        0.0290
     11 C           0.3135    2.5018    0.0009 C.ar    1  LIG1       -0.0284
     12 C           0.1493    3.9169    0.0016 C.ar    1  LIG1        0.0676
     13 C          -1.1834    4.3326    0.0024 C.ar    1  LIG1        0.0439
     14 S          -2.2286    2.9351    0.0023 S.2     1  LIG1       -0.0859
     15 H           1.2873    2.0315    0.0003 H       1  LIG1        0.0642
     16 N           2.1816    5.5205    0.0014 N.1     1  LIG1       -0.1908
     17 C           1.2667    4.8007    0.0015 C.1     1  LIG1        0.1003
     18 C          -1.7324    5.6730    0.0032 C.ar    1  LIG1        0.0284
     19 C          -1.0678    6.8820    0.0034 C.ar    1  LIG1       -0.0290
     20 C          -1.9531    8.0035    0.0043 C.ar    1  LIG1        0.0594
     21 C          -3.2831    7.6416    0.0048 C.ar    1  LIG1       -0.0063
     22 S          -3.4750    5.9342    0.0041 S.2     1  LIG1       -0.0948
     23 H          -4.1449    8.2933    0.0054 H       1  LIG1        0.0706
     24 H           0.0088    6.9832    0.0030 H       1  LIG1        0.0642
     25 N          -1.1653   10.4721    0.0050 N.1     1  LIG1       -0.1909
     26 C          -1.5168    9.3635    0.0047 C.1     1  LIG1        0.0997
@<TRIPOS>BOND
     1     8     9    3
     2     7     2    1
     3     9     3    1
     4     2     3   ar
     5     2     1   ar
     6     3     4   ar
     7     1     6    1
     8     1     5   ar
     9    15    11    1
    10     4    10    1
    11     4     5   ar
    12    11    10   ar
    13    11    12   ar
    14    10    14   ar
    15    16    17    3
    16    17    12    1
    17    12    13   ar
    18    14    13   ar
    19    13    18    1
    20    24    19    1
    21    18    19   ar
    22    18    22   ar
    23    19    20   ar
    24    22    21   ar
    25    20    26    1
    26    20    21   ar
    27    26    25    3
    28    21    23    1
