@<TRIPOS>MOLECULE
mol_data/opt/b3lyp/geoms/mol2/5ad5ad5ad.out
 26 28 0 0 0
SMALL
GASTEIGER

@<TRIPOS>ATOM
      1 C          -2.1019   -1.9273    0.0655 C.ar    1  LIG1       -0.0225
      2 C          -0.7635   -1.9479   -0.1878 C.ar    1  LIG1       -0.0367
      3 C          -0.1838   -0.6378   -0.2069 C.ar    1  LIG1        0.0670
      4 C          -1.1058    0.3772    0.0430 C.ar    1  LIG1        0.0433
      5 S          -2.6879   -0.3138    0.3078 S.2     1  LIG1       -0.0948
      6 H          -2.7848   -2.7623    0.1307 H       1  LIG1        0.0694
      7 H          -0.1901   -2.8488   -0.3661 H       1  LIG1        0.0636
      8 N           2.3290   -0.2448   -0.6878 N.1     1  LIG1       -0.1908
      9 C           1.1968   -0.4151   -0.4760 C.1     1  LIG1        0.1003
     10 C          -0.8883    1.8084    0.1039 C.ar    1  LIG1        0.0290
     11 C           0.2787    2.4931    0.3534 C.ar    1  LIG1       -0.0284
     12 C           0.1149    3.9091    0.3517 C.ar    1  LIG1        0.0676
     13 C          -1.1919    4.3228    0.0963 C.ar    1  LIG1        0.0439
     14 S          -2.2096    2.9331   -0.1744 S.2     1  LIG1       -0.0859
     15 H           1.2278    2.0142    0.5535 H       1  LIG1        0.0642
     16 N           2.0751    5.5287    0.8404 N.1     1  LIG1       -0.1908
     17 C           1.1918    4.8021    0.6242 C.1     1  LIG1        0.1003
     18 C          -1.7271    5.6673    0.0275 C.ar    1  LIG1        0.0284
     19 C          -1.0601    6.8453   -0.2266 C.ar    1  LIG1       -0.0290
     20 C          -1.9235    7.9845   -0.2180 C.ar    1  LIG1        0.0594
     21 C          -3.2389    7.6615    0.0398 C.ar    1  LIG1       -0.0063
     22 S          -3.4409    5.9734    0.2905 S.2     1  LIG1       -0.0948
     23 H          -4.0830    8.3335    0.0989 H       1  LIG1        0.0706
     24 H           0.0016    6.9085   -0.4235 H       1  LIG1        0.0642
     25 N          -1.1281   10.4095   -0.6661 N.1     1  LIG1       -0.1909
     26 C          -1.4836    9.3209   -0.4633 C.1     1  LIG1        0.0997
@<TRIPOS>BOND
     1     8     9    3
     2    25    26    3
     3     9     3    1
     4    26    20    1
     5    24    19    1
     6     7     2    1
     7    19    20   ar
     8    19    18   ar
     9    20    21   ar
    10     3     2   ar
    11     3     4   ar
    12     2     1   ar
    13    14    13   ar
    14    14    10   ar
    15    18    13    1
    16    18    22   ar
    17    21    23    1
    18    21    22   ar
    19     4    10    1
    20     4     5   ar
    21     1     6    1
    22     1     5   ar
    23    13    12   ar
    24    10    11   ar
    25    12    11   ar
    26    12    17    1
    27    11    15    1
    28    17    16    3
