@<TRIPOS>MOLECULE
mol_data/opt/b3lyp/geoms/mol2/5ad5ad-.out
 18 19 0 0 0
SMALL
GASTEIGER

@<TRIPOS>ATOM
      1 C          -2.1133   -1.8534    0.0001 C.ar    1  LIG1       -0.0225
      2 C          -0.7522   -1.8677   -0.0006 C.ar    1  LIG1       -0.0367
      3 C          -0.1838   -0.5516   -0.0003 C.ar    1  LIG1        0.0670
      4 C          -1.1378    0.4656    0.0006 C.ar    1  LIG1        0.0432
      5 S          -2.7383   -0.2366    0.0011 S.2     1  LIG1       -0.0948
      6 H          -2.7943   -2.6923    0.0001 H       1  LIG1        0.0694
      7 H          -0.1507   -2.7679   -0.0013 H       1  LIG1        0.0636
      8 N           2.3783   -0.1855   -0.0014 N.1     1  LIG1       -0.1908
      9 C           1.2242   -0.3419   -0.0009 C.1     1  LIG1        0.1003
     10 C          -0.9493    1.9055    0.0012 C.ar    1  LIG1        0.0284
     11 C           0.2253    2.6259    0.0011 C.ar    1  LIG1       -0.0290
     12 C           0.0124    4.0400    0.0018 C.ar    1  LIG1        0.0594
     13 C          -1.3215    4.3848    0.0024 C.ar    1  LIG1       -0.0063
     14 S          -2.3333    2.9956    0.0022 S.2     1  LIG1       -0.0948
     15 H          -1.7474    5.3776    0.0030 H       1  LIG1        0.0706
     16 H           1.2105    2.1801    0.0005 H       1  LIG1        0.0642
     17 N           1.9214    5.7923    0.0018 N.1     1  LIG1       -0.1909
     18 C           1.0657    5.0044    0.0018 C.1     1  LIG1        0.0997
@<TRIPOS>BOND
     1     8     9    3
     2     7     2    1
     3     9     3    1
     4     2     3   ar
     5     2     1   ar
     6     3     4   ar
     7     6     1    1
     8     1     5   ar
     9    16    11    1
    10     4     5   ar
    11     4    10    1
    12    11    10   ar
    13    11    12   ar
    14    10    14   ar
    15    12    18    1
    16    12    13   ar
    17    18    17    3
    18    14    13   ar
    19    13    15    1
