@<TRIPOS>MOLECULE
mol_data/opt/b3lyp/geoms/mol2/5ad5ad-5ad5ad-.out
 34 37 0 0 0
SMALL
GASTEIGER

@<TRIPOS>ATOM
      1 C          -2.1886   -1.9295    0.0005 C.ar    1  LIG1       -0.0225
      2 C          -0.8295   -2.0158   -0.0004 C.ar    1  LIG1       -0.0367
      3 C          -0.1922   -0.7329   -0.0003 C.ar    1  LIG1        0.0670
      4 C          -1.0927    0.3342    0.0008 C.ar    1  LIG1        0.0433
      5 S          -2.7286   -0.2828    0.0015 S.2     1  LIG1       -0.0948
      6 H          -2.9128   -2.7315    0.0006 H       1  LIG1        0.0694
      7 H          -0.2771   -2.9469   -0.0012 H       1  LIG1        0.0636
      8 N           2.3842   -0.4914   -0.0018 N.1     1  LIG1       -0.1908
      9 C           1.2242   -0.5949   -0.0011 C.1     1  LIG1        0.1003
     10 C          -0.8275    1.7577    0.0012 C.ar    1  LIG1        0.0290
     11 C           0.3813    2.4192    0.0008 C.ar    1  LIG1       -0.0284
     12 C           0.2548    3.8368    0.0015 C.ar    1  LIG1        0.0676
     13 C          -1.0681    4.2873    0.0024 C.ar    1  LIG1        0.0439
     14 S          -2.1499    2.9173    0.0024 S.2     1  LIG1       -0.0859
     15 H           1.3423    1.9232    0.0001 H       1  LIG1        0.0642
     16 N           2.3220    5.3947    0.0011 N.1     1  LIG1       -0.1908
     17 C           1.3930    4.6931    0.0013 C.1     1  LIG1        0.1003
     18 C          -1.5790    5.6384    0.0032 C.ar    1  LIG1        0.0290
     19 C          -0.8874    6.8315    0.0033 C.ar    1  LIG1       -0.0284
     20 C          -1.7313    7.9771    0.0042 C.ar    1  LIG1        0.0676
     21 C          -3.0958    7.6769    0.0048 C.ar    1  LIG1        0.0439
     22 S          -3.3112    5.9453    0.0042 S.2     1  LIG1       -0.0859
     23 H           0.1914    6.9058    0.0028 H       1  LIG1        0.0642
     24 N          -0.7650   10.3788    0.0047 N.1     1  LIG1       -0.1908
     25 C          -1.2000    9.2991    0.0045 C.1     1  LIG1        0.1003
     26 C          -4.2363    8.5685    0.0058 C.ar    1  LIG1        0.0284
     27 C          -4.2575    9.9484    0.0063 C.ar    1  LIG1       -0.0290
     28 C          -5.5816   10.4842    0.0072 C.ar    1  LIG1        0.0594
     29 C          -6.5580    9.5110    0.0075 C.ar    1  LIG1       -0.0063
     30 S          -5.8798    7.9326    0.0065 S.2     1  LIG1       -0.0948
     31 H          -7.6295    9.6505    0.0081 H       1  LIG1        0.0706
     32 H          -3.3723   10.5690    0.0060 H       1  LIG1        0.0642
     33 N          -6.1197   13.0189    0.0084 N.1     1  LIG1       -0.1909
     34 C          -5.8761   11.8818    0.0079 C.1     1  LIG1        0.0997
@<TRIPOS>BOND
     1     8     9    3
     2     7     2    1
     3     9     3    1
     4     2     3   ar
     5     2     1   ar
     6     3     4   ar
     7    15    11    1
     8     1     6    1
     9     1     5   ar
    10     4    10    1
    11     4     5   ar
    12    11    10   ar
    13    11    12   ar
    14    16    17    3
    15    10    14   ar
    16    17    12    1
    17    12    13   ar
    18    14    13   ar
    19    13    18    1
    20    23    19    1
    21    18    19   ar
    22    18    22   ar
    23    19    20   ar
    24    22    21   ar
    25    20    25    1
    26    20    21   ar
    27    25    24    3
    28    21    26    1
    29    26    27   ar
    30    26    30   ar
    31    32    27    1
    32    27    28   ar
    33    30    29   ar
    34    28    29   ar
    35    28    34    1
    36    29    31    1
    37    34    33    3
