@<TRIPOS>MOLECULE
mol_data/opt/b3lyp/geoms/mol2/5ad5ad-5ad-5ad.out
 34 37 0 0 0
SMALL
GASTEIGER

@<TRIPOS>ATOM
      1 C          -2.1212   -1.9570   -0.1642 C.ar    1  LIG1       -0.0225
      2 C          -0.7873   -2.0089    0.1081 C.ar    1  LIG1       -0.0367
      3 C          -0.1831   -0.7111    0.1623 C.ar    1  LIG1        0.0670
      4 C          -1.0819    0.3266   -0.0797 C.ar    1  LIG1        0.0433
      5 S          -2.6730   -0.3283   -0.3813 S.2     1  LIG1       -0.0948
      6 H          -2.8188   -2.7772   -0.2567 H       1  LIG1        0.0694
      7 H          -0.2340   -2.9242    0.2760 H       1  LIG1        0.0636
      8 N           2.3294   -0.3750    0.6861 N.1     1  LIG1       -0.1908
      9 C           1.1974   -0.5203    0.4554 C.1     1  LIG1        0.1003
     10 C          -0.8360    1.7538   -0.1072 C.ar    1  LIG1        0.0290
     11 C           0.3488    2.4212   -0.3200 C.ar    1  LIG1       -0.0284
     12 C           0.2130    3.8389   -0.2912 C.ar    1  LIG1        0.0676
     13 C          -1.0913    4.2736   -0.0507 C.ar    1  LIG1        0.0439
     14 S          -2.1412    2.8977    0.1693 S.2     1  LIG1       -0.0859
     15 H           1.2922    1.9279   -0.5119 H       1  LIG1        0.0642
     16 N           2.2106    5.4318   -0.7096 N.1     1  LIG1       -0.1908
     17 C           1.3119    4.7154   -0.5248 C.1     1  LIG1        0.1003
     18 C          -1.6009    5.6234    0.0365 C.ar    1  LIG1        0.0290
     19 C          -0.9143    6.7921    0.2825 C.ar    1  LIG1       -0.0284
     20 C          -1.7521    7.9432    0.3146 C.ar    1  LIG1        0.0676
     21 C          -3.1004    7.6642    0.0895 C.ar    1  LIG1        0.0439
     22 S          -3.3120    5.9569   -0.1937 S.2     1  LIG1       -0.0859
     23 H           0.1522    6.8402    0.4569 H       1  LIG1        0.0642
     24 N          -0.8303   10.3126    0.8049 N.1     1  LIG1       -0.1908
     25 C          -1.2462    9.2475    0.5880 C.1     1  LIG1        0.1003
     26 C          -4.2276    8.5728    0.0568 C.ar    1  LIG1        0.0284
     27 C          -4.2304    9.9301   -0.1793 C.ar    1  LIG1       -0.0290
     28 C          -5.5415   10.4974   -0.1375 C.ar    1  LIG1        0.0594
     29 C          -6.5231    9.5659    0.1274 C.ar    1  LIG1       -0.0063
     30 S          -5.8652    7.9934    0.3445 S.2     1  LIG1       -0.0948
     31 H          -7.5870    9.7354    0.2104 H       1  LIG1        0.0706
     32 H          -3.3410   10.5098   -0.3865 H       1  LIG1        0.0642
     33 N          -6.0494   13.0059   -0.5420 N.1     1  LIG1       -0.1909
     34 C          -5.8198   11.8806   -0.3588 C.1     1  LIG1        0.0997
@<TRIPOS>BOND
     1    16    17    3
     2    33    34    3
     3    17    12    1
     4    15    11    1
     5    32    27    1
     6     5     1   ar
     7     5     4   ar
     8    34    28    1
     9    11    12   ar
    10    11    10   ar
    11    12    13   ar
    12     6     1    1
    13    22    18   ar
    14    22    21   ar
    15    27    28   ar
    16    27    26   ar
    17     1     2   ar
    18    28    29   ar
    19    10     4    1
    20    10    14   ar
    21     4     3   ar
    22    13    18    1
    23    13    14   ar
    24    18    19   ar
    25    26    21    1
    26    26    30   ar
    27    21    20   ar
    28     2     3   ar
    29     2     7    1
    30    29    31    1
    31    29    30   ar
    32     3     9    1
    33    19    20   ar
    34    19    23    1
    35    20    25    1
    36     9     8    3
    37    25    24    3
