@<TRIPOS>MOLECULE
mol_data/opt/b3lyp/geoms/mol2/5ad5ad.out
 18 19 0 0 0
SMALL
GASTEIGER

@<TRIPOS>ATOM
      1 C          -2.0915   -1.8480   -0.2343 C.ar    1  LIG1       -0.0225
      2 C          -0.7514   -1.8650    0.0088 C.ar    1  LIG1       -0.0367
      3 C          -0.1956   -0.5495    0.1340 C.ar    1  LIG1        0.0670
      4 C          -1.1366    0.4646   -0.0244 C.ar    1  LIG1        0.0432
      5 S          -2.7072   -0.2305   -0.3383 S.2     1  LIG1       -0.0948
      6 H          -2.7598   -2.6872   -0.3643 H       1  LIG1        0.0694
      7 H          -0.1604   -2.7666    0.1084 H       1  LIG1        0.0636
      8 N           2.3143   -0.1561    0.6310 N.1     1  LIG1       -0.1908
      9 C           1.1831   -0.3244    0.4127 C.1     1  LIG1        0.1003
     10 C          -0.9439    1.9023    0.0318 C.ar    1  LIG1        0.0284
     11 C           0.2014    2.6237   -0.2149 C.ar    1  LIG1       -0.0290
     12 C           0.0138    4.0336   -0.0620 C.ar    1  LIG1        0.0594
     13 C          -1.2739    4.3694    0.2966 C.ar    1  LIG1       -0.0063
     14 S          -2.2672    2.9769    0.4692 S.2     1  LIG1       -0.0948
     15 H          -1.6733    5.3583    0.4696 H       1  LIG1        0.0706
     16 H           1.1440    2.1792   -0.5046 H       1  LIG1        0.0642
     17 N           1.8775    5.7922   -0.4472 N.1     1  LIG1       -0.1909
     18 C           1.0419    5.0022   -0.2725 C.1     1  LIG1        0.0997
@<TRIPOS>BOND
     1    16    11    1
     2    17    18    3
     3     6     1    1
     4     5     1   ar
     5     5     4   ar
     6    18    12    1
     7     1     2   ar
     8    11    12   ar
     9    11    10   ar
    10    12    13   ar
    11     4    10    1
    12     4     3   ar
    13     2     7    1
    14     2     3   ar
    15    10    14   ar
    16     3     9    1
    17    13    14   ar
    18    13    15    1
    19     9     8    3
