@<TRIPOS>MOLECULE
mol_data/opt/b3lyp/geoms/mol2/5ad5ad5ad-5ad.out
 34 37 0 0 0
SMALL
GASTEIGER

@<TRIPOS>ATOM
      1 C          -2.1274   -1.9574    0.1242 C.ar    1  LIG1       -0.0225
      2 C          -0.7862   -2.0092   -0.1097 C.ar    1  LIG1       -0.0367
      3 C          -0.1804   -0.7114   -0.1445 C.ar    1  LIG1        0.0670
      4 C          -1.0856    0.3261    0.0736 C.ar    1  LIG1        0.0433
      5 S          -2.6848   -0.3289    0.3285 S.2     1  LIG1       -0.0948
      6 H          -2.8274   -2.7776    0.1953 H       1  LIG1        0.0694
      7 H          -0.2285   -2.9244   -0.2632 H       1  LIG1        0.0636
      8 N           2.3460   -0.3749   -0.5957 N.1     1  LIG1       -0.1908
      9 C           1.2079   -0.5205   -0.3976 C.1     1  LIG1        0.1003
     10 C          -0.8401    1.7531    0.1107 C.ar    1  LIG1        0.0290
     11 C           0.3382    2.4198    0.3582 C.ar    1  LIG1       -0.0284
     12 C           0.2037    3.8376    0.3281 C.ar    1  LIG1        0.0676
     13 C          -1.0932    4.2731    0.0514 C.ar    1  LIG1        0.0439
     14 S          -2.1368    2.8979   -0.2006 S.2     1  LIG1       -0.0859
     15 H           1.2757    1.9259    0.5758 H       1  LIG1        0.0642
     16 N           2.1890    5.4293    0.8055 N.1     1  LIG1       -0.1908
     17 C           1.2957    4.7134    0.5941 C.1     1  LIG1        0.1003
     18 C          -1.5999    5.6233   -0.0478 C.ar    1  LIG1        0.0290
     19 C          -0.9062    6.7921   -0.2722 C.ar    1  LIG1       -0.0284
     20 C          -1.7424    7.9436   -0.3261 C.ar    1  LIG1        0.0676
     21 C          -3.0966    7.6647   -0.1398 C.ar    1  LIG1        0.0439
     22 S          -3.3166    5.9570    0.1345 S.2     1  LIG1       -0.0859
     23 H           0.1648    6.8402   -0.4162 H       1  LIG1        0.0642
     24 N          -0.8064   10.3135   -0.7860 N.1     1  LIG1       -0.1908
     25 C          -1.2286    9.2482   -0.5829 C.1     1  LIG1        0.1003
     26 C          -4.2240    8.5735   -0.1374 C.ar    1  LIG1        0.0284
     27 C          -4.2329    9.9306    0.1006 C.ar    1  LIG1       -0.0290
     28 C          -5.5422   10.4984    0.0227 C.ar    1  LIG1        0.0594
     29 C          -6.5162    9.5677   -0.2712 C.ar    1  LIG1       -0.0063
     30 S          -5.8530    7.9953   -0.4718 S.2     1  LIG1       -0.0948
     31 H          -7.5773    9.7378   -0.3838 H       1  LIG1        0.0706
     32 H          -3.3495   10.5096    0.3335 H       1  LIG1        0.0642
     33 N          -6.0602   13.0065    0.4164 N.1     1  LIG1       -0.1909
     34 C          -5.8260   11.8814    0.2381 C.1     1  LIG1        0.0997
@<TRIPOS>BOND
     1    24    25    3
     2     8     9    3
     3    25    20    1
     4    30    29   ar
     5    30    26   ar
     6    23    19    1
     7     9     3    1
     8    31    29    1
     9    20    19   ar
    10    20    21   ar
    11    19    18   ar
    12    29    28   ar
    13     7     2    1
    14    14    13   ar
    15    14    10   ar
    16     3     2   ar
    17     3     4   ar
    18    21    26    1
    19    21    22   ar
    20    26    27   ar
    21     2     1   ar
    22    18    13    1
    23    18    22   ar
    24    28    27   ar
    25    28    34    1
    26    13    12   ar
    27     4    10    1
    28     4     5   ar
    29    27    32    1
    30    10    11   ar
    31     1     6    1
    32     1     5   ar
    33    34    33    3
    34    12    11   ar
    35    12    17    1
    36    11    15    1
    37    17    16    3
