@<TRIPOS>MOLECULE
mol_data/opt/b3lyp/geoms/mol2/5ad5ad5ad5ad-.out
 34 37 0 0 0
SMALL
GASTEIGER

@<TRIPOS>ATOM
      1 C          -2.1281   -1.9572    0.1326 C.ar    1  LIG1       -0.0225
      2 C          -0.7883   -2.0094   -0.1090 C.ar    1  LIG1       -0.0367
      3 C          -0.1824   -0.7118   -0.1479 C.ar    1  LIG1        0.0670
      4 C          -1.0860    0.3260    0.0750 C.ar    1  LIG1        0.0433
      5 S          -2.6838   -0.3285    0.3395 S.2     1  LIG1       -0.0948
      6 H          -2.8279   -2.7772    0.2081 H       1  LIG1        0.0694
      7 H          -0.2317   -2.9248   -0.2653 H       1  LIG1        0.0636
      8 N           2.3415   -0.3763   -0.6139 N.1     1  LIG1       -0.1908
      9 C           1.2045   -0.5214   -0.4091 C.1     1  LIG1        0.1003
     10 C          -0.8401    1.7531    0.1099 C.ar    1  LIG1        0.0290
     11 C           0.3399    2.4195    0.3503 C.ar    1  LIG1       -0.0284
     12 C           0.2055    3.8373    0.3203 C.ar    1  LIG1        0.0676
     13 C          -1.0929    4.2731    0.0509 C.ar    1  LIG1        0.0439
     14 S          -2.1382    2.8979   -0.1944 S.2     1  LIG1       -0.0859
     15 H           1.2785    1.9256    0.5628 H       1  LIG1        0.0642
     16 N           2.1938    5.4288    0.7855 N.1     1  LIG1       -0.1908
     17 C           1.2992    4.7131    0.5796 C.1     1  LIG1        0.1003
     18 C          -1.5998    5.6232   -0.0462 C.ar    1  LIG1        0.0290
     19 C          -0.9071    6.7919   -0.2748 C.ar    1  LIG1       -0.0284
     20 C          -1.7434    7.9434   -0.3247 C.ar    1  LIG1        0.0676
     21 C          -3.0967    7.6649   -0.1309 C.ar    1  LIG1        0.0439
     22 S          -3.3155    5.9573    0.1454 S.2     1  LIG1       -0.0859
     23 H           0.1630    6.8397   -0.4246 H       1  LIG1        0.0642
     24 N          -0.8096   10.3131   -0.7906 N.1     1  LIG1       -0.1908
     25 C          -1.2308    9.2478   -0.5848 C.1     1  LIG1        0.1003
     26 C          -4.2238    8.5739   -0.1229 C.ar    1  LIG1        0.0284
     27 C          -4.2313    9.9310    0.1148 C.ar    1  LIG1       -0.0290
     28 C          -5.5409   10.4990    0.0436 C.ar    1  LIG1        0.0594
     29 C          -6.5166    9.5685   -0.2451 C.ar    1  LIG1       -0.0063
     30 S          -5.8547    7.9959   -0.4488 S.2     1  LIG1       -0.0948
     31 H          -7.5782    9.7388   -0.3524 H       1  LIG1        0.0706
     32 H          -3.3467   10.5100    0.3431 H       1  LIG1        0.0642
     33 N          -6.0565   13.0073    0.4395 N.1     1  LIG1       -0.1909
     34 C          -5.8234   11.8821    0.2602 C.1     1  LIG1        0.0997
@<TRIPOS>BOND
     1    24    25    3
     2     8     9    3
     3    25    20    1
     4    30    29   ar
     5    30    26   ar
     6    23    19    1
     7     9     3    1
     8    31    29    1
     9    20    19   ar
    10    20    21   ar
    11    19    18   ar
    12     7     2    1
    13    29    28   ar
    14    14    13   ar
    15    14    10   ar
    16     3     2   ar
    17     3     4   ar
    18    21    26    1
    19    21    22   ar
    20    26    27   ar
    21     2     1   ar
    22    18    13    1
    23    18    22   ar
    24    28    27   ar
    25    28    34    1
    26    13    12   ar
    27     4    10    1
    28     4     5   ar
    29    10    11   ar
    30    27    32    1
    31     1     6    1
    32     1     5   ar
    33    34    33    3
    34    12    11   ar
    35    12    17    1
    36    11    15    1
    37    17    16    3
