@<TRIPOS>MOLECULE
mol_data/opt/b3lyp/geoms/mol2/5ae.out
 11 11 0 0 0
SMALL
GASTEIGER

@<TRIPOS>ATOM
      1 C          -2.0957   -1.7642    0.0001 C.ar    1  LIG1       -0.0231
      2 C          -0.7330   -1.7365   -0.0006 C.ar    1  LIG1       -0.0393
      3 C          -0.1998   -0.3982   -0.0004 C.ar    1  LIG1        0.0317
      4 C          -1.1981    0.5529    0.0005 C.ar    1  LIG1       -0.0089
      5 S          -2.7696   -0.1631    0.0010 S.2     1  LIG1       -0.1038
      6 H          -2.7482   -2.6258    0.0001 H       1  LIG1        0.0694
      7 H          -1.0807    1.6266    0.0008 H       1  LIG1        0.0706
      8 H          -0.1082   -2.6212   -0.0012 H       1  LIG1        0.0635
      9 C           1.1914   -0.0939   -0.0010 C.1     1  LIG1       -0.0691
     10 C           2.3767    0.1498   -0.0014 C.1     1  LIG1       -0.1139
     11 H           3.4189    0.3701   -0.0015 H       1  LIG1        0.1232
@<TRIPOS>BOND
     1    11    10    1
     2    10     9    3
     3     8     2    1
     4     9     3    1
     5     2     3   ar
     6     2     1   ar
     7     3     4   ar
     8     1     6    1
     9     1     5   ar
    10     4     7    1
    11     4     5   ar
