@<TRIPOS>MOLECULE
mol_data/opt/b3lyp/geoms/mol2/5ae5ae-5ae5ae-.out
 38 41 0 0 0
SMALL
GASTEIGER

@<TRIPOS>ATOM
      1 C          -2.1828   -1.8968    0.0008 C.ar    1  LIG1       -0.0225
      2 C          -0.8242   -1.9777   -0.0002 C.ar    1  LIG1       -0.0387
      3 C          -0.1752   -0.6963   -0.0002 C.ar    1  LIG1        0.0399
      4 C          -1.0841    0.3658    0.0009 C.ar    1  LIG1        0.0413
      5 S          -2.7253   -0.2506    0.0018 S.2     1  LIG1       -0.0949
      6 H          -2.9046   -2.7010    0.0010 H       1  LIG1        0.0694
      7 H          -0.2709   -2.9086   -0.0009 H       1  LIG1        0.0635
      8 C           1.2407   -0.5833   -0.0011 C.1     1  LIG1       -0.0685
      9 C           2.4518   -0.5503   -0.0020 C.1     1  LIG1       -0.1139
     10 H           3.5165   -0.5097   -0.0029 H       1  LIG1        0.1232
     11 C          -0.8310    1.7904    0.0013 C.ar    1  LIG1        0.0289
     12 C           0.3719    2.4601    0.0009 C.ar    1  LIG1       -0.0304
     13 C           0.2541    3.8820    0.0014 C.ar    1  LIG1        0.0405
     14 C          -1.0745    4.3212    0.0023 C.ar    1  LIG1        0.0419
     15 S          -2.1573    2.9457    0.0024 S.2     1  LIG1       -0.0859
     16 H           1.3280    1.9573    0.0002 H       1  LIG1        0.0641
     17 C           1.4047    4.7167    0.0011 C.1     1  LIG1       -0.0685
     18 C           2.4189    5.3789    0.0008 C.1     1  LIG1       -0.1139
     19 H           3.3057    5.9695    0.0003 H       1  LIG1        0.1232
     20 C          -1.5980    5.6662    0.0031 C.ar    1  LIG1        0.0289
     21 C          -0.9179    6.8646    0.0032 C.ar    1  LIG1       -0.0304
     22 C          -1.7584    8.0172    0.0041 C.ar    1  LIG1        0.0405
     23 C          -3.1211    7.7023    0.0046 C.ar    1  LIG1        0.0419
     24 S          -3.3317    5.9652    0.0041 S.2     1  LIG1       -0.0859
     25 H           0.1602    6.9319    0.0027 H       1  LIG1        0.0641
     26 C          -1.2082    9.3284    0.0043 C.1     1  LIG1       -0.0685
     27 C          -0.6845   10.4204    0.0044 C.1     1  LIG1       -0.1139
     28 H          -0.2322   11.3851    0.0043 H       1  LIG1        0.1232
     29 C          -4.2703    8.5813    0.0055 C.ar    1  LIG1        0.0283
     30 C          -4.3073    9.9595    0.0060 C.ar    1  LIG1       -0.0310
     31 C          -5.6336   10.4995    0.0069 C.ar    1  LIG1        0.0323
     32 C          -6.5990    9.5141    0.0071 C.ar    1  LIG1       -0.0083
     33 S          -5.9104    7.9341    0.0063 S.2     1  LIG1       -0.0949
     34 H          -7.6715    9.6435    0.0078 H       1  LIG1        0.0706
     35 H          -3.4198   10.5752    0.0057 H       1  LIG1        0.0641
     36 C          -5.9233   11.8941    0.0075 C.1     1  LIG1       -0.0691
     37 C          -6.1614   13.0803    0.0081 C.1     1  LIG1       -0.1139
     38 H          -6.3745   14.1240    0.0088 H       1  LIG1        0.1232
@<TRIPOS>BOND
     1    10     9    1
     2     9     8    3
     3     8     3    1
     4     7     2    1
     5     2     3   ar
     6     2     1   ar
     7     3     4   ar
     8    16    12    1
     9    19    18    1
    10     1     6    1
    11     1     5   ar
    12    18    17    3
    13    12    11   ar
    14    12    13   ar
    15     4    11    1
    16     4     5   ar
    17    17    13    1
    18    11    15   ar
    19    13    14   ar
    20    14    15   ar
    21    14    20    1
    22    25    21    1
    23    20    21   ar
    24    20    24   ar
    25    21    22   ar
    26    22    26    1
    27    22    23   ar
    28    24    23   ar
    29    28    27    1
    30    26    27    3
    31    23    29    1
    32    29    30   ar
    33    29    33   ar
    34    35    30    1
    35    30    31   ar
    36    33    32   ar
    37    31    32   ar
    38    31    36    1
    39    32    34    1
    40    36    37    3
    41    37    38    1
