@<TRIPOS>MOLECULE
mol_data/opt/b3lyp/geoms/mol2/5ae5ae5ae-5ae-.out
 38 41 0 0 0
SMALL
GASTEIGER

@<TRIPOS>ATOM
      1 C          -2.0471   -1.9248    0.5203 C.ar    1  LIG1       -0.0225
      2 C          -0.7942   -1.9744   -0.0106 C.ar    1  LIG1       -0.0387
      3 C          -0.2009   -0.6790   -0.1934 C.ar    1  LIG1        0.0399
      4 C          -1.0412    0.3567    0.2188 C.ar    1  LIG1        0.0413
      5 S          -2.5456   -0.2947    0.8358 S.2     1  LIG1       -0.0949
      6 H          -2.7110   -2.7454    0.7521 H       1  LIG1        0.0694
      7 H          -0.2851   -2.8911   -0.2816 H       1  LIG1        0.0635
      8 C           1.0912   -0.5156   -0.7615 C.1     1  LIG1       -0.0685
      9 C           2.1963   -0.4281   -1.2494 C.1     1  LIG1       -0.1139
     10 H           3.1640   -0.3390   -1.6863 H       1  LIG1        0.1232
     11 C          -0.8061    1.7850    0.1936 C.ar    1  LIG1        0.0289
     12 C           0.3900    2.4613    0.1329 C.ar    1  LIG1       -0.0304
     13 C           0.2590    3.8831    0.1212 C.ar    1  LIG1        0.0405
     14 C          -1.0713    4.3075    0.1825 C.ar    1  LIG1        0.0419
     15 S          -2.1428    2.9258    0.2464 S.2     1  LIG1       -0.0859
     16 H           1.3489    1.9634    0.1003 H       1  LIG1        0.0641
     17 C           1.3919    4.7381    0.0396 C.1     1  LIG1       -0.0685
     18 C           2.3861    5.4259   -0.0312 C.1     1  LIG1       -0.1139
     19 H           3.2550    6.0386   -0.1006 H       1  LIG1        0.1232
     20 C          -1.6015    5.6513    0.1951 C.ar    1  LIG1        0.0289
     21 C          -0.9588    6.8312    0.4960 C.ar    1  LIG1       -0.0304
     22 C          -1.7954    7.9859    0.4281 C.ar    1  LIG1        0.0405
     23 C          -3.1103    7.6849    0.0666 C.ar    1  LIG1        0.0419
     24 S          -3.2813    5.9685   -0.2182 S.2     1  LIG1       -0.0859
     25 H           0.0817    6.8806    0.7836 H       1  LIG1        0.0641
     26 C          -1.3106    9.2852    0.7436 C.1     1  LIG1       -0.0685
     27 C          -0.8558   10.3730    1.0191 C.1     1  LIG1       -0.1139
     28 H          -0.4673   11.3330    1.2695 H       1  LIG1        0.1232
     29 C          -4.2396    8.5757   -0.0950 C.ar    1  LIG1        0.0283
     30 C          -4.2388    9.9274   -0.3554 C.ar    1  LIG1       -0.0310
     31 C          -5.5515   10.4932   -0.4538 C.ar    1  LIG1        0.0323
     32 C          -6.5411    9.5497   -0.2678 C.ar    1  LIG1       -0.0083
     33 S          -5.8930    7.9829    0.0425 S.2     1  LIG1       -0.0949
     34 H          -7.6098    9.7056   -0.2934 H       1  LIG1        0.0706
     35 H          -3.3340   10.5040   -0.4868 H       1  LIG1        0.0641
     36 C          -5.8064   11.8684   -0.7232 C.1     1  LIG1       -0.0691
     37 C          -6.0141   13.0381   -0.9518 C.1     1  LIG1       -0.1139
     38 H          -6.2004   14.0673   -1.1544 H       1  LIG1        0.1232
@<TRIPOS>BOND
     1    10     9    1
     2     9     8    3
     3    38    37    1
     4    37    36    3
     5     8     3    1
     6    36    31    1
     7    35    30    1
     8    31    30   ar
     9    31    32   ar
    10    30    29   ar
    11    34    32    1
    12     7     2    1
    13    32    33   ar
    14    24    23   ar
    15    24    20   ar
    16     3     2   ar
    17     3     4   ar
    18    19    18    1
    19    29    33   ar
    20    29    23    1
    21    18    17    3
    22     2     1   ar
    23    17    13    1
    24    23    22   ar
    25    16    12    1
    26    13    12   ar
    27    13    14   ar
    28    12    11   ar
    29    14    20    1
    30    14    15   ar
    31    11     4    1
    32    11    15   ar
    33    20    21   ar
    34     4     5   ar
    35    22    21   ar
    36    22    26    1
    37    21    25    1
    38     1     6    1
    39     1     5   ar
    40    26    27    3
    41    27    28    1
