@<TRIPOS>MOLECULE
mol_data/opt/b3lyp/geoms/mol2/5ae5ae5ae5ae.out
 38 41 0 0 0
SMALL
GASTEIGER

@<TRIPOS>ATOM
      1 C          -2.1279   -1.9251    0.1615 C.ar    1  LIG1       -0.0225
      2 C          -0.7883   -1.9780   -0.0772 C.ar    1  LIG1       -0.0387
      3 C          -0.1661   -0.6841   -0.1225 C.ar    1  LIG1        0.0399
      4 C          -1.0746    0.3532    0.0938 C.ar    1  LIG1        0.0413
      5 S          -2.6804   -0.2939    0.3599 S.2     1  LIG1       -0.0949
      6 H          -2.8287   -2.7442    0.2391 H       1  LIG1        0.0694
      7 H          -0.2341   -2.8961   -0.2287 H       1  LIG1        0.0635
      8 C           1.2201   -0.5212   -0.3887 C.1     1  LIG1       -0.0685
      9 C           2.4059   -0.4321   -0.6184 C.1     1  LIG1       -0.1139
     10 H           3.4466   -0.3420   -0.8286 H       1  LIG1        0.1232
     11 C          -0.8358    1.7806    0.1244 C.ar    1  LIG1        0.0289
     12 C           0.3394    2.4535    0.3644 C.ar    1  LIG1       -0.0304
     13 C           0.2158    3.8758    0.3342 C.ar    1  LIG1        0.0405
     14 C          -1.0873    4.3024    0.0634 C.ar    1  LIG1        0.0419
     15 S          -2.1354    2.9237   -0.1823 S.2     1  LIG1       -0.0859
     16 H           1.2728    1.9532    0.5810 H       1  LIG1        0.0641
     17 C           1.3205    4.7310    0.5977 C.1     1  LIG1       -0.0685
     18 C           2.2894    5.4202    0.8271 C.1     1  LIG1       -0.1139
     19 H           3.1345    6.0341    1.0375 H       1  LIG1        0.1232
     20 C          -1.6045    5.6474   -0.0380 C.ar    1  LIG1        0.0289
     21 C          -0.9228    6.8202   -0.2720 C.ar    1  LIG1       -0.0304
     22 C          -1.7554    7.9786   -0.3274 C.ar    1  LIG1        0.0405
     23 C          -3.1072    7.6869   -0.1315 C.ar    1  LIG1        0.0419
     24 S          -3.3217    5.9755    0.1534 S.2     1  LIG1       -0.0859
     25 H           0.1463    6.8616   -0.4252 H       1  LIG1        0.0641
     26 C          -1.2275    9.2714   -0.5967 C.1     1  LIG1       -0.0685
     27 C          -0.7354   10.3533   -0.8274 C.1     1  LIG1       -0.1139
     28 H          -0.3129   11.3080   -1.0401 H       1  LIG1        0.1232
     29 C          -4.2433    8.5838   -0.1253 C.ar    1  LIG1        0.0283
     30 C          -4.2680    9.9399    0.1107 C.ar    1  LIG1       -0.0310
     31 C          -5.5806   10.5103    0.0407 C.ar    1  LIG1        0.0323
     32 C          -6.5446    9.5660   -0.2476 C.ar    1  LIG1       -0.0083
     33 S          -5.8706    7.9928   -0.4515 S.2     1  LIG1       -0.0949
     34 H          -7.6079    9.7249   -0.3544 H       1  LIG1        0.0706
     35 H          -3.3834   10.5167    0.3410 H       1  LIG1        0.0641
     36 C          -5.8600   11.8904    0.2544 C.1     1  LIG1       -0.0691
     37 C          -6.0886   13.0644    0.4369 C.1     1  LIG1       -0.1139
     38 H          -6.2933   14.0973    0.5983 H       1  LIG1        0.1232
@<TRIPOS>BOND
     1    28    27    1
     2    10     9    1
     3    27    26    3
     4     9     8    3
     5    26    22    1
     6    33    32   ar
     7    33    29   ar
     8    25    21    1
     9     8     3    1
    10    34    32    1
    11    22    21   ar
    12    22    23   ar
    13    21    20   ar
    14    32    31   ar
    15     7     2    1
    16    15    14   ar
    17    15    11   ar
    18    23    29    1
    19    23    24   ar
    20    29    30   ar
    21     3     2   ar
    22     3     4   ar
    23     2     1   ar
    24    20    14    1
    25    20    24   ar
    26    31    30   ar
    27    31    36    1
    28    14    13   ar
    29     4    11    1
    30     4     5   ar
    31    30    35    1
    32    11    12   ar
    33     1     6    1
    34     1     5   ar
    35    36    37    3
    36    13    12   ar
    37    13    17    1
    38    12    16    1
    39    37    38    1
    40    17    18    3
    41    18    19    1
