@<TRIPOS>MOLECULE
mol_data/opt/b3lyp/geoms/mol2/5ae5ae5ae.out
 29 31 0 0 0
SMALL
GASTEIGER

@<TRIPOS>ATOM
      1 C          -2.0956   -1.9088    0.0977 C.ar    1  LIG1       -0.0225
      2 C          -0.7581   -1.9266   -0.1576 C.ar    1  LIG1       -0.0387
      3 C          -0.1652   -0.6183   -0.1821 C.ar    1  LIG1        0.0399
      4 C          -1.0934    0.3934    0.0674 C.ar    1  LIG1        0.0413
      5 S          -2.6811   -0.2945    0.3378 S.2     1  LIG1       -0.0949
      6 H          -2.7771   -2.7447    0.1653 H       1  LIG1        0.0694
      7 H          -0.1856   -2.8285   -0.3355 H       1  LIG1        0.0635
      8 C           1.2138   -0.4185   -0.4610 C.1     1  LIG1       -0.0685
      9 C           2.3944   -0.2980   -0.7027 C.1     1  LIG1       -0.1139
     10 H           3.4301   -0.1797   -0.9231 H       1  LIG1        0.1232
     11 C          -0.8857    1.8253    0.1270 C.ar    1  LIG1        0.0289
     12 C           0.2756    2.5179    0.3756 C.ar    1  LIG1       -0.0304
     13 C           0.1199    3.9384    0.3767 C.ar    1  LIG1        0.0405
     14 C          -1.1925    4.3410    0.1232 C.ar    1  LIG1        0.0419
     15 S          -2.2110    2.9463   -0.1492 S.2     1  LIG1       -0.0859
     16 H           1.2210    2.0339    0.5769 H       1  LIG1        0.0641
     17 C           1.2064    4.8135    0.6520 C.1     1  LIG1       -0.0685
     18 C           2.1599    5.5210    0.8895 C.1     1  LIG1       -0.1139
     19 H           2.9906    6.1517    1.1074 H       1  LIG1        0.1232
     20 C          -1.7400    5.6797    0.0543 C.ar    1  LIG1        0.0283
     21 C          -1.0871    6.8641   -0.2015 C.ar    1  LIG1       -0.0310
     22 C          -1.9505    8.0079   -0.1953 C.ar    1  LIG1        0.0323
     23 C          -3.2625    7.6693    0.0648 C.ar    1  LIG1       -0.0083
     24 S          -3.4565    5.9754    0.3192 S.2     1  LIG1       -0.0949
     25 H          -4.1126    8.3334    0.1234 H       1  LIG1        0.0706
     26 H          -0.0266    6.9237   -0.4014 H       1  LIG1        0.0641
     27 C          -1.5077    9.3393   -0.4400 C.1     1  LIG1       -0.0691
     28 C          -1.1231   10.4672   -0.6487 C.1     1  LIG1       -0.1139
     29 H          -0.7879   11.4614   -0.8334 H       1  LIG1        0.1232
@<TRIPOS>BOND
     1    10     9    1
     2    29    28    1
     3     9     8    3
     4    28    27    3
     5     8     3    1
     6    27    22    1
     7    26    21    1
     8     7     2    1
     9    21    22   ar
    10    21    20   ar
    11    22    23   ar
    12     3     2   ar
    13     3     4   ar
    14     2     1   ar
    15    15    14   ar
    16    15    11   ar
    17    20    14    1
    18    20    24   ar
    19    23    25    1
    20    23    24   ar
    21     4    11    1
    22     4     5   ar
    23     1     6    1
    24     1     5   ar
    25    14    13   ar
    26    11    12   ar
    27    12    13   ar
    28    12    16    1
    29    13    17    1
    30    17    18    3
    31    18    19    1
