@<TRIPOS>MOLECULE
mol_data/opt/b3lyp/geoms/mol2/5ae5ae5ae-5ae.out
 38 41 0 0 0
SMALL
GASTEIGER

@<TRIPOS>ATOM
      1 C          -2.1303   -1.9256    0.1353 C.ar    1  LIG1       -0.0225
      2 C          -0.7875   -1.9779   -0.0846 C.ar    1  LIG1       -0.0387
      3 C          -0.1648   -0.6839   -0.1181 C.ar    1  LIG1        0.0399
      4 C          -1.0762    0.3529    0.0877 C.ar    1  LIG1        0.0413
      5 S          -2.6856   -0.2948    0.3296 S.2     1  LIG1       -0.0949
      6 H          -2.8320   -2.7449    0.2010 H       1  LIG1        0.0694
      7 H          -0.2312   -2.8956   -0.2304 H       1  LIG1        0.0635
      8 C           1.2251   -0.5203   -0.3643 C.1     1  LIG1       -0.0685
      9 C           2.4140   -0.4304   -0.5770 C.1     1  LIG1       -0.1139
     10 H           3.4575   -0.3397   -0.7723 H       1  LIG1        0.1232
     11 C          -0.8380    1.7802    0.1250 C.ar    1  LIG1        0.0289
     12 C           0.3336    2.4525    0.3838 C.ar    1  LIG1       -0.0304
     13 C           0.2104    3.8749    0.3548 C.ar    1  LIG1        0.0405
     14 C          -1.0885    4.3021    0.0657 C.ar    1  LIG1        0.0419
     15 S          -2.1329    2.9240   -0.1986 S.2     1  LIG1       -0.0859
     16 H           1.2637    1.9517    0.6131 H       1  LIG1        0.0641
     17 C           1.3112    4.7294    0.6366 C.1     1  LIG1       -0.0685
     18 C           2.2764    5.4183    0.8819 C.1     1  LIG1       -0.1139
     19 H           3.1181    6.0317    1.1066 H       1  LIG1        0.1232
     20 C          -1.6041    5.6474   -0.0404 C.ar    1  LIG1        0.0289
     21 C          -0.9189    6.8206   -0.2615 C.ar    1  LIG1       -0.0304
     22 C          -1.7506    7.9792   -0.3269 C.ar    1  LIG1        0.0405
     23 C          -3.1052    7.6872   -0.1521 C.ar    1  LIG1        0.0419
     24 S          -3.3240    5.9751    0.1258 S.2     1  LIG1       -0.0859
     25 H           0.1523    6.8623   -0.3985 H       1  LIG1        0.0641
     26 C          -1.2188    9.2726   -0.5854 C.1     1  LIG1       -0.0685
     27 C          -0.7232   10.3550   -0.8061 C.1     1  LIG1       -0.1139
     28 H          -0.2975   11.3102   -1.0102 H       1  LIG1        0.1232
     29 C          -4.2412    8.5842   -0.1610 C.ar    1  LIG1        0.0283
     30 C          -4.2695    9.9395    0.0782 C.ar    1  LIG1       -0.0310
     31 C          -5.5808   10.5102   -0.0106 C.ar    1  LIG1        0.0323
     32 C          -6.5403    9.5668   -0.3162 C.ar    1  LIG1       -0.0083
     33 S          -5.8633    7.9941   -0.5140 S.2     1  LIG1       -0.0949
     34 H          -7.6018    9.7261   -0.4389 H       1  LIG1        0.0706
     35 H          -3.3885   10.5156    0.3237 H       1  LIG1        0.0641
     36 C          -5.8635   11.8899    0.2024 C.1     1  LIG1       -0.0691
     37 C          -6.0949   13.0633    0.3845 C.1     1  LIG1       -0.1139
     38 H          -6.3021   14.0958    0.5455 H       1  LIG1        0.1232
@<TRIPOS>BOND
     1    28    27    1
     2    27    26    3
     3    10     9    1
     4    26    22    1
     5     9     8    3
     6    33    32   ar
     7    33    29   ar
     8    34    32    1
     9    25    21    1
    10     8     3    1
    11    22    21   ar
    12    22    23   ar
    13    32    31   ar
    14    21    20   ar
    15     7     2    1
    16    15    14   ar
    17    15    11   ar
    18    29    23    1
    19    29    30   ar
    20    23    24   ar
    21     3     2   ar
    22     3     4   ar
    23     2     1   ar
    24    20    14    1
    25    20    24   ar
    26    31    30   ar
    27    31    36    1
    28    14    13   ar
    29    30    35    1
    30     4    11    1
    31     4     5   ar
    32    11    12   ar
    33     1     6    1
    34     1     5   ar
    35    36    37    3
    36    13    12   ar
    37    13    17    1
    38    12    16    1
    39    37    38    1
    40    17    18    3
    41    18    19    1
