@<TRIPOS>MOLECULE
mol_data/opt/b3lyp/geoms/mol2/5ae5ae5ae5ae-.out
 38 41 0 0 0
SMALL
GASTEIGER

@<TRIPOS>ATOM
      1 C          -2.1295   -1.9253    0.1429 C.ar    1  LIG1       -0.0225
      2 C          -0.7868   -1.9778   -0.0780 C.ar    1  LIG1       -0.0387
      3 C          -0.1642   -0.6838   -0.1130 C.ar    1  LIG1        0.0399
      4 C          -1.0755    0.3531    0.0928 C.ar    1  LIG1        0.0413
      5 S          -2.6847   -0.2945    0.3364 S.2     1  LIG1       -0.0949
      6 H          -2.8311   -2.7446    0.2098 H       1  LIG1        0.0694
      7 H          -0.2306   -2.8956   -0.2236 H       1  LIG1        0.0635
      8 C           1.2255   -0.5202   -0.3605 C.1     1  LIG1       -0.0685
      9 C           2.4142   -0.4304   -0.5742 C.1     1  LIG1       -0.1139
     10 H           3.4575   -0.3398   -0.7704 H       1  LIG1        0.1232
     11 C          -0.8373    1.7805    0.1288 C.ar    1  LIG1        0.0289
     12 C           0.3343    2.4531    0.3862 C.ar    1  LIG1       -0.0304
     13 C           0.2110    3.8754    0.3563 C.ar    1  LIG1        0.0405
     14 C          -1.0882    4.3024    0.0680 C.ar    1  LIG1        0.0419
     15 S          -2.1326    2.9239   -0.1945 S.2     1  LIG1       -0.0859
     16 H           1.2647    1.9526    0.6152 H       1  LIG1        0.0641
     17 C           1.3119    4.7303    0.6366 C.1     1  LIG1       -0.0685
     18 C           2.2774    5.4193    0.8806 C.1     1  LIG1       -0.1139
     19 H           3.1192    6.0330    1.1041 H       1  LIG1        0.1232
     20 C          -1.6040    5.6475   -0.0386 C.ar    1  LIG1        0.0289
     21 C          -0.9192    6.8207   -0.2609 C.ar    1  LIG1       -0.0304
     22 C          -1.7511    7.9791   -0.3264 C.ar    1  LIG1        0.0405
     23 C          -3.1055    7.6869   -0.1504 C.ar    1  LIG1        0.0419
     24 S          -3.3239    5.9750    0.1287 S.2     1  LIG1       -0.0859
     25 H           0.1520    6.8625   -0.3987 H       1  LIG1        0.0641
     26 C          -1.2197    9.2724   -0.5861 C.1     1  LIG1       -0.0685
     27 C          -0.7243   10.3547   -0.8080 C.1     1  LIG1       -0.1139
     28 H          -0.2990   11.3098   -1.0130 H       1  LIG1        0.1232
     29 C          -4.2417    8.5837   -0.1591 C.ar    1  LIG1        0.0283
     30 C          -4.2701    9.9393    0.0787 C.ar    1  LIG1       -0.0310
     31 C          -5.5816   10.5097   -0.0093 C.ar    1  LIG1        0.0323
     32 C          -6.5412    9.5657   -0.3131 C.ar    1  LIG1       -0.0083
     33 S          -5.8641    7.9929   -0.5099 S.2     1  LIG1       -0.0949
     34 H          -7.6029    9.7247   -0.4349 H       1  LIG1        0.0706
     35 H          -3.3890   10.5159    0.3227 H       1  LIG1        0.0641
     36 C          -5.8644   11.8894    0.2026 C.1     1  LIG1       -0.0691
     37 C          -6.0959   13.0630    0.3836 C.1     1  LIG1       -0.1139
     38 H          -6.3031   14.0956    0.5438 H       1  LIG1        0.1232
@<TRIPOS>BOND
     1    28    27    1
     2    27    26    3
     3    10     9    1
     4    26    22    1
     5     9     8    3
     6    33    32   ar
     7    33    29   ar
     8    34    32    1
     9    25    21    1
    10     8     3    1
    11    22    21   ar
    12    22    23   ar
    13    32    31   ar
    14    21    20   ar
    15     7     2    1
    16    15    14   ar
    17    15    11   ar
    18    29    23    1
    19    29    30   ar
    20    23    24   ar
    21     3     2   ar
    22     3     4   ar
    23     2     1   ar
    24    20    14    1
    25    20    24   ar
    26    31    30   ar
    27    31    36    1
    28    14    13   ar
    29    30    35    1
    30     4    11    1
    31     4     5   ar
    32    11    12   ar
    33     1     6    1
    34     1     5   ar
    35    36    37    3
    36    13    12   ar
    37    13    17    1
    38    37    38    1
    39    12    16    1
    40    17    18    3
    41    18    19    1
