@<TRIPOS>MOLECULE
mol_data/opt/b3lyp/geoms/mol2/5ae5ae-5ae-.out
 29 31 0 0 0
SMALL
GASTEIGER

@<TRIPOS>ATOM
      1 C          -2.0989   -1.9083   -0.0687 C.ar    1  LIG1       -0.0225
      2 C          -0.7585   -1.9262    0.1706 C.ar    1  LIG1       -0.0387
      3 C          -0.1647   -0.6182    0.1852 C.ar    1  LIG1        0.0399
      4 C          -1.0953    0.3935   -0.0552 C.ar    1  LIG1        0.0413
      5 S          -2.6864   -0.2943   -0.3055 S.2     1  LIG1       -0.0949
      6 H          -2.7816   -2.7440   -0.1265 H       1  LIG1        0.0694
      7 H          -0.1844   -2.8281    0.3435 H       1  LIG1        0.0635
      8 C           1.2176   -0.4186    0.4473 C.1     1  LIG1       -0.0685
      9 C           2.4010   -0.2981    0.6750 C.1     1  LIG1       -0.1139
     10 H           3.4392   -0.1797    0.8831 H       1  LIG1        0.1232
     11 C          -0.8878    1.8251   -0.1199 C.ar    1  LIG1        0.0289
     12 C           0.2706    2.5170   -0.3836 C.ar    1  LIG1       -0.0304
     13 C           0.1154    3.9374   -0.3856 C.ar    1  LIG1        0.0405
     14 C          -1.1938    4.3411   -0.1174 C.ar    1  LIG1        0.0419
     15 S          -2.2094    2.9473    0.1698 S.2     1  LIG1       -0.0859
     16 H           1.2134    2.0323   -0.5952 H       1  LIG1        0.0641
     17 C           1.1989    4.8116   -0.6755 C.1     1  LIG1       -0.0685
     18 C           2.1500    5.5180   -0.9256 C.1     1  LIG1       -0.1139
     19 H           2.9785    6.1476   -1.1545 H       1  LIG1        0.1232
     20 C          -1.7400    5.6801   -0.0448 C.ar    1  LIG1        0.0283
     21 C          -1.0838    6.8647    0.2011 C.ar    1  LIG1       -0.0310
     22 C          -1.9468    8.0088    0.2030 C.ar    1  LIG1        0.0323
     23 C          -3.2619    7.6702   -0.0413 C.ar    1  LIG1       -0.0083
     24 S          -3.4594    5.9759   -0.2899 S.2     1  LIG1       -0.0949
     25 H          -4.1124    8.3345   -0.0914 H       1  LIG1        0.0706
     26 H          -0.0209    6.9244    0.3885 H       1  LIG1        0.0641
     27 C          -1.5007    9.3405    0.4401 C.1     1  LIG1       -0.0691
     28 C          -1.1134   10.4687    0.6421 C.1     1  LIG1       -0.1139
     29 H          -0.7758   11.4632    0.8207 H       1  LIG1        0.1232
@<TRIPOS>BOND
     1    19    18    1
     2    18    17    3
     3    17    13    1
     4    16    12    1
     5    13    12   ar
     6    13    14   ar
     7    12    11   ar
     8     5     1   ar
     9     5     4   ar
    10    24    20   ar
    11    24    23   ar
    12     6     1    1
    13    11     4    1
    14    11    15   ar
    15    14    20    1
    16    14    15   ar
    17    25    23    1
    18     1     2   ar
    19     4     3   ar
    20    20    21   ar
    21    23    22   ar
    22     2     3   ar
    23     2     7    1
    24     3     8    1
    25    21    22   ar
    26    21    26    1
    27    22    27    1
    28    27    28    3
    29     8     9    3
    30    28    29    1
    31     9    10    1
