@<TRIPOS>MOLECULE
mol_data/opt/b3lyp/geoms/mol2/5ae5ae-.out
 20 21 0 0 0
SMALL
GASTEIGER

@<TRIPOS>ATOM
      1 C          -2.1092   -1.8441    0.0003 C.ar    1  LIG1       -0.0225
      2 C          -0.7486   -1.8489   -0.0005 C.ar    1  LIG1       -0.0387
      3 C          -0.1726   -0.5321   -0.0003 C.ar    1  LIG1        0.0399
      4 C          -1.1378    0.4768    0.0007 C.ar    1  LIG1        0.0413
      5 S          -2.7415   -0.2300    0.0013 S.2     1  LIG1       -0.0949
      6 H          -2.7853   -2.6872    0.0003 H       1  LIG1        0.0694
      7 H          -0.1436   -2.7471   -0.0012 H       1  LIG1        0.0635
      8 C           1.2356   -0.3414   -0.0011 C.1     1  LIG1       -0.0685
      9 C           2.4429   -0.2431   -0.0018 C.1     1  LIG1       -0.1139
     10 H           3.5038   -0.1439   -0.0024 H       1  LIG1        0.1232
     11 C          -0.9647    1.9175    0.0012 C.ar    1  LIG1        0.0282
     12 C           0.2014    2.6497    0.0010 C.ar    1  LIG1       -0.0310
     13 C          -0.0084    4.0677    0.0016 C.ar    1  LIG1        0.0323
     14 C          -1.3472    4.3973    0.0023 C.ar    1  LIG1       -0.0083
     15 S          -2.3561    2.9995    0.0021 S.2     1  LIG1       -0.0949
     16 H          -1.7820    5.3862    0.0028 H       1  LIG1        0.0706
     17 H           1.1832    2.1994    0.0004 H       1  LIG1        0.0641
     18 C           1.0453    5.0261    0.0016 C.1     1  LIG1       -0.0691
     19 C           1.9460    5.8339    0.0015 C.1     1  LIG1       -0.1139
     20 H           2.7368    6.5477    0.0014 H       1  LIG1        0.1232
@<TRIPOS>BOND
     1    10     9    1
     2     9     8    3
     3     7     2    1
     4     8     3    1
     5     2     3   ar
     6     2     1   ar
     7     3     4   ar
     8     1     6    1
     9     1     5   ar
    10    17    12    1
    11     4    11    1
    12     4     5   ar
    13    12    11   ar
    14    12    13   ar
    15    11    15   ar
    16    20    19    1
    17    19    18    3
    18    18    13    1
    19    13    14   ar
    20    15    14   ar
    21    14    16    1
