@<TRIPOS>MOLECULE
mol_data/opt/b3lyp/geoms/mol2/5ae5ae5ae-.out
 29 31 0 0 0
SMALL
GASTEIGER

@<TRIPOS>ATOM
      1 C          -2.1064   -1.9065   -0.0580 C.ar    1  LIG1       -0.0225
      2 C          -0.7634   -1.9213   -0.2824 C.ar    1  LIG1       -0.0387
      3 C          -0.1680   -0.6141   -0.2629 C.ar    1  LIG1        0.0399
      4 C          -1.1001    0.3936   -0.0120 C.ar    1  LIG1        0.0413
      5 S          -2.6948   -0.2970    0.2055 S.2     1  LIG1       -0.0949
      6 H          -2.7907   -2.7423   -0.0255 H       1  LIG1        0.0694
      7 H          -0.1884   -2.8202   -0.4676 H       1  LIG1        0.0635
      8 C           1.2175   -0.4110   -0.5050 C.1     1  LIG1       -0.0685
      9 C           2.4036   -0.2875   -0.7164 C.1     1  LIG1       -0.1139
     10 H           3.4443   -0.1664   -0.9098 H       1  LIG1        0.1232
     11 C          -0.8915    1.8232    0.0853 C.ar    1  LIG1        0.0289
     12 C           0.2648    2.5076    0.3765 C.ar    1  LIG1       -0.0304
     13 C           0.1114    3.9279    0.4066 C.ar    1  LIG1        0.0405
     14 C          -1.1941    4.3391    0.1322 C.ar    1  LIG1        0.0419
     15 S          -2.2083    2.9532   -0.1957 S.2     1  LIG1       -0.0859
     16 H           1.2045    2.0171    0.5884 H       1  LIG1        0.0641
     17 C           1.1926    4.7943    0.7271 C.1     1  LIG1       -0.0685
     18 C           2.1415    5.4941    1.0027 C.1     1  LIG1       -0.1139
     19 H           2.9679    6.1178    1.2541 H       1  LIG1        0.1232
     20 C          -1.7378    5.6802    0.0815 C.ar    1  LIG1        0.0283
     21 C          -1.0773    6.8687   -0.1320 C.ar    1  LIG1       -0.0310
     22 C          -1.9388    8.0139   -0.1196 C.ar    1  LIG1        0.0323
     23 C          -3.2570    7.6722    0.1024 C.ar    1  LIG1       -0.0083
     24 S          -3.4594    5.9734    0.3134 S.2     1  LIG1       -0.0949
     25 H          -4.1072    8.3366    0.1566 H       1  LIG1        0.0706
     26 H          -0.0123    6.9307   -0.3059 H       1  LIG1        0.0641
     27 C          -1.4884    9.3496   -0.3235 C.1     1  LIG1       -0.0691
     28 C          -1.0973   10.4813   -0.4973 C.1     1  LIG1       -0.1139
     29 H          -0.7563   11.4787   -0.6512 H       1  LIG1        0.1232
@<TRIPOS>BOND
     1    10     9    1
     2     9     8    3
     3    29    28    1
     4     8     3    1
     5    28    27    3
     6     7     2    1
     7    27    22    1
     8    26    21    1
     9     2     3   ar
    10     2     1   ar
    11     3     4   ar
    12    15    11   ar
    13    15    14   ar
    14    21    22   ar
    15    21    20   ar
    16    22    23   ar
    17     1     6    1
    18     1     5   ar
    19     4    11    1
    20     4     5   ar
    21    20    14    1
    22    20    24   ar
    23    11    12   ar
    24    23    25    1
    25    23    24   ar
    26    14    13   ar
    27    12    13   ar
    28    12    16    1
    29    13    17    1
    30    17    18    3
    31    18    19    1
