@<TRIPOS>MOLECULE
mol_data/opt/b3lyp/geoms/mol2/5ae5ae-5ae-5ae.out
 38 41 0 0 0
SMALL
GASTEIGER

@<TRIPOS>ATOM
      1 C          -2.1245   -1.9248   -0.1962 C.ar    1  LIG1       -0.0225
      2 C          -0.7864   -1.9778    0.0506 C.ar    1  LIG1       -0.0387
      3 C          -0.1650   -0.6838    0.1027 C.ar    1  LIG1        0.0399
      4 C          -1.0725    0.3537   -0.1165 C.ar    1  LIG1        0.0413
      5 S          -2.6764   -0.2933   -0.3939 S.2     1  LIG1       -0.0949
      6 H          -2.8245   -2.7439   -0.2799 H       1  LIG1        0.0694
      7 H          -0.2328   -2.8960    0.2033 H       1  LIG1        0.0635
      8 C           1.2196   -0.5210    0.3778 C.1     1  LIG1       -0.0685
      9 C           2.4040   -0.4320    0.6149 C.1     1  LIG1       -0.1139
     10 H           3.4432   -0.3420    0.8317 H       1  LIG1        0.1232
     11 C          -0.8340    1.7813   -0.1422 C.ar    1  LIG1        0.0289
     12 C           0.3423    2.4551   -0.3742 C.ar    1  LIG1       -0.0304
     13 C           0.2181    3.8773   -0.3411 C.ar    1  LIG1        0.0405
     14 C          -1.0866    4.3028   -0.0765 C.ar    1  LIG1        0.0419
     15 S          -2.1356    2.9231    0.1602 S.2     1  LIG1       -0.0859
     16 H           1.2771    1.9556   -0.5869 H       1  LIG1        0.0641
     17 C           1.3240    4.7334   -0.5966 C.1     1  LIG1       -0.0685
     18 C           2.2938    5.4237   -0.8190 C.1     1  LIG1       -0.1139
     19 H           3.1396    6.0384   -1.0235 H       1  LIG1        0.1232
     20 C          -1.6048    5.6474    0.0253 C.ar    1  LIG1        0.0289
     21 C          -0.9247    6.8198    0.2657 C.ar    1  LIG1       -0.0304
     22 C          -1.7581    7.9778    0.3195 C.ar    1  LIG1        0.0405
     23 C          -3.1087    7.6862    0.1160 C.ar    1  LIG1        0.0419
     24 S          -3.3211    5.9753   -0.1743 S.2     1  LIG1       -0.0859
     25 H           0.1435    6.8613    0.4246 H       1  LIG1        0.0641
     26 C          -1.2321    9.2701    0.5948 C.1     1  LIG1       -0.0685
     27 C          -0.7415   10.3516    0.8308 C.1     1  LIG1       -0.1139
     28 H          -0.3205   11.3060    1.0480 H       1  LIG1        0.1232
     29 C          -4.2450    8.5827    0.1060 C.ar    1  LIG1        0.0283
     30 C          -4.2690    9.9393   -0.1266 C.ar    1  LIG1       -0.0310
     31 C          -5.5821   10.5091   -0.0620 C.ar    1  LIG1        0.0323
     32 C          -6.5473    9.5638    0.2189 C.ar    1  LIG1       -0.0083
     33 S          -5.8739    7.9903    0.4224 S.2     1  LIG1       -0.0949
     34 H          -7.6112    9.7221    0.3204 H       1  LIG1        0.0706
     35 H          -3.3834   10.5170   -0.3509 H       1  LIG1        0.0641
     36 C          -5.8610   11.8897   -0.2736 C.1     1  LIG1       -0.0691
     37 C          -6.0891   13.0640   -0.4544 C.1     1  LIG1       -0.1139
     38 H          -6.2933   14.0972   -0.6143 H       1  LIG1        0.1232
@<TRIPOS>BOND
     1    19    18    1
     2    18    17    3
     3    38    37    1
     4    17    13    1
     5    16    12    1
     6    37    36    3
     7     5     1   ar
     8     5     4   ar
     9    12    13   ar
    10    12    11   ar
    11    35    30    1
    12    13    14   ar
    13     6     1    1
    14    36    31    1
    15     1     2   ar
    16    24    20   ar
    17    24    23   ar
    18    11     4    1
    19    11    15   ar
    20    30    31   ar
    21    30    29   ar
    22     4     3   ar
    23    14    20    1
    24    14    15   ar
    25    31    32   ar
    26    20    21   ar
    27     2     3   ar
    28     2     7    1
    29     3     8    1
    30    29    23    1
    31    29    33   ar
    32    23    22   ar
    33    32    34    1
    34    32    33   ar
    35    21    22   ar
    36    21    25    1
    37    22    26    1
    38     8     9    3
    39    26    27    3
    40     9    10    1
    41    27    28    1
