@<TRIPOS>MOLECULE
mol_data/opt/b3lyp/geoms/mol2/5ae5ae-5ae.out
 29 31 0 0 0
SMALL
GASTEIGER

@<TRIPOS>ATOM
      1 C          -2.1352   -1.8905    0.0006 C.ar    1  LIG1       -0.0225
      2 C          -0.7749   -1.9344   -0.0003 C.ar    1  LIG1       -0.0387
      3 C          -0.1611   -0.6355   -0.0002 C.ar    1  LIG1        0.0399
      4 C          -1.0984    0.4012    0.0008 C.ar    1  LIG1        0.0413
      5 S          -2.7220   -0.2594    0.0016 S.2     1  LIG1       -0.0949
      6 H          -2.8348   -2.7141    0.0007 H       1  LIG1        0.0694
      7 H          -0.1964   -2.8498   -0.0011 H       1  LIG1        0.0635
      8 C           1.2513   -0.4841   -0.0011 C.1     1  LIG1       -0.0685
      9 C           2.4610   -0.4181   -0.0019 C.1     1  LIG1       -0.1139
     10 H           3.5242   -0.3486   -0.0027 H       1  LIG1        0.1232
     11 C          -0.8840    1.8327    0.0012 C.ar    1  LIG1        0.0289
     12 C           0.2995    2.5346    0.0009 C.ar    1  LIG1       -0.0304
     13 C           0.1419    3.9539    0.0015 C.ar    1  LIG1        0.0405
     14 C          -1.1965    4.3562    0.0023 C.ar    1  LIG1        0.0419
     15 S          -2.2408    2.9519    0.0023 S.2     1  LIG1       -0.0859
     16 H           1.2693    2.0586    0.0002 H       1  LIG1        0.0641
     17 C           1.2704    4.8189    0.0012 C.1     1  LIG1       -0.0685
     18 C           2.2672    5.5067    0.0010 C.1     1  LIG1       -0.1139
     19 H           3.1383    6.1203    0.0006 H       1  LIG1        0.1232
     20 C          -1.7592    5.6898    0.0031 C.ar    1  LIG1        0.0283
     21 C          -1.1085    6.9050    0.0032 C.ar    1  LIG1       -0.0310
     22 C          -1.9930    8.0315    0.0041 C.ar    1  LIG1        0.0323
     23 C          -3.3197    7.6541    0.0045 C.ar    1  LIG1       -0.0083
     24 S          -3.5044    5.9405    0.0039 S.2     1  LIG1       -0.0949
     25 H          -4.1872    8.2980    0.0052 H       1  LIG1        0.0706
     26 H          -0.0326    7.0003    0.0028 H       1  LIG1        0.0641
     27 C          -1.5534    9.3864    0.0044 C.1     1  LIG1       -0.0691
     28 C          -1.1719   10.5345    0.0047 C.1     1  LIG1       -0.1139
     29 H          -0.8393   11.5465    0.0052 H       1  LIG1        0.1232
@<TRIPOS>BOND
     1    10     9    1
     2     9     8    3
     3     8     3    1
     4     7     2    1
     5     2     3   ar
     6     2     1   ar
     7     3     4   ar
     8    16    12    1
     9     1     6    1
    10     1     5   ar
    11    19    18    1
    12     4    11    1
    13     4     5   ar
    14    12    11   ar
    15    12    13   ar
    16    18    17    3
    17    11    15   ar
    18    17    13    1
    19    13    14   ar
    20    15    14   ar
    21    14    20    1
    22    26    21    1
    23    20    21   ar
    24    20    24   ar
    25    21    22   ar
    26    24    23   ar
    27    22    27    1
    28    22    23   ar
    29    27    28    3
    30    23    25    1
    31    28    29    1
