@<TRIPOS>MOLECULE
mol_data/opt/b3lyp/geoms/mol2/5ae5ae.out
 20 21 0 0 0
SMALL
GASTEIGER

@<TRIPOS>ATOM
      1 C          -2.1005   -1.8302    0.2775 C.ar    1  LIG1       -0.0225
      2 C          -0.7511   -1.8496    0.0964 C.ar    1  LIG1       -0.0387
      3 C          -0.1770   -0.5398   -0.0464 C.ar    1  LIG1        0.0399
      4 C          -1.1310    0.4733    0.0358 C.ar    1  LIG1        0.0413
      5 S          -2.7204   -0.2110    0.3008 S.2     1  LIG1       -0.0949
      6 H          -2.7727   -2.6670    0.4039 H       1  LIG1        0.0694
      7 H          -0.1568   -2.7540    0.0529 H       1  LIG1        0.0635
      8 C           1.2125   -0.3427   -0.2723 C.1     1  LIG1       -0.0685
      9 C           2.4025   -0.2235   -0.4624 C.1     1  LIG1       -0.1139
     10 H           3.4467   -0.1062   -0.6385 H       1  LIG1        0.1232
     11 C          -0.9456    1.9094   -0.0573 C.ar    1  LIG1        0.0282
     12 C           0.1801    2.6488    0.2185 C.ar    1  LIG1       -0.0310
     13 C           0.0054    4.0578    0.0169 C.ar    1  LIG1        0.0323
     14 C          -1.2686    4.3684   -0.4109 C.ar    1  LIG1       -0.0083
     15 S          -2.2526    2.9637   -0.5880 S.2     1  LIG1       -0.0949
     16 H          -1.6661    5.3483   -0.6324 H       1  LIG1        0.0706
     17 H           1.1050    2.2106    0.5665 H       1  LIG1        0.0641
     18 C           1.0254    5.0257    0.2434 C.1     1  LIG1       -0.0691
     19 C           1.8979    5.8410    0.4379 C.1     1  LIG1       -0.1139
     20 H           2.6638    6.5611    0.6099 H       1  LIG1        0.1232
@<TRIPOS>BOND
     1    10     9    1
     2    16    14    1
     3    15    14   ar
     4    15    11   ar
     5     9     8    3
     6    14    13   ar
     7     8     3    1
     8    11     4    1
     9    11    12   ar
    10     3     4   ar
    11     3     2   ar
    12    13    12   ar
    13    13    18    1
    14     4     5   ar
    15     7     2    1
    16     2     1   ar
    17    12    17    1
    18    18    19    3
    19     1     5   ar
    20     1     6    1
    21    19    20    1
