@<TRIPOS>MOLECULE
mol_data/opt/b3lyp/geoms/mol2/5ae5ae-5ae-5ae-.out
 38 41 0 0 0
SMALL
GASTEIGER

@<TRIPOS>ATOM
      1 C          -2.0944   -1.9154   -0.4436 C.ar    1  LIG1       -0.0225
      2 C          -0.7799   -1.9766   -0.0934 C.ar    1  LIG1       -0.0387
      3 C          -0.1670   -0.6851    0.0467 C.ar    1  LIG1        0.0399
      4 C          -1.0562    0.3590   -0.2124 C.ar    1  LIG1        0.0413
      5 S          -2.6319   -0.2784   -0.6353 S.2     1  LIG1       -0.0949
      6 H          -2.7840   -2.7313   -0.6072 H       1  LIG1        0.0694
      7 H          -0.2384   -2.8993    0.0749 H       1  LIG1        0.0635
      8 C           1.1912   -0.5314    0.4353 C.1     1  LIG1       -0.0685
      9 C           2.3529   -0.4503    0.7681 C.1     1  LIG1       -0.1139
     10 H           3.3716   -0.3674    1.0690 H       1  LIG1        0.1232
     11 C          -0.8191    1.7867   -0.1761 C.ar    1  LIG1        0.0289
     12 C           0.3706    2.4665   -0.2932 C.ar    1  LIG1       -0.0304
     13 C           0.2415    3.8871   -0.2274 C.ar    1  LIG1        0.0405
     14 C          -1.0809    4.3052   -0.0547 C.ar    1  LIG1        0.0419
     15 S          -2.1428    2.9196    0.0561 S.2     1  LIG1       -0.0859
     16 H           1.3203    1.9732   -0.4458 H       1  LIG1        0.0641
     17 C           1.3626    4.7500   -0.3682 C.1     1  LIG1       -0.0685
     18 C           2.3457    5.4462   -0.4919 C.1     1  LIG1       -0.1139
     19 H           3.2040    6.0664   -0.6099 H       1  LIG1        0.1232
     20 C          -1.6081    5.6464    0.0460 C.ar    1  LIG1        0.0289
     21 C          -0.9514    6.8107    0.3748 C.ar    1  LIG1       -0.0304
     22 C          -1.7885    7.9670    0.3970 C.ar    1  LIG1        0.0405
     23 C          -3.1181    7.6824    0.0778 C.ar    1  LIG1        0.0419
     24 S          -3.3036    5.9811   -0.2797 S.2     1  LIG1       -0.0859
     25 H           0.1007    6.8467    0.6194 H       1  LIG1        0.0641
     26 C          -1.2885    9.2502    0.7519 C.1     1  LIG1       -0.0685
     27 C          -0.8204   10.3238    1.0585 C.1     1  LIG1       -0.1139
     28 H          -0.4196   11.2710    1.3370 H       1  LIG1        0.1232
     29 C          -4.2516    8.5794    0.0044 C.ar    1  LIG1        0.0283
     30 C          -4.2595    9.9424   -0.1891 C.ar    1  LIG1       -0.0310
     31 C          -5.5747   10.5107   -0.2119 C.ar    1  LIG1        0.0323
     32 C          -6.5574    9.5580   -0.0365 C.ar    1  LIG1       -0.0083
     33 S          -5.8994    7.9788    0.1730 S.2     1  LIG1       -0.0949
     34 H          -7.6263    9.7138   -0.0150 H       1  LIG1        0.0706
     35 H          -3.3600   10.5259   -0.3252 H       1  LIG1        0.0641
     36 C          -5.8383   11.8972   -0.4039 C.1     1  LIG1       -0.0691
     37 C          -6.0534   13.0765   -0.5673 C.1     1  LIG1       -0.1139
     38 H          -6.2461   14.1141   -0.7122 H       1  LIG1        0.1232
@<TRIPOS>BOND
     1    38    37    1
     2     5     1   ar
     3     5     4   ar
     4    19    18    1
     5     6     1    1
     6    37    36    3
     7    18    17    3
     8    16    12    1
     9     1     2   ar
    10    36    31    1
    11    17    13    1
    12    35    30    1
    13    12    13   ar
    14    12    11   ar
    15    24    20   ar
    16    24    23   ar
    17    13    14   ar
    18     4    11    1
    19     4     3   ar
    20    31    30   ar
    21    31    32   ar
    22    30    29   ar
    23    11    15   ar
    24     2     3   ar
    25     2     7    1
    26    14    20    1
    27    14    15   ar
    28    32    34    1
    29    32    33   ar
    30    29    23    1
    31    29    33   ar
    32    20    21   ar
    33     3     8    1
    34    23    22   ar
    35    21    22   ar
    36    21    25    1
    37    22    26    1
    38     8     9    3
    39    26    27    3
    40     9    10    1
    41    27    28    1
