@<TRIPOS>MOLECULE
mol_data/opt/b3lyp/geoms/mol2/5af.out
 10 10 0 0 0
SMALL
GASTEIGER

@<TRIPOS>ATOM
      1 C          -2.0645   -1.7541   -0.0001 C.ar    1  LIG1       -0.0208
      2 C          -0.7012   -1.7110   -0.0005 C.ar    1  LIG1       -0.0131
      3 C          -0.2013   -0.3694   -0.0002 C.ar    1  LIG1        0.1238
      4 C          -1.1921    0.5774    0.0004 C.ar    1  LIG1        0.0172
      5 S          -2.7659   -0.1668    0.0009 S.2     1  LIG1       -0.1014
      6 H          -2.7033   -2.6253   -0.0002 H       1  LIG1        0.0694
      7 H          -1.0942    1.6542    0.0007 H       1  LIG1        0.0730
      8 H          -0.0551   -2.5803   -0.0010 H       1  LIG1        0.0659
      9 O           1.1482   -0.1561   -0.0006 O.3     1  LIG1       -0.5062
     10 H           1.3169    0.7949   -0.0005 H       1  LIG1        0.2922
@<TRIPOS>BOND
     1     8     2    1
     2     9    10    1
     3     9     3    1
     4     2     3   ar
     5     2     1   ar
     6     3     4   ar
     7     6     1    1
     8     1     5   ar
     9     4     7    1
    10     4     5   ar
