@<TRIPOS>MOLECULE
mol_data/opt/b3lyp/geoms/mol2/5af5af5af5af-.out
 34 37 0 0 0
SMALL
GASTEIGER

@<TRIPOS>ATOM
      1 C          -1.7660   -2.1416    0.1634 C.ar    1  LIG1       -0.0202
      2 C          -0.4619   -2.0029   -0.2155 C.ar    1  LIG1       -0.0125
      3 C          -0.0479   -0.6383   -0.2398 C.ar    1  LIG1        0.1321
      4 C          -1.0430    0.2523    0.1285 C.ar    1  LIG1        0.0674
      5 S          -2.5221   -0.6198    0.5050 S.2     1  LIG1       -0.0924
      6 H          -2.3334   -3.0557    0.2666 H       1  LIG1        0.0695
      7 H           0.1959   -2.8212   -0.4801 H       1  LIG1        0.0659
      8 O           1.2131   -0.3112   -0.6259 O.3     1  LIG1       -0.5056
      9 H           1.2581    0.6496   -0.7514 H       1  LIG1        0.2922
     10 C          -0.9284    1.6924    0.1928 C.ar    1  LIG1        0.0336
     11 C           0.1745    2.4320    0.5719 C.ar    1  LIG1       -0.0041
     12 C          -0.0326    3.8351    0.4755 C.ar    1  LIG1        0.1327
     13 C          -1.2939    4.1875    0.0240 C.ar    1  LIG1        0.0680
     14 S          -2.2392    2.7442   -0.3142 S.2     1  LIG1       -0.0833
     15 H           1.0756    2.0056    0.9964 H       1  LIG1        0.0666
     16 O           0.9444    4.6965    0.8600 O.3     1  LIG1       -0.5056
     17 H           0.5636    5.5867    0.9230 H       1  LIG1        0.2922
     18 C          -1.8090    5.5284   -0.1280 C.ar    1  LIG1        0.0336
     19 C          -1.1147    6.6559   -0.5229 C.ar    1  LIG1       -0.0041
     20 C          -1.9128    7.8325   -0.5213 C.ar    1  LIG1        0.1327
     21 C          -3.2239    7.6219   -0.1314 C.ar    1  LIG1        0.0679
     22 S          -3.4713    5.9292    0.2713 S.2     1  LIG1       -0.0833
     23 H          -0.0973    6.6447   -0.8959 H       1  LIG1        0.0666
     24 O          -1.3850    9.0161   -0.9279 O.3     1  LIG1       -0.5056
     25 H          -2.1095    9.6522   -1.0396 H       1  LIG1        0.2922
     26 C          -4.2748    8.6154   -0.0784 C.ar    1  LIG1        0.0330
     27 C          -4.1615    9.9378    0.2987 C.ar    1  LIG1       -0.0047
     28 C          -5.3879   10.6597    0.1812 C.ar    1  LIG1        0.1245
     29 C          -6.4292    9.8929   -0.2720 C.ar    1  LIG1        0.0178
     30 S          -5.9158    8.2615   -0.5962 S.2     1  LIG1       -0.0923
     31 H          -7.4601   10.1810   -0.4225 H       1  LIG1        0.0730
     32 H          -3.2658   10.3744    0.7250 H       1  LIG1        0.0666
     33 O          -5.4219   11.9774    0.5320 O.3     1  LIG1       -0.5062
     34 H          -6.3216   12.3121    0.4242 H       1  LIG1        0.2922
@<TRIPOS>BOND
     1    25    24    1
     2    24    20    1
     3    23    19    1
     4     9     8    1
     5     8     3    1
     6    30    29   ar
     7    30    26   ar
     8    19    20   ar
     9    19    18   ar
    10    20    21   ar
    11     7     2    1
    12    31    29    1
    13    14    13   ar
    14    14    10   ar
    15    29    28   ar
    16     3     2   ar
    17     3     4   ar
    18     2     1   ar
    19    21    26    1
    20    21    22   ar
    21    18    13    1
    22    18    22   ar
    23    26    27   ar
    24    13    12   ar
    25     4    10    1
    26     4     5   ar
    27     1     6    1
    28     1     5   ar
    29    28    27   ar
    30    28    33    1
    31    10    11   ar
    32    27    32    1
    33    34    33    1
    34    12    11   ar
    35    12    16    1
    36    11    15    1
    37    16    17    1
