@<TRIPOS>MOLECULE
mol_data/opt/b3lyp/geoms/mol2/5af5af5af-.out
 26 28 0 0 0
SMALL
GASTEIGER

@<TRIPOS>ATOM
      1 C          -1.9173   -2.0178    0.0849 C.ar    1  LIG1       -0.0202
      2 C          -0.6194   -1.8971   -0.3203 C.ar    1  LIG1       -0.0125
      3 C          -0.1755   -0.5416   -0.3174 C.ar    1  LIG1        0.1321
      4 C          -1.1414    0.3599    0.0975 C.ar    1  LIG1        0.0674
      5 S          -2.6306   -0.4894    0.4851 S.2     1  LIG1       -0.0924
      6 H          -2.5029   -2.9217    0.1761 H       1  LIG1        0.0695
      7 H           0.0138   -2.7221   -0.6221 H       1  LIG1        0.0659
      8 O           1.0839   -0.2310   -0.7231 O.3     1  LIG1       -0.5056
      9 H           1.1475    0.7322   -0.8193 H       1  LIG1        0.2922
     10 C          -0.9921    1.7954    0.1987 C.ar    1  LIG1        0.0336
     11 C           0.1330    2.4984    0.5807 C.ar    1  LIG1       -0.0041
     12 C          -0.0433    3.9087    0.5258 C.ar    1  LIG1        0.1327
     13 C          -1.3016    4.3015    0.1052 C.ar    1  LIG1        0.0679
     14 S          -2.2846    2.8911   -0.2596 S.2     1  LIG1       -0.0833
     15 H           1.0307    2.0391    0.9777 H       1  LIG1        0.0666
     16 O           0.9594    4.7382    0.9158 O.3     1  LIG1       -0.5056
     17 H           0.6013    5.6371    0.9900 H       1  LIG1        0.2922
     18 C          -1.7872    5.6608   -0.0017 C.ar    1  LIG1        0.0330
     19 C          -1.0838    6.7745   -0.4117 C.ar    1  LIG1       -0.0047
     20 C          -1.8517    7.9767   -0.3451 C.ar    1  LIG1        0.1245
     21 C          -3.1319    7.7806    0.1020 C.ar    1  LIG1        0.0178
     22 S          -3.4159    6.1060    0.4837 S.2     1  LIG1       -0.0923
     23 H          -3.9222    8.5089    0.2181 H       1  LIG1        0.0730
     24 H          -0.0831    6.7435   -0.8268 H       1  LIG1        0.0666
     25 O          -1.2817    9.1539   -0.7328 O.3     1  LIG1       -0.5062
     26 H          -1.9337    9.8626   -0.6576 H       1  LIG1        0.2922
@<TRIPOS>BOND
     1    24    19    1
     2     9     8    1
     3    25    26    1
     4    25    20    1
     5     8     3    1
     6     7     2    1
     7    19    20   ar
     8    19    18   ar
     9    20    21   ar
    10     2     3   ar
    11     2     1   ar
    12     3     4   ar
    13    14    13   ar
    14    14    10   ar
    15    18    13    1
    16    18    22   ar
    17     1     6    1
    18     1     5   ar
    19     4    10    1
    20     4     5   ar
    21    21    23    1
    22    21    22   ar
    23    13    12   ar
    24    10    11   ar
    25    12    11   ar
    26    12    16    1
    27    11    15    1
    28    16    17    1
