@<TRIPOS>MOLECULE
mol_data/opt/b3lyp/geoms/mol2/5af5af-5af.out
 26 28 0 0 0
SMALL
GASTEIGER

@<TRIPOS>ATOM
      1 C          -1.8517   -1.9898    0.5796 C.ar    1  LIG1       -0.0202
      2 C          -0.7071   -1.9183   -0.1607 C.ar    1  LIG1       -0.0125
      3 C          -0.2800   -0.5731   -0.3678 C.ar    1  LIG1        0.1321
      4 C          -1.1034    0.3701    0.2236 C.ar    1  LIG1        0.0674
      5 S          -2.4359   -0.4265    1.0476 S.2     1  LIG1       -0.0924
      6 H          -2.3914   -2.8757    0.8831 H       1  LIG1        0.0695
      7 H          -0.1749   -2.7720   -0.5614 H       1  LIG1        0.0659
      8 O           0.8270   -0.3115   -1.1116 O.3     1  LIG1       -0.5056
      9 H           0.8610    0.6417   -1.2881 H       1  LIG1        0.2922
     10 C          -0.9346    1.8069    0.1817 C.ar    1  LIG1        0.0336
     11 C           0.2506    2.5143    0.2083 C.ar    1  LIG1       -0.0041
     12 C           0.0654    3.9205    0.0982 C.ar    1  LIG1        0.1327
     13 C          -1.2596    4.3070    0.0038 C.ar    1  LIG1        0.0679
     14 S          -2.3036    2.8923    0.0119 S.2     1  LIG1       -0.0833
     15 H           1.2230    2.0650    0.3724 H       1  LIG1        0.0666
     16 O           1.1397    4.7522    0.0894 O.3     1  LIG1       -0.5056
     17 H           0.8330    5.6462   -0.1302 H       1  LIG1        0.2922
     18 C          -1.7549    5.6638   -0.0967 C.ar    1  LIG1        0.0330
     19 C          -1.2565    6.7892    0.5261 C.ar    1  LIG1       -0.0047
     20 C          -1.9498    7.9834    0.1623 C.ar    1  LIG1        0.1245
     21 C          -2.9736    7.7698   -0.7232 C.ar    1  LIG1        0.0178
     22 S          -3.0894    6.0882   -1.1571 S.2     1  LIG1       -0.0923
     23 H          -3.6682    8.4893   -1.1334 H       1  LIG1        0.0730
     24 H          -0.4801    6.7721    1.2821 H       1  LIG1        0.0666
     25 O          -1.5681    9.1706    0.7151 O.3     1  LIG1       -0.5062
     26 H          -2.1485    9.8725    0.3933 H       1  LIG1        0.2922
@<TRIPOS>BOND
     1     9     8    1
     2    22    21   ar
     3    22    18   ar
     4    23    21    1
     5     8     3    1
     6    21    20   ar
     7     7     2    1
     8     3     2   ar
     9     3     4   ar
    10     2     1   ar
    11    17    16    1
    12    18    13    1
    13    18    19   ar
    14    13    14   ar
    15    13    12   ar
    16    14    10   ar
    17    16    12    1
    18    12    11   ar
    19    20    19   ar
    20    20    25    1
    21    10    11   ar
    22    10     4    1
    23    11    15    1
    24     4     5   ar
    25    26    25    1
    26    19    24    1
    27     1     6    1
    28     1     5   ar
