@<TRIPOS>MOLECULE
mol_data/opt/b3lyp/geoms/mol2/5af5af-5af5af-.out
 34 37 0 0 0
SMALL
GASTEIGER

@<TRIPOS>ATOM
      1 C          -1.5085   -2.0673    1.0306 C.ar    1  LIG1       -0.0202
      2 C          -0.6445   -2.0114   -0.0246 C.ar    1  LIG1       -0.0125
      3 C          -0.3240   -0.6706   -0.3908 C.ar    1  LIG1        0.1321
      4 C          -0.9444    0.2853    0.3961 C.ar    1  LIG1        0.0674
      5 S          -1.9496   -0.4943    1.6092 S.2     1  LIG1       -0.0924
      6 H          -1.9149   -2.9469    1.5097 H       1  LIG1        0.0695
      7 H          -0.2449   -2.8736   -0.5437 H       1  LIG1        0.0659
      8 O           0.4991   -0.4261   -1.4441 O.3     1  LIG1       -0.5056
      9 H           0.4579    0.5197   -1.6552 H       1  LIG1        0.2922
     10 C          -0.8208    1.7209    0.2650 C.ar    1  LIG1        0.0336
     11 C           0.3025    2.4377   -0.0966 C.ar    1  LIG1       -0.0041
     12 C           0.0702    3.8380   -0.1789 C.ar    1  LIG1        0.1327
     13 C          -1.2252    4.2128    0.1357 C.ar    1  LIG1        0.0680
     14 S          -2.1924    2.7901    0.5019 S.2     1  LIG1       -0.0833
     15 H           1.2849    2.0010   -0.2327 H       1  LIG1        0.0666
     16 O           1.0750    4.6754   -0.5452 O.3     1  LIG1       -0.5056
     17 H           0.7002    5.5560   -0.7039 H       1  LIG1        0.2922
     18 C          -1.7488    5.5599    0.1638 C.ar    1  LIG1        0.0336
     19 C          -1.0856    6.7127    0.5375 C.ar    1  LIG1       -0.0041
     20 C          -1.8795    7.8843    0.3991 C.ar    1  LIG1        0.1327
     21 C          -3.1614    7.6434   -0.0632 C.ar    1  LIG1        0.0679
     22 S          -3.3796    5.9270   -0.3731 S.2     1  LIG1       -0.0833
     23 H          -0.0918    6.7305    0.9692 H       1  LIG1        0.0666
     24 O          -1.3614    9.1011    0.7091 O.3     1  LIG1       -0.5056
     25 H          -1.9900    9.7832    0.4242 H       1  LIG1        0.2922
     26 C          -4.1974    8.6315   -0.2790 C.ar    1  LIG1        0.0330
     27 C          -4.4590    9.7542    0.4788 C.ar    1  LIG1       -0.0047
     28 C          -5.5217   10.5493   -0.0478 C.ar    1  LIG1        0.1245
     29 C          -6.0713   10.0334   -1.1923 C.ar    1  LIG1        0.0178
     30 S          -5.2693    8.5642   -1.6687 S.2     1  LIG1       -0.0923
     31 H          -6.8991   10.4171   -1.7720 H       1  LIG1        0.0730
     32 H          -3.9779    9.9751    1.4246 H       1  LIG1        0.0666
     33 O          -5.8944   11.6841    0.6106 O.3     1  LIG1       -0.5062
     34 H          -6.6439   12.0864    0.1527 H       1  LIG1        0.2922
@<TRIPOS>BOND
     1    31    29    1
     2    30    29   ar
     3    30    26   ar
     4     9     8    1
     5     8     3    1
     6    29    28   ar
     7    17    16    1
     8    16    12    1
     9     7     2    1
    10     3     2   ar
    11     3     4   ar
    12    22    21   ar
    13    22    18   ar
    14    26    21    1
    15    26    27   ar
    16    15    11    1
    17    12    11   ar
    18    12    13   ar
    19    11    10   ar
    20    21    20   ar
    21    28    27   ar
    22    28    33    1
    23     2     1   ar
    24    13    18    1
    25    13    14   ar
    26    34    33    1
    27    18    19   ar
    28    10     4    1
    29    10    14   ar
    30     4     5   ar
    31    20    19   ar
    32    20    24    1
    33    25    24    1
    34    27    32    1
    35    19    23    1
    36     1     6    1
    37     1     5   ar
