@<TRIPOS>MOLECULE
mol_data/opt/b3lyp/geoms/mol2/5af5af5af-5af-.out
 34 37 0 0 0
SMALL
GASTEIGER

@<TRIPOS>ATOM
      1 C          -1.7922   -2.1312   -0.1587 C.ar    1  LIG1       -0.0202
      2 C          -0.4649   -1.9798   -0.4394 C.ar    1  LIG1       -0.0125
      3 C          -0.0450   -0.6197   -0.3514 C.ar    1  LIG1        0.1321
      4 C          -1.0594    0.2545    0.0031 C.ar    1  LIG1        0.0674
      5 S          -2.5639   -0.6272    0.2245 S.2     1  LIG1       -0.0924
      6 H          -2.3687   -3.0453   -0.1505 H       1  LIG1        0.0695
      7 H           0.2063   -2.7856   -0.7090 H       1  LIG1        0.0659
      8 O           1.2404   -0.2794   -0.6308 O.3     1  LIG1       -0.5056
      9 H           1.2973    0.6869   -0.6941 H       1  LIG1        0.2922
     10 C          -0.9438    1.6873    0.1619 C.ar    1  LIG1        0.0336
     11 C           0.1332    2.3937    0.6601 C.ar    1  LIG1       -0.0041
     12 C          -0.0619    3.8017    0.6356 C.ar    1  LIG1        0.1327
     13 C          -1.2878    4.1906    0.1218 C.ar    1  LIG1        0.0680
     14 S          -2.2126    2.7780   -0.3683 S.2     1  LIG1       -0.0833
     15 H           1.0015    1.9346    1.1180 H       1  LIG1        0.0666
     16 O           0.8896    4.6310    1.1373 O.3     1  LIG1       -0.5056
     17 H           0.5076    5.5180    1.2303 H       1  LIG1        0.2922
     18 C          -1.7850    5.5430    0.0130 C.ar    1  LIG1        0.0336
     19 C          -1.0593    6.6849   -0.2668 C.ar    1  LIG1       -0.0041
     20 C          -1.8496    7.8670   -0.2505 C.ar    1  LIG1        0.1327
     21 C          -3.1878    7.6451    0.0219 C.ar    1  LIG1        0.0679
     22 S          -3.4722    5.9330    0.3036 S.2     1  LIG1       -0.0833
     23 H          -0.0131    6.6875   -0.5492 H       1  LIG1        0.0666
     24 O          -1.2757    9.0754   -0.4872 O.3     1  LIG1       -0.5056
     25 H          -1.9299    9.7671   -0.2996 H       1  LIG1        0.2922
     26 C          -4.2308    8.6473    0.0831 C.ar    1  LIG1        0.0330
     27 C          -4.3654    9.7699   -0.7074 C.ar    1  LIG1       -0.0047
     28 C          -5.4831   10.5802   -0.3425 C.ar    1  LIG1        0.1245
     29 C          -6.1995   10.0760    0.7113 C.ar    1  LIG1        0.0178
     30 S          -5.4938    8.5993    1.3029 S.2     1  LIG1       -0.0923
     31 H          -7.0976   10.4723    1.1639 H       1  LIG1        0.0730
     32 H          -3.7496    9.9808   -1.5740 H       1  LIG1        0.0666
     33 O          -5.7420   11.7166   -1.0509 O.3     1  LIG1       -0.5062
     34 H          -6.5444   12.1302   -0.7069 H       1  LIG1        0.2922
@<TRIPOS>BOND
     1    32    27    1
     2    33    34    1
     3    33    28    1
     4     7     2    1
     5    27    28   ar
     6    27    26   ar
     7     9     8    1
     8     8     3    1
     9    23    19    1
    10    24    25    1
    11    24    20    1
    12     2     3   ar
    13     2     1   ar
    14    14    13   ar
    15    14    10   ar
    16     3     4   ar
    17    28    29   ar
    18    19    20   ar
    19    19    18   ar
    20    20    21   ar
    21     1     6    1
    22     1     5   ar
    23     4    10    1
    24     4     5   ar
    25    18    13    1
    26    18    22   ar
    27    21    26    1
    28    21    22   ar
    29    26    30   ar
    30    13    12   ar
    31    10    11   ar
    32    12    11   ar
    33    12    16    1
    34    11    15    1
    35    29    31    1
    36    29    30   ar
    37    16    17    1
