@<TRIPOS>MOLECULE
mol_data/opt/b3lyp/geoms/mol2/5af5af5af.out
 26 28 0 0 0
SMALL
GASTEIGER

@<TRIPOS>ATOM
      1 C          -1.9200   -2.0171    0.0833 C.ar    1  LIG1       -0.0202
      2 C          -0.6219   -1.8975   -0.3218 C.ar    1  LIG1       -0.0125
      3 C          -0.1771   -0.5422   -0.3195 C.ar    1  LIG1        0.1321
      4 C          -1.1426    0.3601    0.0947 C.ar    1  LIG1        0.0674
      5 S          -2.6322   -0.4881    0.4829 S.2     1  LIG1       -0.0924
      6 H          -2.5061   -2.9206    0.1747 H       1  LIG1        0.0695
      7 H           0.0107   -2.7230   -0.6231 H       1  LIG1        0.0659
      8 O           1.0825   -0.2325   -0.7252 O.3     1  LIG1       -0.5056
      9 H           1.1468    0.7306   -0.8215 H       1  LIG1        0.2922
     10 C          -0.9924    1.7954    0.1954 C.ar    1  LIG1        0.0336
     11 C           0.1332    2.4980    0.5770 C.ar    1  LIG1       -0.0041
     12 C          -0.0425    3.9084    0.5219 C.ar    1  LIG1        0.1327
     13 C          -1.3008    4.3016    0.1016 C.ar    1  LIG1        0.0679
     14 S          -2.2846    2.8917   -0.2628 S.2     1  LIG1       -0.0833
     15 H           1.0308    2.0383    0.9736 H       1  LIG1        0.0666
     16 O           0.9607    4.7377    0.9112 O.3     1  LIG1       -0.5056
     17 H           0.6025    5.6365    0.9864 H       1  LIG1        0.2922
     18 C          -1.7859    5.6612   -0.0050 C.ar    1  LIG1        0.0330
     19 C          -1.0823    6.7747   -0.4153 C.ar    1  LIG1       -0.0047
     20 C          -1.8500    7.9770   -0.3485 C.ar    1  LIG1        0.1245
     21 C          -3.1301    7.7812    0.0991 C.ar    1  LIG1        0.0178
     22 S          -3.4144    6.1067    0.4810 S.2     1  LIG1       -0.0923
     23 H          -3.9202    8.5097    0.2153 H       1  LIG1        0.0730
     24 H          -0.0817    6.7433   -0.8303 H       1  LIG1        0.0666
     25 O          -1.2799    9.1540   -0.7364 O.3     1  LIG1       -0.5062
     26 H          -1.9319    9.8628   -0.6618 H       1  LIG1        0.2922
@<TRIPOS>BOND
     1    24    19    1
     2     9     8    1
     3    25    26    1
     4    25    20    1
     5     8     3    1
     6     7     2    1
     7    19    20   ar
     8    19    18   ar
     9    20    21   ar
    10     2     3   ar
    11     2     1   ar
    12     3     4   ar
    13    14    13   ar
    14    14    10   ar
    15    18    13    1
    16    18    22   ar
    17     1     6    1
    18     1     5   ar
    19     4    10    1
    20     4     5   ar
    21    21    23    1
    22    21    22   ar
    23    13    12   ar
    24    10    11   ar
    25    12    11   ar
    26    12    16    1
    27    11    15    1
    28    16    17    1
