@<TRIPOS>MOLECULE
mol_data/opt/b3lyp/geoms/mol2/5af5af-5af5af.out
 34 37 0 0 0
SMALL
GASTEIGER

@<TRIPOS>ATOM
      1 C          -1.5132   -2.0726    0.9961 C.ar    1  LIG1       -0.0202
      2 C          -0.6427   -2.0109   -0.0535 C.ar    1  LIG1       -0.0125
      3 C          -0.3201   -0.6682   -0.4104 C.ar    1  LIG1        0.1321
      4 C          -0.9454    0.2835    0.3778 C.ar    1  LIG1        0.0674
      5 S          -1.9581   -0.5028    1.5804 S.2     1  LIG1       -0.0924
      6 H          -1.9224   -2.9548    1.4679 H       1  LIG1        0.0695
      7 H          -0.2399   -2.8703   -0.5748 H       1  LIG1        0.0659
      8 O           0.5095   -0.4178   -1.4573 O.3     1  LIG1       -0.5056
      9 H           0.4685    0.5289   -1.6642 H       1  LIG1        0.2922
     10 C          -0.8213    1.7197    0.2553 C.ar    1  LIG1        0.0336
     11 C           0.3038    2.4388   -0.0964 C.ar    1  LIG1       -0.0041
     12 C           0.0716    3.8395   -0.1719 C.ar    1  LIG1        0.1327
     13 C          -1.2254    4.2124    0.1380 C.ar    1  LIG1        0.0680
     14 S          -2.1944    2.7875    0.4910 S.2     1  LIG1       -0.0833
     15 H           1.2869    2.0031   -0.2298 H       1  LIG1        0.0666
     16 O           1.0782    4.6791   -0.5282 O.3     1  LIG1       -0.5056
     17 H           0.7043    5.5607   -0.6830 H       1  LIG1        0.2922
     18 C          -1.7495    5.5592    0.1711 C.ar    1  LIG1        0.0336
     19 C          -1.0889    6.7099    0.5555 C.ar    1  LIG1       -0.0041
     20 C          -1.8824    7.8821    0.4196 C.ar    1  LIG1        0.1327
     21 C          -3.1616    7.6436   -0.0514 C.ar    1  LIG1        0.0679
     22 S          -3.3775    5.9290   -0.3726 S.2     1  LIG1       -0.0833
     23 H          -0.0975    6.7256    0.9928 H       1  LIG1        0.0666
     24 O          -1.3665    9.0972    0.7399 O.3     1  LIG1       -0.5056
     25 H          -1.9940    9.7807    0.4559 H       1  LIG1        0.2922
     26 C          -4.1966    8.6328   -0.2672 C.ar    1  LIG1        0.0330
     27 C          -4.4634    9.7503    0.4963 C.ar    1  LIG1       -0.0047
     28 C          -5.5232   10.5485   -0.0317 C.ar    1  LIG1        0.1245
     29 C          -6.0653   10.0399   -1.1830 C.ar    1  LIG1        0.0178
     30 S          -5.2597    8.5743   -1.6641 S.2     1  LIG1       -0.0923
     31 H          -6.8897   10.4271   -1.7653 H       1  LIG1        0.0730
     32 H          -3.9883    9.9652    1.4464 H       1  LIG1        0.0666
     33 O          -5.9005   11.6788    0.6319 O.3     1  LIG1       -0.5062
     34 H          -6.6469   12.0840    0.1716 H       1  LIG1        0.2922
@<TRIPOS>BOND
     1    31    29    1
     2     9     8    1
     3    30    29   ar
     4    30    26   ar
     5     8     3    1
     6    29    28   ar
     7    17    16    1
     8     7     2    1
     9    16    12    1
    10     3     2   ar
    11     3     4   ar
    12    22    21   ar
    13    22    18   ar
    14    26    21    1
    15    26    27   ar
    16    15    11    1
    17    12    11   ar
    18    12    13   ar
    19    11    10   ar
    20     2     1   ar
    21    21    20   ar
    22    28    27   ar
    23    28    33    1
    24    13    18    1
    25    13    14   ar
    26    18    19   ar
    27    34    33    1
    28    10     4    1
    29    10    14   ar
    30     4     5   ar
    31    20    19   ar
    32    20    24    1
    33    25    24    1
    34    27    32    1
    35    19    23    1
    36     1     6    1
    37     1     5   ar
