@<TRIPOS>MOLECULE
mol_data/opt/b3lyp/geoms/mol2/5af5af.out
 18 19 0 0 0
SMALL
GASTEIGER

@<TRIPOS>ATOM
      1 C          -2.0173   -1.8700    0.2875 C.ar    1  LIG1       -0.0202
      2 C          -0.7038   -1.8241   -0.0808 C.ar    1  LIG1       -0.0125
      3 C          -0.2234   -0.4863   -0.2058 C.ar    1  LIG1        0.1321
      4 C          -1.1770    0.4762    0.0737 C.ar    1  LIG1        0.0674
      5 S          -2.7003   -0.2902    0.4970 S.2     1  LIG1       -0.0924
      6 H          -2.6304   -2.7448    0.4521 H       1  LIG1        0.0695
      7 H          -0.0835   -2.6915   -0.2694 H       1  LIG1        0.0659
      8 O           1.0579   -0.2494   -0.5936 O.3     1  LIG1       -0.5056
      9 H           1.1522    0.7000   -0.7705 H       1  LIG1        0.2922
     10 C          -0.9894    1.9126    0.0243 C.ar    1  LIG1        0.0330
     11 C           0.1243    2.6280    0.4095 C.ar    1  LIG1       -0.0047
     12 C          -0.0020    4.0310    0.1727 C.ar    1  LIG1        0.1245
     13 C          -1.2049    4.3832   -0.3804 C.ar    1  LIG1        0.0178
     14 S          -2.2044    2.9844   -0.6540 S.2     1  LIG1       -0.0923
     15 H          -1.5659    5.3711   -0.6301 H       1  LIG1        0.0730
     16 H           0.9785    2.1952    0.9170 H       1  LIG1        0.0666
     17 O           1.0242    4.8609    0.5192 O.3     1  LIG1       -0.5062
     18 H           0.7749    5.7731    0.3223 H       1  LIG1        0.2922
@<TRIPOS>BOND
     1     9     8    1
     2    14    13   ar
     3    14    10   ar
     4    15    13    1
     5     8     3    1
     6    13    12   ar
     7     7     2    1
     8     3     2   ar
     9     3     4   ar
    10     2     1   ar
    11    10     4    1
    12    10    11   ar
    13     4     5   ar
    14    12    11   ar
    15    12    17    1
    16     1     6    1
    17     1     5   ar
    18    18    17    1
    19    11    16    1
