@<TRIPOS>MOLECULE
mol_data/opt/b3lyp/geoms/mol2/5af5af-5af-5af-.out
 34 37 0 0 0
SMALL
GASTEIGER

@<TRIPOS>ATOM
      1 C          -1.5314   -2.1336    0.6700 C.ar    1  LIG1       -0.0202
      2 C          -0.5814   -1.9973   -0.3007 C.ar    1  LIG1       -0.0125
      3 C          -0.2511   -0.6316   -0.5463 C.ar    1  LIG1        0.1321
      4 C          -0.9513    0.2622    0.2468 C.ar    1  LIG1        0.0674
      5 S          -2.0443   -0.6080    1.3133 S.2     1  LIG1       -0.0924
      6 H          -1.9641   -3.0477    1.0513 H       1  LIG1        0.0695
      7 H          -0.1260   -2.8181   -0.8405 H       1  LIG1        0.0659
      8 O           0.6560   -0.3073   -1.5047 O.3     1  LIG1       -0.5056
      9 H           0.6169    0.6501   -1.6554 H       1  LIG1        0.2922
     10 C          -0.8372    1.7043    0.2251 C.ar    1  LIG1        0.0336
     11 C           0.3027    2.4536    0.0120 C.ar    1  LIG1       -0.0041
     12 C           0.0591    3.8543    0.0075 C.ar    1  LIG1        0.1327
     13 C          -1.2639    4.1956    0.2346 C.ar    1  LIG1        0.0680
     14 S          -2.2393    2.7432    0.4160 S.2     1  LIG1       -0.0833
     15 H           1.2990    2.0351   -0.0693 H       1  LIG1        0.0666
     16 O           1.0796    4.7237   -0.2107 O.3     1  LIG1       -0.5056
     17 H           0.7077    5.6111   -0.3352 H       1  LIG1        0.2922
     18 C          -1.8067    5.5326    0.3091 C.ar    1  LIG1        0.0336
     19 C          -1.1933    6.6627    0.8143 C.ar    1  LIG1       -0.0041
     20 C          -1.9903    7.8337    0.6913 C.ar    1  LIG1        0.1327
     21 C          -3.2205    7.6162    0.0955 C.ar    1  LIG1        0.0679
     22 S          -3.3861    5.9246   -0.3501 S.2     1  LIG1       -0.0833
     23 H          -0.2487    6.6559    1.3455 H       1  LIG1        0.0666
     24 O          -1.5445    9.0184    1.1839 O.3     1  LIG1       -0.5056
     25 H          -2.2839    9.6470    1.1858 H       1  LIG1        0.2922
     26 C          -4.2586    8.6018   -0.1180 C.ar    1  LIG1        0.0330
     27 C          -4.0995    9.9268   -0.4683 C.ar    1  LIG1       -0.0047
     28 C          -5.3360   10.6370   -0.5445 C.ar    1  LIG1        0.1245
     29 C          -6.4285    9.8589   -0.2642 C.ar    1  LIG1        0.0178
     30 S          -5.9572    8.2309    0.1329 S.2     1  LIG1       -0.0923
     31 H          -7.4730   10.1372   -0.2776 H       1  LIG1        0.0730
     32 H          -3.1517   10.3733   -0.7457 H       1  LIG1        0.0666
     33 O          -5.3266   11.9558   -0.8926 O.3     1  LIG1       -0.5062
     34 H          -6.2351   12.2822   -0.9268 H       1  LIG1        0.2922
@<TRIPOS>BOND
     1     9     8    1
     2     8     3    1
     3    34    33    1
     4    33    28    1
     5     7     2    1
     6    32    27    1
     7     3     2   ar
     8     3     4   ar
     9    28    27   ar
    10    28    29   ar
    11    27    26   ar
    12    22    21   ar
    13    22    18   ar
    14    17    16    1
    15     2     1   ar
    16    31    29    1
    17    29    30   ar
    18    16    12    1
    19    26    21    1
    20    26    30   ar
    21    15    11    1
    22    12    11   ar
    23    12    13   ar
    24    11    10   ar
    25    21    20   ar
    26    10     4    1
    27    10    14   ar
    28    13    18    1
    29    13    14   ar
    30     4     5   ar
    31    18    19   ar
    32     1     6    1
    33     1     5   ar
    34    20    19   ar
    35    20    24    1
    36    19    23    1
    37    24    25    1
