@<TRIPOS>MOLECULE
mol_data/opt/b3lyp/geoms/mol2/5af5af-.out
 18 19 0 0 0
SMALL
GASTEIGER

@<TRIPOS>ATOM
      1 C          -2.0161   -1.8701    0.2897 C.ar    1  LIG1       -0.0202
      2 C          -0.7050   -1.8239   -0.0874 C.ar    1  LIG1       -0.0125
      3 C          -0.2256   -0.4859   -0.2144 C.ar    1  LIG1        0.1321
      4 C          -1.1772    0.4763    0.0730 C.ar    1  LIG1        0.0674
      5 S          -2.6975   -0.2906    0.5057 S.2     1  LIG1       -0.0924
      6 H          -2.6280   -2.7451    0.4577 H       1  LIG1        0.0695
      7 H          -0.0861   -2.6910   -0.2812 H       1  LIG1        0.0659
      8 O           1.0528   -0.2486   -0.6113 O.3     1  LIG1       -0.5056
      9 H           1.1461    0.7010   -0.7873 H       1  LIG1        0.2922
     10 C          -0.9895    1.9127    0.0234 C.ar    1  LIG1        0.0330
     11 C           0.1275    2.6271    0.4011 C.ar    1  LIG1       -0.0047
     12 C           0.0002    4.0305    0.1670 C.ar    1  LIG1        0.1245
     13 C          -1.2066    4.3839   -0.3769 C.ar    1  LIG1        0.0178
     14 S          -2.2089    2.9861   -0.6446 S.2     1  LIG1       -0.0923
     15 H          -1.5689    5.3723   -0.6229 H       1  LIG1        0.0730
     16 H           0.9848    2.1932    0.9023 H       1  LIG1        0.0666
     17 O           1.0294    4.8594    0.5067 O.3     1  LIG1       -0.5062
     18 H           0.7788    5.7720    0.3134 H       1  LIG1        0.2922
@<TRIPOS>BOND
     1     9     8    1
     2    14    13   ar
     3    14    10   ar
     4    15    13    1
     5     8     3    1
     6    13    12   ar
     7     7     2    1
     8     3     2   ar
     9     3     4   ar
    10     2     1   ar
    11    10     4    1
    12    10    11   ar
    13     4     5   ar
    14    12    11   ar
    15    12    17    1
    16     1     6    1
    17     1     5   ar
    18    18    17    1
    19    11    16    1
