@<TRIPOS>MOLECULE
mol_data/opt/b3lyp/geoms/mol2/5af5af-5af-5af.out
 34 37 0 0 0
SMALL
GASTEIGER

@<TRIPOS>ATOM
      1 C          -1.5305   -2.1340    0.6667 C.ar    1  LIG1       -0.0202
      2 C          -0.5771   -1.9963   -0.3004 C.ar    1  LIG1       -0.0125
      3 C          -0.2466   -0.6302   -0.5433 C.ar    1  LIG1        0.1321
      4 C          -0.9501    0.2625    0.2482 C.ar    1  LIG1        0.0674
      5 S          -2.0465   -0.6095    1.3097 S.2     1  LIG1       -0.0924
      6 H          -1.9640   -3.0488    1.0456 H       1  LIG1        0.0695
      7 H          -0.1193   -2.8162   -0.8394 H       1  LIG1        0.0659
      8 O           0.6634   -0.3045   -1.4986 O.3     1  LIG1       -0.5056
      9 H           0.6256    0.6532   -1.6472 H       1  LIG1        0.2922
     10 C          -0.8367    1.7046    0.2283 C.ar    1  LIG1        0.0336
     11 C           0.3038    2.4546    0.0203 C.ar    1  LIG1       -0.0041
     12 C           0.0596    3.8552    0.0158 C.ar    1  LIG1        0.1327
     13 C          -1.2644    4.1958    0.2379 C.ar    1  LIG1        0.0680
     14 S          -2.2398    2.7429    0.4147 S.2     1  LIG1       -0.0833
     15 H           1.3005    2.0366   -0.0573 H       1  LIG1        0.0666
     16 O           1.0807    4.7251   -0.1977 O.3     1  LIG1       -0.5056
     17 H           0.7091    5.6125   -0.3228 H       1  LIG1        0.2922
     18 C          -1.8080    5.5325    0.3121 C.ar    1  LIG1        0.0336
     19 C          -1.1967    6.6624    0.8203 C.ar    1  LIG1       -0.0041
     20 C          -1.9941    7.8330    0.6964 C.ar    1  LIG1        0.1327
     21 C          -3.2225    7.6155    0.0971 C.ar    1  LIG1        0.0679
     22 S          -3.3858    5.9243   -0.3510 S.2     1  LIG1       -0.0833
     23 H          -0.2536    6.6556    1.3540 H       1  LIG1        0.0666
     24 O          -1.5503    9.0175    1.1915 O.3     1  LIG1       -0.5056
     25 H          -2.2899    9.6457    1.1918 H       1  LIG1        0.2922
     26 C          -4.2603    8.6009   -0.1187 C.ar    1  LIG1        0.0330
     27 C          -4.1007    9.9259   -0.4684 C.ar    1  LIG1       -0.0047
     28 C          -5.3371   10.6360   -0.5473 C.ar    1  LIG1        0.1245
     29 C          -6.4301    9.8577   -0.2698 C.ar    1  LIG1        0.0178
     30 S          -5.9596    8.2296    0.1277 S.2     1  LIG1       -0.0923
     31 H          -7.4746   10.1357   -0.2857 H       1  LIG1        0.0730
     32 H          -3.1522   10.3727   -0.7432 H       1  LIG1        0.0666
     33 O          -5.3270   11.9549   -0.8950 O.3     1  LIG1       -0.5062
     34 H          -6.2355   12.2812   -0.9314 H       1  LIG1        0.2922
@<TRIPOS>BOND
     1     9     8    1
     2     8     3    1
     3    34    33    1
     4    33    28    1
     5     7     2    1
     6    32    27    1
     7    28    27   ar
     8    28    29   ar
     9     3     2   ar
    10     3     4   ar
    11    27    26   ar
    12    22    21   ar
    13    22    18   ar
    14    17    16    1
    15     2     1   ar
    16    31    29    1
    17    29    30   ar
    18    16    12    1
    19    26    21    1
    20    26    30   ar
    21    15    11    1
    22    12    11   ar
    23    12    13   ar
    24    11    10   ar
    25    21    20   ar
    26    10     4    1
    27    10    14   ar
    28    13    18    1
    29    13    14   ar
    30     4     5   ar
    31    18    19   ar
    32     1     6    1
    33     1     5   ar
    34    20    19   ar
    35    20    24    1
    36    19    23    1
    37    24    25    1
