@<TRIPOS>MOLECULE
mol_data/opt/b3lyp/geoms/mol2/5af5af-5af-.out
 26 28 0 0 0
SMALL
GASTEIGER

@<TRIPOS>ATOM
      1 C          -1.8650   -1.9889    0.5739 C.ar    1  LIG1       -0.0202
      2 C          -0.7020   -1.9186   -0.1374 C.ar    1  LIG1       -0.0125
      3 C          -0.2702   -0.5737   -0.3366 C.ar    1  LIG1        0.1321
      4 C          -1.1084    0.3705    0.2318 C.ar    1  LIG1        0.0674
      5 S          -2.4610   -0.4247    1.0238 S.2     1  LIG1       -0.0924
      6 H          -2.4121   -2.8742    0.8655 H       1  LIG1        0.0695
      7 H          -0.1598   -2.7730   -0.5227 H       1  LIG1        0.0659
      8 O           0.8551   -0.3135   -1.0529 O.3     1  LIG1       -0.5056
      9 H           0.8928    0.6392   -1.2314 H       1  LIG1        0.2922
     10 C          -0.9390    1.8073    0.1909 C.ar    1  LIG1        0.0336
     11 C           0.2450    2.5150    0.2457 C.ar    1  LIG1       -0.0041
     12 C           0.0624    3.9209    0.1277 C.ar    1  LIG1        0.1327
     13 C          -1.2599    4.3069   -0.0007 C.ar    1  LIG1        0.0679
     14 S          -2.3034    2.8920   -0.0155 S.2     1  LIG1       -0.0833
     15 H           1.2131    2.0663    0.4348 H       1  LIG1        0.0666
     16 O           1.1364    4.7529    0.1442 O.3     1  LIG1       -0.5056
     17 H           0.8350    5.6464   -0.0844 H       1  LIG1        0.2922
     18 C          -1.7527    5.6634   -0.1168 C.ar    1  LIG1        0.0330
     19 C          -1.2707    6.7903    0.5163 C.ar    1  LIG1       -0.0047
     20 C          -1.9545    7.9836    0.1321 C.ar    1  LIG1        0.1245
     21 C          -2.9550    7.7678   -0.7791 C.ar    1  LIG1        0.0178
     22 S          -3.0592    6.0854   -1.2124 S.2     1  LIG1       -0.0923
     23 H          -3.6391    8.4864   -1.2084 H       1  LIG1        0.0730
     24 H          -0.5137    6.7750    1.2919 H       1  LIG1        0.0666
     25 O          -1.5874    9.1720    0.6920 O.3     1  LIG1       -0.5062
     26 H          -2.1585    9.8733    0.3529 H       1  LIG1        0.2922
@<TRIPOS>BOND
     1     9     8    1
     2    22    21   ar
     3    22    18   ar
     4    23    21    1
     5     8     3    1
     6    21    20   ar
     7     7     2    1
     8     3     2   ar
     9     3     4   ar
    10     2     1   ar
    11    18    13    1
    12    18    19   ar
    13    17    16    1
    14    14    13   ar
    15    14    10   ar
    16    13    12   ar
    17    12    16    1
    18    12    11   ar
    19    20    19   ar
    20    20    25    1
    21    10     4    1
    22    10    11   ar
    23     4     5   ar
    24    11    15    1
    25    26    25    1
    26    19    24    1
    27     1     6    1
    28     1     5   ar
