@<TRIPOS>MOLECULE
mol_data/opt/b3lyp/geoms/mol2/5af5af5af-5af.out
 34 37 0 0 0
SMALL
GASTEIGER

@<TRIPOS>ATOM
      1 C          -1.7877   -2.1307   -0.1765 C.ar    1  LIG1       -0.0202
      2 C          -0.4585   -1.9778   -0.4472 C.ar    1  LIG1       -0.0125
      3 C          -0.0400   -0.6177   -0.3520 C.ar    1  LIG1        0.1321
      4 C          -1.0574    0.2548   -0.0023 C.ar    1  LIG1        0.0674
      5 S          -2.5629   -0.6283    0.2057 S.2     1  LIG1       -0.0924
      6 H          -2.3637   -3.0452   -0.1754 H       1  LIG1        0.0695
      7 H           0.2151   -2.7824   -0.7144 H       1  LIG1        0.0659
      8 O           1.2473   -0.2759   -0.6209 O.3     1  LIG1       -0.5056
      9 H           1.3041    0.6906   -0.6810 H       1  LIG1        0.2922
     10 C          -0.9437    1.6872    0.1619 C.ar    1  LIG1        0.0336
     11 C           0.1294    2.3926    0.6698 C.ar    1  LIG1       -0.0041
     12 C          -0.0661    3.8006    0.6480 C.ar    1  LIG1        0.1327
     13 C          -1.2885    4.1905    0.1266 C.ar    1  LIG1        0.0680
     14 S          -2.2092    2.7789   -0.3742 S.2     1  LIG1       -0.0833
     15 H           0.9946    1.9325    1.1324 H       1  LIG1        0.0666
     16 O           0.8813    4.6288    1.1590 O.3     1  LIG1       -0.5056
     17 H           0.4983    5.5155    1.2515 H       1  LIG1        0.2922
     18 C          -1.7856    5.5430    0.0186 C.ar    1  LIG1        0.0336
     19 C          -1.0587    6.6861   -0.2530 C.ar    1  LIG1       -0.0041
     20 C          -1.8496    7.8677   -0.2382 C.ar    1  LIG1        0.1327
     21 C          -3.1895    7.6444    0.0251 C.ar    1  LIG1        0.0679
     22 S          -3.4749    5.9314    0.2996 S.2     1  LIG1       -0.0833
     23 H          -0.0108    6.6902   -0.5288 H       1  LIG1        0.0666
     24 O          -1.2748    9.0771   -0.4675 O.3     1  LIG1       -0.5056
     25 H          -1.9302    9.7680   -0.2816 H       1  LIG1        0.2922
     26 C          -4.2334    8.6459    0.0824 C.ar    1  LIG1        0.0330
     27 C          -4.3629    9.7712   -0.7051 C.ar    1  LIG1       -0.0047
     28 C          -5.4835   10.5798   -0.3452 C.ar    1  LIG1        0.1245
     29 C          -6.2071   10.0715    0.7016 C.ar    1  LIG1        0.0178
     30 S          -5.5049    8.5931    1.2931 S.2     1  LIG1       -0.0923
     31 H          -7.1086   10.4659    1.1493 H       1  LIG1        0.0730
     32 H          -3.7411    9.9854   -1.5666 H       1  LIG1        0.0666
     33 O          -5.7380   11.7186   -1.0515 O.3     1  LIG1       -0.5062
     34 H          -6.5430   12.1305   -0.7117 H       1  LIG1        0.2922
@<TRIPOS>BOND
     1    32    27    1
     2    33    34    1
     3    33    28    1
     4     7     2    1
     5    27    28   ar
     6    27    26   ar
     7     9     8    1
     8     8     3    1
     9    23    19    1
    10    24    25    1
    11    24    20    1
    12     2     3   ar
    13     2     1   ar
    14    14    13   ar
    15    14    10   ar
    16     3     4   ar
    17    28    29   ar
    18    19    20   ar
    19    19    18   ar
    20    20    21   ar
    21     1     6    1
    22     1     5   ar
    23     4    10    1
    24     4     5   ar
    25    18    13    1
    26    18    22   ar
    27    21    26    1
    28    21    22   ar
    29    26    30   ar
    30    13    12   ar
    31    10    11   ar
    32    12    11   ar
    33    12    16    1
    34    11    15    1
    35    29    31    1
    36    29    30   ar
    37    16    17    1
