@<TRIPOS>MOLECULE
mol_data/opt/b3lyp/geoms/mol2/5af5af5af5af.out
 34 37 0 0 0
SMALL
GASTEIGER

@<TRIPOS>ATOM
      1 C          -1.7704   -2.1423    0.1514 C.ar    1  LIG1       -0.0202
      2 C          -0.4633   -2.0033   -0.2165 C.ar    1  LIG1       -0.0125
      3 C          -0.0485   -0.6388   -0.2343 C.ar    1  LIG1        0.1321
      4 C          -1.0461    0.2514    0.1280 C.ar    1  LIG1        0.0674
      5 S          -2.5285   -0.6209    0.4907 S.2     1  LIG1       -0.0924
      6 H          -2.3392   -3.0563    0.2478 H       1  LIG1        0.0695
      7 H           0.1965   -2.8213   -0.4778 H       1  LIG1        0.0659
      8 O           1.2157   -0.3113   -0.6095 O.3     1  LIG1       -0.5056
      9 H           1.2620    0.6498   -0.7326 H       1  LIG1        0.2922
     10 C          -0.9314    1.6914    0.1962 C.ar    1  LIG1        0.0336
     11 C           0.1689    2.4297    0.5850 C.ar    1  LIG1       -0.0041
     12 C          -0.0369    3.8330    0.4901 C.ar    1  LIG1        0.1327
     13 C          -1.2946    4.1870    0.0301 C.ar    1  LIG1        0.0680
     14 S          -2.2379    2.7449   -0.3184 S.2     1  LIG1       -0.0833
     15 H           1.0666    2.0020    1.0155 H       1  LIG1        0.0666
     16 O           0.9377    4.6933    0.8834 O.3     1  LIG1       -0.5056
     17 H           0.5566    5.5835    0.9456 H       1  LIG1        0.2922
     18 C          -1.8081    5.5285   -0.1229 C.ar    1  LIG1        0.0336
     19 C          -1.1104    6.6564   -0.5105 C.ar    1  LIG1       -0.0041
     20 C          -1.9080    7.8335   -0.5118 C.ar    1  LIG1        0.1327
     21 C          -3.2218    7.6228   -0.1312 C.ar    1  LIG1        0.0679
     22 S          -3.4727    5.9294    0.2662 S.2     1  LIG1       -0.0833
     23 H          -0.0905    6.6454   -0.8763 H       1  LIG1        0.0666
     24 O          -1.3770    9.0179   -0.9122 O.3     1  LIG1       -0.5056
     25 H          -2.1006    9.6543   -1.0275 H       1  LIG1        0.2922
     26 C          -4.2727    8.6167   -0.0837 C.ar    1  LIG1        0.0330
     27 C          -4.1615    9.9382    0.2973 C.ar    1  LIG1       -0.0047
     28 C          -5.3869   10.6608    0.1727 C.ar    1  LIG1        0.1245
     29 C          -6.4251    9.8956   -0.2898 C.ar    1  LIG1        0.0178
     30 S          -5.9098    8.2647   -0.6145 S.2     1  LIG1       -0.0923
     31 H          -7.4550   10.1844   -0.4475 H       1  LIG1        0.0730
     32 H          -3.2688   10.3733    0.7308 H       1  LIG1        0.0666
     33 O          -5.4229   11.9777    0.5264 O.3     1  LIG1       -0.5062
     34 H          -6.3217   12.3129    0.4132 H       1  LIG1        0.2922
@<TRIPOS>BOND
     1    25    24    1
     2    24    20    1
     3    23    19    1
     4     9     8    1
     5    30    29   ar
     6    30    26   ar
     7     8     3    1
     8    20    19   ar
     9    20    21   ar
    10    19    18   ar
    11     7     2    1
    12    31    29    1
    13    14    13   ar
    14    14    10   ar
    15    29    28   ar
    16     3     2   ar
    17     3     4   ar
    18     2     1   ar
    19    21    26    1
    20    21    22   ar
    21    18    13    1
    22    18    22   ar
    23    26    27   ar
    24    13    12   ar
    25     4    10    1
    26     4     5   ar
    27     1     6    1
    28     1     5   ar
    29    28    27   ar
    30    28    33    1
    31    10    11   ar
    32    27    32    1
    33    34    33    1
    34    12    11   ar
    35    12    16    1
    36    11    15    1
    37    16    17    1
