@<TRIPOS>MOLECULE
mol_data/opt/b3lyp/geoms/mol2/5ag.out
 10 10 0 0 0
SMALL
GASTEIGER

@<TRIPOS>ATOM
      1 C          -2.1194   -1.7749    0.0000 C.ar    1  LIG1       -0.0233
      2 C          -0.7559   -1.7295   -0.0005 C.ar    1  LIG1       -0.0415
      3 C          -0.2484   -0.3876   -0.0003 C.ar    1  LIG1        0.0117
      4 C          -1.2439    0.5527    0.0005 C.ar    1  LIG1       -0.0112
      5 S          -2.8169   -0.1877    0.0008 S.2     1  LIG1       -0.1040
      6 H          -2.7578   -2.6475   -0.0000 H       1  LIG1        0.0694
      7 H          -1.1529    1.6294    0.0008 H       1  LIG1        0.0704
      8 H          -0.1249   -2.6104   -0.0011 H       1  LIG1        0.0634
      9 S           1.5106   -0.0898   -0.0008 S.3     1  LIG1       -0.1421
     10 H           1.4449    1.2555   -0.0006 H       1  LIG1        0.1071
@<TRIPOS>BOND
     1     8     2    1
     2     9    10    1
     3     9     3    1
     4     2     3   ar
     5     2     1   ar
     6     3     4   ar
     7     6     1    1
     8     1     5   ar
     9     4     5   ar
    10     4     7    1
