@<TRIPOS>MOLECULE
mol_data/opt/b3lyp/geoms/mol2/5ag5ag-.out
 18 19 0 0 0
SMALL
GASTEIGER

@<TRIPOS>ATOM
      1 C          -2.1077   -1.8480    0.3506 C.ar    1  LIG1       -0.0227
      2 C          -0.7921   -1.8743   -0.0090 C.ar    1  LIG1       -0.0409
      3 C          -0.2354   -0.5678   -0.1895 C.ar    1  LIG1        0.0200
      4 C          -1.1457    0.4465    0.0450 C.ar    1  LIG1        0.0390
      5 S          -2.7079   -0.2319    0.4873 S.2     1  LIG1       -0.0950
      6 H          -2.7623   -2.6876    0.5381 H       1  LIG1        0.0694
      7 H          -0.2279   -2.7871   -0.1603 H       1  LIG1        0.0634
      8 S           1.4606   -0.4049   -0.7029 S.3     1  LIG1       -0.1415
      9 H           1.3929    0.8978   -1.0446 H       1  LIG1        0.1071
     10 C          -0.9643    1.8885   -0.0292 C.ar    1  LIG1        0.0280
     11 C           0.0745    2.6479    0.4589 C.ar    1  LIG1       -0.0332
     12 C          -0.0760    4.0474    0.2061 C.ar    1  LIG1        0.0124
     13 C          -1.2324    4.3432   -0.4657 C.ar    1  LIG1       -0.0105
     14 S          -2.1494    2.9136   -0.8216 S.2     1  LIG1       -0.0950
     15 H          -1.6009    5.3116   -0.7732 H       1  LIG1        0.0704
     16 H           0.8995    2.2243    1.0193 H       1  LIG1        0.0640
     17 S           1.1646    5.1985    0.7658 S.3     1  LIG1       -0.1421
     18 H           0.5458    6.3162    0.3390 H       1  LIG1        0.1071
@<TRIPOS>BOND
     1     9     8    1
     2    14    13   ar
     3    14    10   ar
     4    15    13    1
     5     8     3    1
     6    13    12   ar
     7     3     2   ar
     8     3     4   ar
     9     7     2    1
    10    10     4    1
    11    10    11   ar
    12     2     1   ar
    13     4     5   ar
    14    12    11   ar
    15    12    17    1
    16    18    17    1
    17     1     5   ar
    18     1     6    1
    19    11    16    1
