@<TRIPOS>MOLECULE
mol_data/opt/b3lyp/geoms/mol2/5ag5ag-5ag-.out
 26 28 0 0 0
SMALL
GASTEIGER

@<TRIPOS>ATOM
      1 C          -2.0262   -1.9036    0.6961 C.ar    1  LIG1       -0.0227
      2 C          -0.8710   -1.9540   -0.0277 C.ar    1  LIG1       -0.0409
      3 C          -0.3244   -0.6599   -0.3011 C.ar    1  LIG1        0.0200
      4 C          -1.0785    0.3707    0.2323 C.ar    1  LIG1        0.0391
      5 S          -2.4825   -0.2788    1.0727 S.2     1  LIG1       -0.0950
      6 H          -2.6409   -2.7294    1.0258 H       1  LIG1        0.0694
      7 H          -0.4201   -2.8751   -0.3778 H       1  LIG1        0.0634
      8 S           1.1601   -0.5307   -1.2736 S.3     1  LIG1       -0.1415
      9 H           1.0415    0.7801   -1.5669 H       1  LIG1        0.1071
     10 C          -0.8576    1.8063    0.1771 C.ar    1  LIG1        0.0286
     11 C           0.3217    2.5006    0.3243 C.ar    1  LIG1       -0.0326
     12 C           0.1790    3.9147    0.2050 C.ar    1  LIG1        0.0206
     13 C          -1.1264    4.3158   -0.0192 C.ar    1  LIG1        0.0397
     14 S          -2.1836    2.9143   -0.1150 S.2     1  LIG1       -0.0861
     15 H           1.2669    2.0164    0.5383 H       1  LIG1        0.0640
     16 S           1.6234    4.9472    0.3344 S.3     1  LIG1       -0.1415
     17 H           1.0636    6.0576   -0.1874 H       1  LIG1        0.1071
     18 C          -1.6708    5.6546   -0.1754 C.ar    1  LIG1        0.0280
     19 C          -1.3801    6.7898    0.5481 C.ar    1  LIG1       -0.0332
     20 C          -2.1186    7.9382    0.1247 C.ar    1  LIG1        0.0124
     21 C          -2.9716    7.6673   -0.9126 C.ar    1  LIG1       -0.0105
     22 S          -2.8751    6.0064   -1.4044 S.2     1  LIG1       -0.0950
     23 H          -3.6467    8.3416   -1.4200 H       1  LIG1        0.0704
     24 H          -0.6964    6.7930    1.3886 H       1  LIG1        0.0640
     25 S          -1.8809    9.5077    0.9357 S.3     1  LIG1       -0.1421
     26 H          -2.8744   10.1624    0.3045 H       1  LIG1        0.1071
@<TRIPOS>BOND
     1     9     8    1
     2    23    21    1
     3    22    21   ar
     4    22    18   ar
     5     8     3    1
     6    21    20   ar
     7     7     2    1
     8     3     2   ar
     9     3     4   ar
    10    17    16    1
    11    18    13    1
    12    18    19   ar
    13    14    13   ar
    14    14    10   ar
    15     2     1   ar
    16    13    12   ar
    17    20    19   ar
    18    20    25    1
    19    10     4    1
    20    10    11   ar
    21    12    11   ar
    22    12    16    1
    23     4     5   ar
    24    26    25    1
    25    11    15    1
    26    19    24    1
    27     1     6    1
    28     1     5   ar
