@<TRIPOS>MOLECULE
mol_data/opt/b3lyp/geoms/mol2/5ag5ag.out
 18 19 0 0 0
SMALL
GASTEIGER

@<TRIPOS>ATOM
      1 C          -2.1114   -1.8468    0.3492 C.ar    1  LIG1       -0.0227
      2 C          -0.7924   -1.8745    0.0020 C.ar    1  LIG1       -0.0409
      3 C          -0.2337   -0.5687   -0.1764 C.ar    1  LIG1        0.0200
      4 C          -1.1455    0.4468    0.0469 C.ar    1  LIG1        0.0390
      5 S          -2.7120   -0.2301    0.4763 S.2     1  LIG1       -0.0950
      6 H          -2.7681   -2.6856    0.5323 H       1  LIG1        0.0694
      7 H          -0.2271   -2.7878   -0.1419 H       1  LIG1        0.0634
      8 S           1.4682   -0.4073   -0.6740 S.3     1  LIG1       -0.1415
      9 H           1.4027    0.8935   -1.0234 H       1  LIG1        0.1071
     10 C          -0.9635    1.8883   -0.0286 C.ar    1  LIG1        0.0280
     11 C           0.0713    2.6495    0.4656 C.ar    1  LIG1       -0.0332
     12 C          -0.0779    4.0483    0.2084 C.ar    1  LIG1        0.0124
     13 C          -1.2292    4.3419   -0.4732 C.ar    1  LIG1       -0.0105
     14 S          -2.1426    2.9112   -0.8329 S.2     1  LIG1       -0.0950
     15 H          -1.5957    5.3095   -0.7855 H       1  LIG1        0.0704
     16 H           0.8923    2.2278    1.0332 H       1  LIG1        0.0640
     17 S           1.1573    5.2007    0.7750 S.3     1  LIG1       -0.1421
     18 H           0.5426    6.3172    0.3391 H       1  LIG1        0.1071
@<TRIPOS>BOND
     1     9     8    1
     2    14    13   ar
     3    14    10   ar
     4    15    13    1
     5     8     3    1
     6    13    12   ar
     7     3     2   ar
     8     3     4   ar
     9     7     2    1
    10    10     4    1
    11    10    11   ar
    12     2     1   ar
    13     4     5   ar
    14    12    11   ar
    15    12    17    1
    16    18    17    1
    17     1     5   ar
    18     1     6    1
    19    11    16    1
