@<TRIPOS>MOLECULE
mol_data/opt/b3lyp/geoms/mol2/5ag5ag5ag-5ag-.out
 34 37 0 0 0
SMALL
GASTEIGER

@<TRIPOS>ATOM
      1 C          -2.1117   -1.9790   -0.0564 C.ar    1  LIG1       -0.0227
      2 C          -0.8059   -1.9819   -0.4513 C.ar    1  LIG1       -0.0409
      3 C          -0.2127   -0.6799   -0.4336 C.ar    1  LIG1        0.0200
      4 C          -1.0865    0.3080   -0.0128 C.ar    1  LIG1        0.0391
      5 S          -2.6599   -0.3912    0.3539 S.2     1  LIG1       -0.0950
      6 H          -2.7879   -2.8197    0.0109 H       1  LIG1        0.0694
      7 H          -0.2741   -2.8725   -0.7648 H       1  LIG1        0.0634
      8 S           1.4764   -0.4852   -0.9583 S.3     1  LIG1       -0.1415
      9 H           1.4255    0.8478   -1.1563 H       1  LIG1        0.1071
     10 C          -0.8644    1.7345    0.1463 C.ar    1  LIG1        0.0286
     11 C           0.2336    2.3813    0.6681 C.ar    1  LIG1       -0.0326
     12 C           0.1080    3.8008    0.6994 C.ar    1  LIG1        0.0206
     13 C          -1.0999    4.2547    0.1957 C.ar    1  LIG1        0.0397
     14 S          -2.0825    2.8974   -0.3372 S.2     1  LIG1       -0.0861
     15 H           1.0852    1.8543    1.0809 H       1  LIG1        0.0640
     16 S           1.4277    4.7712    1.3951 S.3     1  LIG1       -0.1415
     17 H           0.6995    5.8829    1.6237 H       1  LIG1        0.1071
     18 C          -1.6031    5.6104    0.0705 C.ar    1  LIG1        0.0286
     19 C          -0.9239    6.7499   -0.3006 C.ar    1  LIG1       -0.0326
     20 C          -1.7321    7.9241   -0.3178 C.ar    1  LIG1        0.0206
     21 C          -3.0514    7.6859    0.0268 C.ar    1  LIG1        0.0397
     22 S          -3.2826    5.9850    0.4059 S.2     1  LIG1       -0.0861
     23 H           0.1225    6.7471   -0.5807 H       1  LIG1        0.0640
     24 S          -0.9877    9.4849   -0.7401 S.3     1  LIG1       -0.1415
     25 H          -1.9920   10.2597   -0.2826 H       1  LIG1        0.1071
     26 C          -4.1688    8.6118    0.1106 C.ar    1  LIG1        0.0280
     27 C          -4.5170    9.6181   -0.7628 C.ar    1  LIG1       -0.0332
     28 C          -5.6896   10.3335   -0.3669 C.ar    1  LIG1        0.0124
     29 C          -6.2294    9.8617    0.8006 C.ar    1  LIG1       -0.0105
     30 S          -5.3033    8.5460    1.4494 S.2     1  LIG1       -0.0950
     31 H          -7.1124   10.2069    1.3195 H       1  LIG1        0.0704
     32 H          -3.9794    9.8107   -1.6835 H       1  LIG1        0.0640
     33 S          -6.3043   11.6730   -1.3691 S.3     1  LIG1       -0.1421
     34 H          -7.3975   11.9347   -0.6270 H       1  LIG1        0.1071
@<TRIPOS>BOND
     1    32    27    1
     2    33    34    1
     3    33    28    1
     4     9     8    1
     5     8     3    1
     6     7     2    1
     7    27    28   ar
     8    27    26   ar
     9    24    20    1
    10    24    25    1
    11    23    19    1
    12     2     3   ar
    13     2     1   ar
    14     3     4   ar
    15    28    29   ar
    16    14    10   ar
    17    14    13   ar
    18    20    19   ar
    19    20    21   ar
    20    19    18   ar
    21     1     6    1
    22     1     5   ar
    23     4    10    1
    24     4     5   ar
    25    21    26    1
    26    21    22   ar
    27    18    13    1
    28    18    22   ar
    29    26    30   ar
    30    10    11   ar
    31    13    12   ar
    32    11    12   ar
    33    11    15    1
    34    12    16    1
    35    29    31    1
    36    29    30   ar
    37    16    17    1
