@<TRIPOS>MOLECULE
mol_data/opt/b3lyp/geoms/mol2/5ag5ag-5ag-5ag-.out
 34 37 0 0 0
SMALL
GASTEIGER

@<TRIPOS>ATOM
      1 C          -1.7227   -1.9824    0.9381 C.ar    1  LIG1       -0.0227
      2 C          -0.8631   -1.9984   -0.1211 C.ar    1  LIG1       -0.0409
      3 C          -0.4263   -0.6916   -0.5078 C.ar    1  LIG1        0.0200
      4 C          -0.9621    0.3135    0.2787 C.ar    1  LIG1        0.0391
      5 S          -2.0236   -0.3758    1.5020 S.2     1  LIG1       -0.0950
      6 H          -2.2031   -2.8238    1.4173 H       1  LIG1        0.0694
      7 H          -0.5548   -2.9029   -0.6321 H       1  LIG1        0.0634
      8 S           0.6659   -0.5168   -1.9013 S.3     1  LIG1       -0.1415
      9 H           0.4575    0.8006   -2.1000 H       1  LIG1        0.1071
     10 C          -0.7616    1.7510    0.2094 C.ar    1  LIG1        0.0286
     11 C           0.4052    2.4470   -0.0131 C.ar    1  LIG1       -0.0326
     12 C           0.2423    3.8631   -0.0212 C.ar    1  LIG1        0.0206
     13 C          -1.0619    4.2652    0.2158 C.ar    1  LIG1        0.0397
     14 S          -2.1022    2.8609    0.4150 S.2     1  LIG1       -0.0861
     15 H           1.3644    1.9607   -0.1434 H       1  LIG1        0.0640
     16 S           1.6582    4.8958   -0.3341 S.3     1  LIG1       -0.1415
     17 H           0.9691    6.0119   -0.6472 H       1  LIG1        0.1071
     18 C          -1.6190    5.6024    0.3029 C.ar    1  LIG1        0.0286
     19 C          -1.0760    6.7256    0.8873 C.ar    1  LIG1       -0.0326
     20 C          -1.9145    7.8761    0.8164 C.ar    1  LIG1        0.0206
     21 C          -3.1162    7.6390    0.1710 C.ar    1  LIG1        0.0397
     22 S          -3.1956    5.9688   -0.3696 S.2     1  LIG1       -0.0861
     23 H          -0.1302    6.7158    1.4152 H       1  LIG1        0.0640
     24 S          -1.3732    9.3932    1.5737 S.3     1  LIG1       -0.1415
     25 H          -2.5837    9.9864    1.6073 H       1  LIG1        0.1071
     26 C          -4.2260    8.5415   -0.0840 C.ar    1  LIG1        0.0280
     27 C          -4.1891    9.8520   -0.5063 C.ar    1  LIG1       -0.0332
     28 C          -5.4848   10.4362   -0.6589 C.ar    1  LIG1        0.0124
     29 C          -6.4981    9.5642   -0.3593 C.ar    1  LIG1       -0.0105
     30 S          -5.8880    8.0167    0.1335 S.2     1  LIG1       -0.0950
     31 H          -7.5645    9.7362   -0.3955 H       1  LIG1        0.0704
     32 H          -3.2668   10.3682   -0.7446 H       1  LIG1        0.0640
     33 S          -5.6491   12.1268   -1.1989 S.3     1  LIG1       -0.1421
     34 H          -6.9945   12.1413   -1.2603 H       1  LIG1        0.1071
@<TRIPOS>BOND
     1     9     8    1
     2     8     3    1
     3    34    33    1
     4    33    28    1
     5    32    27    1
     6    28    27   ar
     7    28    29   ar
     8    17    16    1
     9     7     2    1
    10     3     2   ar
    11     3     4   ar
    12    27    26   ar
    13    31    29    1
    14    22    21   ar
    15    22    18   ar
    16    29    30   ar
    17    16    12    1
    18    15    11    1
    19     2     1   ar
    20    26    30   ar
    21    26    21    1
    22    12    11   ar
    23    12    13   ar
    24    11    10   ar
    25    21    20   ar
    26    10     4    1
    27    10    14   ar
    28    13    18    1
    29    13    14   ar
    30     4     5   ar
    31    18    19   ar
    32    20    19   ar
    33    20    24    1
    34    19    23    1
    35     1     6    1
    36     1     5   ar
    37    24    25    1
