@<TRIPOS>MOLECULE
mol_data/opt/b3lyp/geoms/mol2/5ag5ag-5ag5ag.out
 34 37 0 0 0
SMALL
GASTEIGER

@<TRIPOS>ATOM
      1 C          -1.7396   -1.9066    1.2327 C.ar    1  LIG1       -0.0227
      2 C          -0.9323   -1.9966    0.1367 C.ar    1  LIG1       -0.0409
      3 C          -0.4968   -0.7210   -0.3442 C.ar    1  LIG1        0.0200
      4 C          -0.9804    0.3355    0.4079 C.ar    1  LIG1        0.0391
      5 S          -1.9912   -0.2661    1.7174 S.2     1  LIG1       -0.0950
      6 H          -2.2078   -2.7117    1.7814 H       1  LIG1        0.0694
      7 H          -0.6612   -2.9335   -0.3355 H       1  LIG1        0.0634
      8 S           0.5299   -0.6428   -1.7953 S.3     1  LIG1       -0.1415
      9 H           0.3349    0.6659   -2.0552 H       1  LIG1        0.1071
     10 C          -0.7633    1.7636    0.2480 C.ar    1  LIG1        0.0286
     11 C           0.4021    2.4266   -0.0640 C.ar    1  LIG1       -0.0326
     12 C           0.2585    3.8428   -0.1450 C.ar    1  LIG1        0.0206
     13 C          -1.0280    4.2785    0.1249 C.ar    1  LIG1        0.0397
     14 S          -2.0776    2.9050    0.4486 S.2     1  LIG1       -0.0861
     15 H           1.3477    1.9181   -0.2082 H       1  LIG1        0.0640
     16 S           1.6735    4.8326   -0.5773 S.3     1  LIG1       -0.1415
     17 H           0.9880    5.9450   -0.9105 H       1  LIG1        0.1071
     18 C          -1.5622    5.6284    0.1626 C.ar    1  LIG1        0.0286
     19 C          -0.9791    6.7704    0.6652 C.ar    1  LIG1       -0.0326
     20 C          -1.7910    7.9359    0.5421 C.ar    1  LIG1        0.0206
     21 C          -3.0192    7.6876   -0.0458 C.ar    1  LIG1        0.0397
     22 S          -3.1529    5.9893   -0.4793 S.2     1  LIG1       -0.0861
     23 H          -0.0049    6.7749    1.1388 H       1  LIG1        0.0640
     24 S          -1.1583    9.4986    1.1125 S.3     1  LIG1       -0.1415
     25 H          -2.0782   10.2683    0.4964 H       1  LIG1        0.1071
     26 C          -4.1144    8.6021   -0.3244 C.ar    1  LIG1        0.0280
     27 C          -4.6350    9.5877    0.4843 C.ar    1  LIG1       -0.0332
     28 C          -5.7237   10.2964   -0.1127 C.ar    1  LIG1        0.0124
     29 C          -6.0282    9.8399   -1.3680 C.ar    1  LIG1       -0.0105
     30 S          -4.9780    8.5468   -1.8524 S.2     1  LIG1       -0.0950
     31 H          -6.8024   10.1854   -2.0383 H       1  LIG1        0.0704
     32 H          -4.2828    9.7684    1.4928 H       1  LIG1        0.0640
     33 S          -6.5330   11.6118    0.7768 S.3     1  LIG1       -0.1421
     34 H          -7.5033   11.8400   -0.1292 H       1  LIG1        0.1071
@<TRIPOS>BOND
     1     9     8    1
     2    31    29    1
     3    30    29   ar
     4    30    26   ar
     5     8     3    1
     6    29    28   ar
     7    17    16    1
     8    16    12    1
     9    22    21   ar
    10    22    18   ar
    11     3     2   ar
    12     3     4   ar
    13     7     2    1
    14    26    21    1
    15    26    27   ar
    16    15    11    1
    17    12    11   ar
    18    12    13   ar
    19    34    33    1
    20    28    27   ar
    21    28    33    1
    22    11    10   ar
    23    21    20   ar
    24    13    18    1
    25    13    14   ar
    26     2     1   ar
    27    18    19   ar
    28    10     4    1
    29    10    14   ar
    30     4     5   ar
    31    27    32    1
    32    25    24    1
    33    20    19   ar
    34    20    24    1
    35    19    23    1
    36     1     5   ar
    37     1     6    1
