@<TRIPOS>MOLECULE
mol_data/opt/b3lyp/geoms/mol2/5ag5ag5ag5ag-.out
 34 37 0 0 0
SMALL
GASTEIGER

@<TRIPOS>ATOM
      1 C          -2.0681   -1.9936    0.1938 C.ar    1  LIG1       -0.0227
      2 C          -0.7721   -2.0039   -0.2320 C.ar    1  LIG1       -0.0409
      3 C          -0.1909   -0.6976   -0.2889 C.ar    1  LIG1        0.0200
      4 C          -1.0637    0.3014    0.1073 C.ar    1  LIG1        0.0391
      5 S          -2.6213   -0.3932    0.5439 S.2     1  LIG1       -0.0950
      6 H          -2.7345   -2.8359    0.3165 H       1  LIG1        0.0694
      7 H          -0.2395   -2.9036   -0.5170 H       1  LIG1        0.0634
      8 S           1.4828   -0.5133   -0.8637 S.3     1  LIG1       -0.1415
      9 H           1.4143    0.8083   -1.1232 H       1  LIG1        0.1071
     10 C          -0.8521    1.7358    0.1921 C.ar    1  LIG1        0.0286
     11 C           0.2519    2.4172    0.6539 C.ar    1  LIG1       -0.0326
     12 C           0.1134    3.8353    0.6170 C.ar    1  LIG1        0.0206
     13 C          -1.1108    4.2530    0.1210 C.ar    1  LIG1        0.0397
     14 S          -2.0933    2.8625   -0.3183 S.2     1  LIG1       -0.0861
     15 H           1.1185    1.9184    1.0706 H       1  LIG1        0.0640
     16 S           1.4394    4.8525    1.2298 S.3     1  LIG1       -0.1415
     17 H           0.7069    5.9714    1.4038 H       1  LIG1        0.1071
     18 C          -1.6292    5.5960   -0.0589 C.ar    1  LIG1        0.0286
     19 C          -0.9745    6.7183   -0.5171 C.ar    1  LIG1       -0.0326
     20 C          -1.8011    7.8768   -0.5962 C.ar    1  LIG1        0.0206
     21 C          -3.1062    7.6470   -0.1952 C.ar    1  LIG1        0.0397
     22 S          -3.3028    5.9725    0.3014 S.2     1  LIG1       -0.0861
     23 H           0.0554    6.7032   -0.8525 H       1  LIG1        0.0640
     24 S          -1.1108    9.3950   -1.2186 S.3     1  LIG1       -0.1415
     25 H          -2.2866    9.9958   -1.4923 H       1  LIG1        0.1071
     26 C          -4.2355    8.5595   -0.1423 C.ar    1  LIG1        0.0280
     27 C          -4.2638    9.8688    0.2848 C.ar    1  LIG1       -0.0332
     28 C          -5.5612   10.4637    0.2066 C.ar    1  LIG1        0.0124
     29 C          -6.5121    9.6012   -0.2717 C.ar    1  LIG1       -0.0105
     30 S          -5.8362    8.0503   -0.6560 S.2     1  LIG1       -0.0950
     31 H          -7.5667    9.7820   -0.4242 H       1  LIG1        0.0704
     32 H          -3.3947   10.3767    0.6853 H       1  LIG1        0.0640
     33 S          -5.8054   12.1532    0.7186 S.3     1  LIG1       -0.1421
     34 H          -7.1336   12.1932    0.4982 H       1  LIG1        0.1071
@<TRIPOS>BOND
     1    25    24    1
     2    24    20    1
     3     9     8    1
     4     8     3    1
     5    23    19    1
     6    30    29   ar
     7    30    26   ar
     8    20    19   ar
     9    20    21   ar
    10    19    18   ar
    11     7     2    1
    12    31    29    1
    13    14    13   ar
    14    14    10   ar
    15     3     2   ar
    16     3     4   ar
    17    29    28   ar
    18     2     1   ar
    19    21    26    1
    20    21    22   ar
    21    26    27   ar
    22    18    13    1
    23    18    22   ar
    24     4    10    1
    25     4     5   ar
    26    13    12   ar
    27    10    11   ar
    28     1     6    1
    29     1     5   ar
    30    28    27   ar
    31    28    33    1
    32    27    32    1
    33    34    33    1
    34    12    11   ar
    35    12    16    1
    36    11    15    1
    37    16    17    1
