@<TRIPOS>MOLECULE
mol_data/opt/b3lyp/geoms/mol2/5ag5ag-5ag.out
 26 28 0 0 0
SMALL
GASTEIGER

@<TRIPOS>ATOM
      1 C          -2.0234   -1.8984    0.7330 C.ar    1  LIG1       -0.0227
      2 C          -0.8741   -1.9541    0.0002 C.ar    1  LIG1       -0.0409
      3 C          -0.3288   -0.6620   -0.2853 C.ar    1  LIG1        0.0200
      4 C          -1.0777    0.3723    0.2482 C.ar    1  LIG1        0.0391
      5 S          -2.4753   -0.2711    1.1038 S.2     1  LIG1       -0.0950
      6 H          -2.6360   -2.7219    1.0724 H       1  LIG1        0.0694
      7 H          -0.4268   -2.8775   -0.3482 H       1  LIG1        0.0634
      8 S           1.1481   -0.5399   -1.2702 S.3     1  LIG1       -0.1415
      9 H           1.0284    0.7693   -1.5703 H       1  LIG1        0.1071
     10 C          -0.8564    1.8074    0.1826 C.ar    1  LIG1        0.0286
     11 C           0.3243    2.5020    0.3164 C.ar    1  LIG1       -0.0326
     12 C           0.1814    3.9154    0.1895 C.ar    1  LIG1        0.0206
     13 C          -1.1256    4.3158   -0.0270 C.ar    1  LIG1        0.0397
     14 S          -2.1841    2.9143   -0.1059 S.2     1  LIG1       -0.0861
     15 H           1.2710    2.0186    0.5260 H       1  LIG1        0.0640
     16 S           1.6271    4.9479    0.3018 S.3     1  LIG1       -0.1415
     17 H           1.0639    6.0555   -0.2220 H       1  LIG1        0.1071
     18 C          -1.6708    5.6538   -0.1875 C.ar    1  LIG1        0.0280
     19 C          -1.3748    6.7934    0.5268 C.ar    1  LIG1       -0.0332
     20 C          -2.1161    7.9393    0.1014 C.ar    1  LIG1        0.0124
     21 C          -2.9764    7.6620   -0.9282 C.ar    1  LIG1       -0.0105
     22 S          -2.8835    5.9981   -1.4102 S.2     1  LIG1       -0.0950
     23 H          -3.6550    8.3333   -1.4350 H       1  LIG1        0.0704
     24 H          -0.6851    6.8019    1.3622 H       1  LIG1        0.0640
     25 S          -1.8724    9.5138    0.9008 S.3     1  LIG1       -0.1421
     26 H          -2.8708   10.1645    0.2731 H       1  LIG1        0.1071
@<TRIPOS>BOND
     1     9     8    1
     2    23    21    1
     3    22    21   ar
     4    22    18   ar
     5     8     3    1
     6    21    20   ar
     7     7     2    1
     8     3     2   ar
     9     3     4   ar
    10    17    16    1
    11    18    13    1
    12    18    19   ar
    13    14    13   ar
    14    14    10   ar
    15    13    12   ar
    16     2     1   ar
    17    20    19   ar
    18    20    25    1
    19    10     4    1
    20    10    11   ar
    21    12    16    1
    22    12    11   ar
    23     4     5   ar
    24    26    25    1
    25    11    15    1
    26    19    24    1
    27     1     6    1
    28     1     5   ar
