@<TRIPOS>MOLECULE
mol_data/opt/b3lyp/geoms/mol2/5ag5ag-5ag5ag-.out
 34 37 0 0 0
SMALL
GASTEIGER

@<TRIPOS>ATOM
      1 C          -1.7518   -1.9075    1.2261 C.ar    1  LIG1       -0.0227
      2 C          -0.9386   -1.9972    0.1344 C.ar    1  LIG1       -0.0409
      3 C          -0.4992   -0.7215   -0.3427 C.ar    1  LIG1        0.0200
      4 C          -0.9858    0.3346    0.4080 C.ar    1  LIG1        0.0391
      5 S          -2.0043   -0.2673    1.7113 S.2     1  LIG1       -0.0950
      6 H          -2.2236   -2.7128    1.7714 H       1  LIG1        0.0694
      7 H          -0.6659   -2.9339   -0.3373 H       1  LIG1        0.0634
      8 S           0.5354   -0.6429   -1.7885 S.3     1  LIG1       -0.1415
      9 H           0.3449    0.6668   -2.0466 H       1  LIG1        0.1071
     10 C          -0.7666    1.7627    0.2505 C.ar    1  LIG1        0.0286
     11 C           0.4012    2.4249   -0.0540 C.ar    1  LIG1       -0.0326
     12 C           0.2593    3.8414   -0.1347 C.ar    1  LIG1        0.0206
     13 C          -1.0285    4.2780    0.1279 C.ar    1  LIG1        0.0397
     14 S          -2.0811    2.9050    0.4441 S.2     1  LIG1       -0.0861
     15 H           1.3472    1.9158   -0.1930 H       1  LIG1        0.0640
     16 S           1.6778    4.8305   -0.5568 S.3     1  LIG1       -0.1415
     17 H           0.9949    5.9411   -0.9012 H       1  LIG1        0.1071
     18 C          -1.5619    5.6281    0.1630 C.ar    1  LIG1        0.0286
     19 C          -0.9799    6.7701    0.6671 C.ar    1  LIG1       -0.0326
     20 C          -1.7909    7.9359    0.5410 C.ar    1  LIG1        0.0206
     21 C          -3.0173    7.6879   -0.0508 C.ar    1  LIG1        0.0397
     22 S          -3.1504    5.9896   -0.4841 S.2     1  LIG1       -0.0861
     23 H          -0.0072    6.7743    1.1438 H       1  LIG1        0.0640
     24 S          -1.1590    9.4987    1.1122 S.3     1  LIG1       -0.1415
     25 H          -2.0793   10.2682    0.4965 H       1  LIG1        0.1071
     26 C          -4.1111    8.6029   -0.3333 C.ar    1  LIG1        0.0280
     27 C          -4.6343    9.5886    0.4737 C.ar    1  LIG1       -0.0332
     28 C          -5.7204   10.2979   -0.1271 C.ar    1  LIG1        0.0124
     29 C          -6.0205    9.8417   -1.3836 C.ar    1  LIG1       -0.0105
     30 S          -4.9690    8.5485   -1.8645 S.2     1  LIG1       -0.0950
     31 H          -6.7922   10.1876   -2.0565 H       1  LIG1        0.0704
     32 H          -4.2858    9.7687    1.4836 H       1  LIG1        0.0640
     33 S          -6.5325   11.6129    0.7598 S.3     1  LIG1       -0.1421
     34 H          -7.4939   11.8481   -0.1538 H       1  LIG1        0.1071
@<TRIPOS>BOND
     1    31    29    1
     2     9     8    1
     3    30    29   ar
     4    30    26   ar
     5     8     3    1
     6    29    28   ar
     7    17    16    1
     8    16    12    1
     9    22    21   ar
    10    22    18   ar
    11     3     2   ar
    12     3     4   ar
    13     7     2    1
    14    26    21    1
    15    26    27   ar
    16    15    11    1
    17    34    33    1
    18    12    11   ar
    19    12    13   ar
    20    28    27   ar
    21    28    33    1
    22    11    10   ar
    23    21    20   ar
    24    13    18    1
    25    13    14   ar
    26     2     1   ar
    27    18    19   ar
    28    10     4    1
    29    10    14   ar
    30     4     5   ar
    31    27    32    1
    32    25    24    1
    33    20    19   ar
    34    20    24    1
    35    19    23    1
    36     1     5   ar
    37     1     6    1
