@<TRIPOS>MOLECULE
mol_data/opt/b3lyp/geoms/mol2/5ag5ag-5ag-5ag.out
 34 37 0 0 0
SMALL
GASTEIGER

@<TRIPOS>ATOM
      1 C          -1.7233   -1.9867    0.9170 C.ar    1  LIG1       -0.0227
      2 C          -0.8561   -1.9979   -0.1361 C.ar    1  LIG1       -0.0409
      3 C          -0.4184   -0.6892   -0.5150 C.ar    1  LIG1        0.0200
      4 C          -0.9612    0.3125    0.2711 C.ar    1  LIG1        0.0391
      5 S          -2.0307   -0.3826    1.4842 S.2     1  LIG1       -0.0950
      6 H          -2.2061   -2.8305    1.3897 H       1  LIG1        0.0694
      7 H          -0.5429   -2.9001   -0.6480 H       1  LIG1        0.0634
      8 S           0.6836   -0.5078   -1.9003 S.3     1  LIG1       -0.1415
      9 H           0.4730    0.8095   -2.0971 H       1  LIG1        0.1071
     10 C          -0.7618    1.7505    0.2085 C.ar    1  LIG1        0.0286
     11 C           0.4059    2.4482   -0.0035 C.ar    1  LIG1       -0.0326
     12 C           0.2419    3.8642   -0.0071 C.ar    1  LIG1        0.0206
     13 C          -1.0642    4.2643    0.2230 C.ar    1  LIG1        0.0397
     14 S          -2.1046    2.8584    0.4099 S.2     1  LIG1       -0.0861
     15 H           1.3663    1.9632   -0.1295 H       1  LIG1        0.0640
     16 S           1.6587    4.8993   -0.3067 S.3     1  LIG1       -0.1415
     17 H           0.9705    6.0167   -0.6175 H       1  LIG1        0.1071
     18 C          -1.6229    5.6007    0.3114 C.ar    1  LIG1        0.0286
     19 C          -1.0855    6.7214    0.9058 C.ar    1  LIG1       -0.0326
     20 C          -1.9238    7.8720    0.8327 C.ar    1  LIG1        0.0206
     21 C          -3.1196    7.6373    0.1757 C.ar    1  LIG1        0.0397
     22 S          -3.1936    5.9696   -0.3734 S.2     1  LIG1       -0.0861
     23 H          -0.1444    6.7094    1.4418 H       1  LIG1        0.0640
     24 S          -1.3899    9.3854    1.6021 S.3     1  LIG1       -0.1415
     25 H          -2.6004    9.9793    1.6250 H       1  LIG1        0.1071
     26 C          -4.2275    8.5407   -0.0853 C.ar    1  LIG1        0.0280
     27 C          -4.1871    9.8532   -0.5011 C.ar    1  LIG1       -0.0332
     28 C          -5.4816   10.4378   -0.6624 C.ar    1  LIG1        0.0124
     29 C          -6.4972    9.5642   -0.3759 C.ar    1  LIG1       -0.0105
     30 S          -5.8912    8.0148    0.1159 S.2     1  LIG1       -0.0950
     31 H          -7.5633    9.7360   -0.4217 H       1  LIG1        0.0704
     32 H          -3.2628   10.3707   -0.7284 H       1  LIG1        0.0640
     33 S          -5.6413   12.1302   -1.1982 S.3     1  LIG1       -0.1421
     34 H          -6.9872   12.1534   -1.2438 H       1  LIG1        0.1071
@<TRIPOS>BOND
     1     9     8    1
     2     8     3    1
     3    34    33    1
     4    33    28    1
     5    32    27    1
     6    28    27   ar
     7    28    29   ar
     8     7     2    1
     9    17    16    1
    10     3     2   ar
    11     3     4   ar
    12    27    26   ar
    13    31    29    1
    14    29    30   ar
    15    22    21   ar
    16    22    18   ar
    17    16    12    1
    18     2     1   ar
    19    15    11    1
    20    26    30   ar
    21    26    21    1
    22    12    11   ar
    23    12    13   ar
    24    11    10   ar
    25    21    20   ar
    26    10     4    1
    27    10    14   ar
    28    13    18    1
    29    13    14   ar
    30     4     5   ar
    31    18    19   ar
    32    20    19   ar
    33    20    24    1
    34    19    23    1
    35     1     6    1
    36     1     5   ar
    37    24    25    1
