@<TRIPOS>MOLECULE
mol_data/opt/b3lyp/geoms/mol2/5ag5ag5ag-.out
 26 28 0 0 0
SMALL
GASTEIGER

@<TRIPOS>ATOM
      1 C          -2.0600   -1.9540    0.1995 C.ar    1  LIG1       -0.0227
      2 C          -0.7935   -1.9370   -0.3073 C.ar    1  LIG1       -0.0409
      3 C          -0.2354   -0.6211   -0.3756 C.ar    1  LIG1        0.0200
      4 C          -1.0947    0.3573    0.0935 C.ar    1  LIG1        0.0391
      5 S          -2.6117   -0.3684    0.6143 S.2     1  LIG1       -0.0950
      6 H          -2.7057   -2.8083    0.3473 H       1  LIG1        0.0694
      7 H          -0.2676   -2.8233   -0.6422 H       1  LIG1        0.0634
      8 S           1.3962   -0.4006   -1.0516 S.3     1  LIG1       -0.1415
      9 H           1.2938    0.9251   -1.2762 H       1  LIG1        0.1071
     10 C          -0.8982    1.7933    0.1935 C.ar    1  LIG1        0.0286
     11 C           0.2199    2.4818    0.6073 C.ar    1  LIG1       -0.0326
     12 C           0.0591    3.8987    0.6073 C.ar    1  LIG1        0.0206
     13 C          -1.1958    4.3069    0.1889 C.ar    1  LIG1        0.0397
     14 S          -2.1806    2.9114   -0.2257 S.2     1  LIG1       -0.0861
     15 H           1.1156    1.9883    0.9646 H       1  LIG1        0.0640
     16 S           1.4014    4.9248    1.1666 S.3     1  LIG1       -0.1415
     17 H           0.6673    6.0369    1.3737 H       1  LIG1        0.1071
     18 C          -1.7421    5.6478    0.0667 C.ar    1  LIG1        0.0280
     19 C          -1.1376    6.7801   -0.4325 C.ar    1  LIG1       -0.0332
     20 C          -1.9820    7.9332   -0.4068 C.ar    1  LIG1        0.0124
     21 C          -3.2253    7.6689    0.1042 C.ar    1  LIG1       -0.0105
     22 S          -3.3822    6.0084    0.5823 S.2     1  LIG1       -0.0950
     23 H          -4.0569    8.3473    0.2315 H       1  LIG1        0.0704
     24 H          -0.1371    6.7786   -0.8482 H       1  LIG1        0.0640
     25 S          -1.3815    9.4984   -1.0125 S.3     1  LIG1       -0.1421
     26 H          -2.5333   10.1791   -0.8570 H       1  LIG1        0.1071
@<TRIPOS>BOND
     1     9     8    1
     2     8     3    1
     3    25    26    1
     4    25    20    1
     5    24    19    1
     6     7     2    1
     7    19    20   ar
     8    19    18   ar
     9    20    21   ar
    10     3     2   ar
    11     3     4   ar
    12     2     1   ar
    13    14    13   ar
    14    14    10   ar
    15    18    13    1
    16    18    22   ar
    17     4    10    1
    18     4     5   ar
    19    21    23    1
    20    21    22   ar
    21    13    12   ar
    22    10    11   ar
    23     1     6    1
    24     1     5   ar
    25    12    11   ar
    26    12    16    1
    27    11    15    1
    28    16    17    1
