@<TRIPOS>MOLECULE
mol_data/opt/b3lyp/geoms/mol2/5ag5ag5ag.out
 26 28 0 0 0
SMALL
GASTEIGER

@<TRIPOS>ATOM
      1 C          -2.0633   -1.9532    0.1995 C.ar    1  LIG1       -0.0227
      2 C          -0.7981   -1.9372   -0.3103 C.ar    1  LIG1       -0.0409
      3 C          -0.2390   -0.6217   -0.3801 C.ar    1  LIG1        0.0200
      4 C          -1.0966    0.3573    0.0910 C.ar    1  LIG1        0.0391
      5 S          -2.6129   -0.3672    0.6153 S.2     1  LIG1       -0.0950
      6 H          -2.7093   -2.8070    0.3489 H       1  LIG1        0.0694
      7 H          -0.2736   -2.8239   -0.6463 H       1  LIG1        0.0634
      8 S           1.3909   -0.4026   -1.0596 S.3     1  LIG1       -0.1415
      9 H           1.2888    0.9230   -1.2849 H       1  LIG1        0.1071
     10 C          -0.8988    1.7932    0.1904 C.ar    1  LIG1        0.0286
     11 C           0.2207    2.4809    0.6017 C.ar    1  LIG1       -0.0326
     12 C           0.0608    3.8979    0.6019 C.ar    1  LIG1        0.0206
     13 C          -1.1946    4.3070    0.1863 C.ar    1  LIG1        0.0397
     14 S          -2.1813    2.9121   -0.2263 S.2     1  LIG1       -0.0861
     15 H           1.1169    1.9869    0.9571 H       1  LIG1        0.0640
     16 S           1.4051    4.9231    1.1589 S.3     1  LIG1       -0.1415
     17 H           0.6724    6.0362    1.3661 H       1  LIG1        0.1071
     18 C          -1.7403    5.6482    0.0650 C.ar    1  LIG1        0.0280
     19 C          -1.1359    6.7801   -0.4356 C.ar    1  LIG1       -0.0332
     20 C          -1.9795    7.9338   -0.4083 C.ar    1  LIG1        0.0124
     21 C          -3.2219    7.6705    0.1053 C.ar    1  LIG1       -0.0105
     22 S          -3.3790    6.0100    0.5839 S.2     1  LIG1       -0.0950
     23 H          -4.0528    8.3494    0.2343 H       1  LIG1        0.0704
     24 H          -0.1363    6.7778   -0.8534 H       1  LIG1        0.0640
     25 S          -1.3792    9.4986   -1.0154 S.3     1  LIG1       -0.1421
     26 H          -2.5303   10.1800   -0.8577 H       1  LIG1        0.1071
@<TRIPOS>BOND
     1     9     8    1
     2     8     3    1
     3    25    26    1
     4    25    20    1
     5    24    19    1
     6     7     2    1
     7    19    20   ar
     8    19    18   ar
     9    20    21   ar
    10     3     2   ar
    11     3     4   ar
    12     2     1   ar
    13    14    13   ar
    14    14    10   ar
    15    18    13    1
    16    18    22   ar
    17     4    10    1
    18     4     5   ar
    19    21    23    1
    20    21    22   ar
    21    13    12   ar
    22    10    11   ar
    23     1     6    1
    24     1     5   ar
    25    11    12   ar
    26    11    15    1
    27    12    16    1
    28    16    17    1
