@<TRIPOS>MOLECULE
mol_data/opt/b3lyp/geoms/mol2/5ag5ag5ag5ag.out
 34 37 0 0 0
SMALL
GASTEIGER

@<TRIPOS>ATOM
      1 C          -2.0736   -1.9939    0.1853 C.ar    1  LIG1       -0.0227
      2 C          -0.7759   -2.0044   -0.2354 C.ar    1  LIG1       -0.0409
      3 C          -0.1938   -0.6983   -0.2882 C.ar    1  LIG1        0.0200
      4 C          -1.0675    0.3006    0.1057 C.ar    1  LIG1        0.0391
      5 S          -2.6272   -0.3936    0.5352 S.2     1  LIG1       -0.0950
      6 H          -2.7409   -2.8360    0.3039 H       1  LIG1        0.0694
      7 H          -0.2428   -2.9041   -0.5194 H       1  LIG1        0.0634
      8 S           1.4823   -0.5141   -0.8569 S.3     1  LIG1       -0.1415
      9 H           1.4161    0.8084   -1.1123 H       1  LIG1        0.1071
     10 C          -0.8553    1.7347    0.1942 C.ar    1  LIG1        0.0286
     11 C           0.2470    2.4144    0.6626 C.ar    1  LIG1       -0.0326
     12 C           0.1097    3.8327    0.6277 C.ar    1  LIG1        0.0206
     13 C          -1.1118    4.2521    0.1267 C.ar    1  LIG1        0.0397
     14 S          -2.0933    2.8633   -0.3196 S.2     1  LIG1       -0.0861
     15 H           1.1113    1.9141    1.0822 H       1  LIG1        0.0640
     16 S           1.4336    4.8477    1.2486 S.3     1  LIG1       -0.1415
     17 H           0.7007    5.9662    1.4237 H       1  LIG1        0.1071
     18 C          -1.6285    5.5959   -0.0530 C.ar    1  LIG1        0.0286
     19 C          -0.9707    6.7186   -0.5058 C.ar    1  LIG1       -0.0326
     20 C          -1.7961    7.8778   -0.5870 C.ar    1  LIG1        0.0206
     21 C          -3.1034    7.6480   -0.1929 C.ar    1  LIG1        0.0397
     22 S          -3.3036    5.9729    0.2997 S.2     1  LIG1       -0.0861
     23 H           0.0608    6.7034   -0.8358 H       1  LIG1        0.0640
     24 S          -1.1021    9.3963   -1.2031 S.3     1  LIG1       -0.1415
     25 H          -2.2761    9.9984   -1.4817 H       1  LIG1        0.1071
     26 C          -4.2323    8.5612   -0.1440 C.ar    1  LIG1        0.0280
     27 C          -4.2621    9.8698    0.2852 C.ar    1  LIG1       -0.0332
     28 C          -5.5587   10.4656    0.2016 C.ar    1  LIG1        0.0124
     29 C          -6.5077    9.6044   -0.2830 C.ar    1  LIG1       -0.0105
     30 S          -5.8308    8.0537   -0.6662 S.2     1  LIG1       -0.0950
     31 H          -7.5613    9.7863   -0.4403 H       1  LIG1        0.0704
     32 H          -3.3946   10.3764    0.6909 H       1  LIG1        0.0640
     33 S          -5.8044   12.1544    0.7148 S.3     1  LIG1       -0.1421
     34 H          -7.1320   12.1945    0.4910 H       1  LIG1        0.1071
@<TRIPOS>BOND
     1    25    24    1
     2    24    20    1
     3     9     8    1
     4     8     3    1
     5    23    19    1
     6    30    29   ar
     7    30    26   ar
     8    20    19   ar
     9    20    21   ar
    10     7     2    1
    11    19    18   ar
    12    31    29    1
    13    14    13   ar
    14    14    10   ar
    15     3     2   ar
    16     3     4   ar
    17    29    28   ar
    18     2     1   ar
    19    21    26    1
    20    21    22   ar
    21    26    27   ar
    22    18    13    1
    23    18    22   ar
    24     4    10    1
    25     4     5   ar
    26    13    12   ar
    27     1     6    1
    28     1     5   ar
    29    10    11   ar
    30    28    27   ar
    31    28    33    1
    32    27    32    1
    33    34    33    1
    34    12    11   ar
    35    12    16    1
    36    11    15    1
    37    16    17    1
