@<TRIPOS>MOLECULE
mol_data/opt/b3lyp/geoms/mol2/5ag5ag5ag-5ag.out
 34 37 0 0 0
SMALL
GASTEIGER

@<TRIPOS>ATOM
      1 C          -2.1071   -1.9794   -0.0741 C.ar    1  LIG1       -0.0227
      2 C          -0.7992   -1.9800   -0.4620 C.ar    1  LIG1       -0.0409
      3 C          -0.2071   -0.6776   -0.4368 C.ar    1  LIG1        0.0200
      4 C          -1.0840    0.3082   -0.0173 C.ar    1  LIG1        0.0391
      5 S          -2.6588   -0.3935    0.3384 S.2     1  LIG1       -0.0950
      6 H          -2.7829   -2.8209   -0.0132 H       1  LIG1        0.0694
      7 H          -0.2649   -2.8691   -0.7755 H       1  LIG1        0.0634
      8 S           1.4847   -0.4795   -0.9517 S.3     1  LIG1       -0.1415
      9 H           1.4333    0.8540   -1.1459 H       1  LIG1        0.1071
     10 C          -0.8639    1.7344    0.1473 C.ar    1  LIG1        0.0286
     11 C           0.2305    2.3804    0.6776 C.ar    1  LIG1       -0.0326
     12 C           0.1038    3.7998    0.7120 C.ar    1  LIG1        0.0206
     13 C          -1.1013    4.2543    0.2022 C.ar    1  LIG1        0.0397
     14 S          -2.0798    2.8979   -0.3403 S.2     1  LIG1       -0.0861
     15 H           1.0799    1.8527    1.0940 H       1  LIG1        0.0640
     16 S           1.4189    4.7690    1.4186 S.3     1  LIG1       -0.1415
     17 H           0.6884    5.8795    1.6463 H       1  LIG1        0.1071
     18 C          -1.6044    5.6102    0.0779 C.ar    1  LIG1        0.0286
     19 C          -0.9235    6.7511   -0.2852 C.ar    1  LIG1       -0.0326
     20 C          -1.7321    7.9250   -0.3043 C.ar    1  LIG1        0.0206
     21 C          -3.0536    7.6849    0.0309 C.ar    1  LIG1        0.0397
     22 S          -3.2863    5.9828    0.4035 S.2     1  LIG1       -0.0861
     23 H           0.1247    6.7498   -0.5587 H       1  LIG1        0.0640
     24 S          -0.9858    9.4873   -0.7167 S.3     1  LIG1       -0.1415
     25 H          -1.9935   10.2602   -0.2635 H       1  LIG1        0.1071
     26 C          -4.1719    8.6100    0.1106 C.ar    1  LIG1        0.0280
     27 C          -4.5142    9.6199   -0.7610 C.ar    1  LIG1       -0.0332
     28 C          -5.6898   10.3334   -0.3706 C.ar    1  LIG1        0.0124
     29 C          -6.2378    9.8565    0.7910 C.ar    1  LIG1       -0.0105
     30 S          -5.3160    8.5385    1.4410 S.2     1  LIG1       -0.0950
     31 H          -7.1245   10.1995    1.3050 H       1  LIG1        0.0704
     32 H          -3.9703    9.8164   -1.6773 H       1  LIG1        0.0640
     33 S          -6.2976   11.6769   -1.3717 S.3     1  LIG1       -0.1421
     34 H          -7.3967   11.9346   -0.6369 H       1  LIG1        0.1071
@<TRIPOS>BOND
     1    32    27    1
     2    33    34    1
     3    33    28    1
     4     9     8    1
     5     8     3    1
     6     7     2    1
     7    27    28   ar
     8    27    26   ar
     9    24    20    1
    10    24    25    1
    11    23    19    1
    12     2     3   ar
    13     2     1   ar
    14     3     4   ar
    15    28    29   ar
    16    14    10   ar
    17    14    13   ar
    18    20    19   ar
    19    20    21   ar
    20    19    18   ar
    21     1     6    1
    22     1     5   ar
    23     4    10    1
    24     4     5   ar
    25    21    26    1
    26    21    22   ar
    27    18    13    1
    28    18    22   ar
    29    26    30   ar
    30    10    11   ar
    31    13    12   ar
    32    11    12   ar
    33    11    15    1
    34    12    16    1
    35    29    31    1
    36    29    30   ar
    37    16    17    1
