@<TRIPOS>MOLECULE
mol_data/opt/b3lyp/geoms/mol2/5ah.out
 11 11 0 0 0
SMALL
GASTEIGER

@<TRIPOS>ATOM
      1 C          -2.1015   -1.7632    0.0249 C.ar    1  LIG1       -0.0225
      2 C          -0.7380   -1.7304   -0.0153 C.ar    1  LIG1       -0.0340
      3 C          -0.2081   -0.3947   -0.0505 C.ar    1  LIG1        0.0316
      4 C          -1.2023    0.5528   -0.0372 C.ar    1  LIG1       -0.0037
      5 S          -2.7838   -0.1707    0.0337 S.2     1  LIG1       -0.1032
      6 H          -2.7451   -2.6308    0.0576 H       1  LIG1        0.0694
      7 H          -1.0975    1.6285   -0.0528 H       1  LIG1        0.0712
      8 H          -0.1148   -2.6182   -0.0099 H       1  LIG1        0.0641
      9 N           1.1714   -0.1376   -0.0264 N.pl3   1  LIG1       -0.3576
     10 H           1.7129   -0.8075   -0.5590 H       1  LIG1        0.1423
     11 H           1.4118    0.8039   -0.3101 H       1  LIG1        0.1423
@<TRIPOS>BOND
     1    10     9    1
     2    11     9    1
     3     7     4    1
     4     3     4   ar
     5     3     9    1
     6     3     2   ar
     7     4     5   ar
     8     2     8    1
     9     2     1   ar
    10     1     5   ar
    11     1     6    1
