@<TRIPOS>MOLECULE
mol_data/opt/b3lyp/geoms/mol2/5ah5ah5ah5ah.out
 38 41 0 0 0
SMALL
GASTEIGER

@<TRIPOS>ATOM
      1 C          -1.6859   -1.9852    1.1111 C.ar    1  LIG1       -0.0219
      2 C          -0.6885   -2.0103    0.1797 C.ar    1  LIG1       -0.0334
      3 C          -0.2592   -0.7044   -0.2208 C.ar    1  LIG1        0.0400
      4 C          -0.9501    0.3082    0.4323 C.ar    1  LIG1        0.0465
      5 S          -2.1276   -0.3718    1.5509 S.2     1  LIG1       -0.0942
      6 H          -2.1825   -2.8268    1.5730 H       1  LIG1        0.0694
      7 H          -0.2617   -2.9238   -0.2203 H       1  LIG1        0.0641
      8 N           0.7626   -0.5008   -1.1527 N.pl3   1  LIG1       -0.3571
      9 H           0.8378   -1.2470   -1.8333 H       1  LIG1        0.1424
     10 H           0.7082    0.4019   -1.6119 H       1  LIG1        0.1424
     11 C          -0.7823    1.7351    0.2687 C.ar    1  LIG1        0.0301
     12 C           0.3756    2.4261   -0.0265 C.ar    1  LIG1       -0.0250
     13 C           0.1977    3.8368   -0.1412 C.ar    1  LIG1        0.0406
     14 C          -1.1139    4.2374    0.0804 C.ar    1  LIG1        0.0472
     15 S          -2.1356    2.8413    0.4139 S.2     1  LIG1       -0.0853
     16 H           1.3450    1.9446   -0.0938 H       1  LIG1        0.0648
     17 N           1.2588    4.7064   -0.4083 N.pl3   1  LIG1       -0.3570
     18 H           2.0030    4.2781   -0.9447 H       1  LIG1        0.1424
     19 H           0.9631    5.5800   -0.8298 H       1  LIG1        0.1424
     20 C          -1.6413    5.5812    0.0522 C.ar    1  LIG1        0.0301
     21 C          -0.9952    6.7582    0.3767 C.ar    1  LIG1       -0.0250
     22 C          -1.8006    7.9254    0.2215 C.ar    1  LIG1        0.0406
     23 C          -3.0863    7.6427   -0.2187 C.ar    1  LIG1        0.0471
     24 S          -3.2888    5.9095   -0.4560 S.2     1  LIG1       -0.0853
     25 H           0.0079    6.7833    0.7880 H       1  LIG1        0.0648
     26 N          -1.3321    9.2057    0.5329 N.pl3   1  LIG1       -0.3570
     27 H          -0.3348    9.3122    0.3938 H       1  LIG1        0.1424
     28 H          -1.8458    9.9421    0.0612 H       1  LIG1        0.1424
     29 C          -4.1573    8.5806   -0.4729 C.ar    1  LIG1        0.0295
     30 C          -4.4198    9.7715    0.1730 C.ar    1  LIG1       -0.0257
     31 C          -5.5533   10.4766   -0.3481 C.ar    1  LIG1        0.0323
     32 C          -6.1463    9.8101   -1.3919 C.ar    1  LIG1       -0.0031
     33 S          -5.3261    8.3189   -1.7589 S.2     1  LIG1       -0.0942
     34 H          -7.0276   10.0949   -1.9491 H       1  LIG1        0.0712
     35 H          -3.8716   10.0961    1.0506 H       1  LIG1        0.0647
     36 N          -6.0235   11.6631    0.2351 N.pl3   1  LIG1       -0.3575
     37 H          -5.2843   12.2617    0.5819 H       1  LIG1        0.1423
     38 H          -6.6476   12.1896   -0.3627 H       1  LIG1        0.1423
@<TRIPOS>BOND
     1    34    32    1
     2     9     8    1
     3    33    32   ar
     4    33    29   ar
     5    10     8    1
     6    32    31   ar
     7     8     3    1
     8    18    17    1
     9    19    17    1
    10    29    23    1
    11    29    30   ar
    12    24    23   ar
    13    24    20   ar
    14    17    13    1
    15    38    36    1
    16    31    30   ar
    17    31    36    1
    18     3     2   ar
    19     3     4   ar
    20     7     2    1
    21    23    22   ar
    22    13    12   ar
    23    13    14   ar
    24    16    12    1
    25    12    11   ar
    26    20    14    1
    27    20    21   ar
    28    28    26    1
    29    14    15   ar
    30    30    35    1
    31     2     1   ar
    32    22    21   ar
    33    22    26    1
    34    36    37    1
    35    11    15   ar
    36    11     4    1
    37    21    25    1
    38    27    26    1
    39     4     5   ar
    40     1     5   ar
    41     1     6    1
