@<TRIPOS>MOLECULE
mol_data/opt/b3lyp/geoms/mol2/5ah5ah5ah-.out
 29 31 0 0 0
SMALL
GASTEIGER

@<TRIPOS>ATOM
      1 C          -1.9383   -1.9450    0.6860 C.ar    1  LIG1       -0.0219
      2 C          -0.7322   -1.9475    0.0473 C.ar    1  LIG1       -0.0334
      3 C          -0.2306   -0.6319   -0.2140 C.ar    1  LIG1        0.0400
      4 C          -1.0816    0.3647    0.2450 C.ar    1  LIG1        0.0465
      5 S          -2.5009   -0.3418    1.0108 S.2     1  LIG1       -0.0942
      6 H          -2.5271   -2.7977    0.9937 H       1  LIG1        0.0694
      7 H          -0.2033   -2.8511   -0.2361 H       1  LIG1        0.0641
      8 N           0.9974   -0.4057   -0.8432 N.pl3   1  LIG1       -0.3571
      9 H           1.2550   -1.1394   -1.4921 H       1  LIG1        0.1424
     10 H           1.0549    0.5045   -1.2871 H       1  LIG1        0.1424
     11 C          -0.8961    1.7958    0.1456 C.ar    1  LIG1        0.0301
     12 C           0.2880    2.5034    0.1797 C.ar    1  LIG1       -0.0250
     13 C           0.1267    3.9143    0.0352 C.ar    1  LIG1        0.0406
     14 C          -1.2005    4.2958   -0.1022 C.ar    1  LIG1        0.0471
     15 S          -2.2543    2.8854   -0.0662 S.2     1  LIG1       -0.0853
     16 H           1.2463    2.0338    0.3727 H       1  LIG1        0.0648
     17 N           1.2075    4.8003    0.0794 N.pl3   1  LIG1       -0.3570
     18 H           2.0698    4.3989   -0.2679 H       1  LIG1        0.1424
     19 H           1.0124    5.6883   -0.3700 H       1  LIG1        0.1424
     20 C          -1.7209    5.6363   -0.2602 C.ar    1  LIG1        0.0295
     21 C          -1.2270    6.8106    0.2695 C.ar    1  LIG1       -0.0257
     22 C          -1.9734    7.9751   -0.1057 C.ar    1  LIG1        0.0323
     23 C          -3.0356    7.6721   -0.9213 C.ar    1  LIG1       -0.0031
     24 S          -3.1344    5.9654   -1.2506 S.2     1  LIG1       -0.0942
     25 H          -3.7761    8.3459   -1.3285 H       1  LIG1        0.0712
     26 H          -0.4039    6.8353    0.9750 H       1  LIG1        0.0647
     27 N          -1.6718    9.2475    0.4033 N.pl3   1  LIG1       -0.3575
     28 H          -0.6792    9.4101    0.5186 H       1  LIG1        0.1423
     29 H          -2.0908   10.0043   -0.1220 H       1  LIG1        0.1423
@<TRIPOS>BOND
     1     9     8    1
     2    25    23    1
     3    10     8    1
     4    24    23   ar
     5    24    20   ar
     6    23    22   ar
     7     8     3    1
     8    19    17    1
     9    18    17    1
    10    20    14    1
    11    20    21   ar
    12     7     2    1
    13     3     2   ar
    14     3     4   ar
    15    29    27    1
    16    22    21   ar
    17    22    27    1
    18    14    15   ar
    19    14    13   ar
    20    15    11   ar
    21    13    17    1
    22    13    12   ar
    23     2     1   ar
    24    11    12   ar
    25    11     4    1
    26    12    16    1
    27     4     5   ar
    28    21    26    1
    29    27    28    1
    30     1     6    1
    31     1     5   ar
