@<TRIPOS>MOLECULE
mol_data/opt/b3lyp/geoms/mol2/5ah5ah.out
 20 21 0 0 0
SMALL
GASTEIGER

@<TRIPOS>ATOM
      1 C          -2.0514   -1.8651    0.3602 C.ar    1  LIG1       -0.0219
      2 C          -0.7334   -1.8542    0.0068 C.ar    1  LIG1       -0.0334
      3 C          -0.2090   -0.5331   -0.1726 C.ar    1  LIG1        0.0400
      4 C          -1.1575    0.4530    0.0563 C.ar    1  LIG1        0.0465
      5 S          -2.6986   -0.2670    0.5084 S.2     1  LIG1       -0.0942
      6 H          -2.6793   -2.7235    0.5533 H       1  LIG1        0.0694
      7 H          -0.1384   -2.7514   -0.1252 H       1  LIG1        0.0641
      8 N           1.1261   -0.2937   -0.5144 N.pl3   1  LIG1       -0.3571
      9 H           1.5278   -1.0240   -1.0897 H       1  LIG1        0.1424
     10 H           1.2684    0.6175   -0.9370 H       1  LIG1        0.1424
     11 C          -0.9792    1.8874   -0.0436 C.ar    1  LIG1        0.0294
     12 C           0.1431    2.6279    0.2609 C.ar    1  LIG1       -0.0257
     13 C          -0.0069    4.0335    0.0223 C.ar    1  LIG1        0.0323
     14 C          -1.2520    4.3480   -0.4634 C.ar    1  LIG1       -0.0031
     15 S          -2.2533    2.9354   -0.6453 S.2     1  LIG1       -0.0942
     16 H          -1.6452    5.3253   -0.7051 H       1  LIG1        0.0712
     17 H           1.0265    2.1935    0.7164 H       1  LIG1        0.0647
     18 N           0.9987    4.9551    0.3509 N.pl3   1  LIG1       -0.3575
     19 H           1.9347    4.6041    0.1906 H       1  LIG1        0.1423
     20 H           0.8834    5.8573   -0.0930 H       1  LIG1        0.1423
@<TRIPOS>BOND
     1     9     8    1
     2    10     8    1
     3    16    14    1
     4    15    14   ar
     5    15    11   ar
     6     8     3    1
     7    14    13   ar
     8     3     2   ar
     9     3     4   ar
    10     7     2    1
    11    20    18    1
    12    11     4    1
    13    11    12   ar
    14     2     1   ar
    15    13    12   ar
    16    13    18    1
    17     4     5   ar
    18    19    18    1
    19    12    17    1
    20     1     5   ar
    21     1     6    1
