@<TRIPOS>MOLECULE
mol_data/opt/b3lyp/geoms/mol2/5ah5ah-.out
 20 21 0 0 0
SMALL
GASTEIGER

@<TRIPOS>ATOM
      1 C          -2.0487   -1.8650    0.3698 C.ar    1  LIG1       -0.0219
      2 C          -0.7329   -1.8544    0.0081 C.ar    1  LIG1       -0.0334
      3 C          -0.2098   -0.5335   -0.1763 C.ar    1  LIG1        0.0400
      4 C          -1.1569    0.4528    0.0574 C.ar    1  LIG1        0.0465
      5 S          -2.6951   -0.2668    0.5200 S.2     1  LIG1       -0.0942
      6 H          -2.6753   -2.7232    0.5680 H       1  LIG1        0.0694
      7 H          -0.1387   -2.7517   -0.1265 H       1  LIG1        0.0641
      8 N           1.1232   -0.2944   -0.5268 N.pl3   1  LIG1       -0.3571
      9 H           1.5213   -1.0255   -1.1036 H       1  LIG1        0.1424
     10 H           1.2627    0.6162   -0.9514 H       1  LIG1        0.1424
     11 C          -0.9793    1.8871   -0.0455 C.ar    1  LIG1        0.0294
     12 C           0.1449    2.6280    0.2508 C.ar    1  LIG1       -0.0257
     13 C          -0.0068    4.0333    0.0113 C.ar    1  LIG1        0.0323
     14 C          -1.2550    4.3471   -0.4668 C.ar    1  LIG1       -0.0031
     15 S          -2.2574    2.9343   -0.6403 S.2     1  LIG1       -0.0942
     16 H          -1.6498    5.3241   -0.7072 H       1  LIG1        0.0712
     17 H           1.0312    2.1942    0.7011 H       1  LIG1        0.0647
     18 N           1.0009    4.9553    0.3322 N.pl3   1  LIG1       -0.3575
     19 H           1.9358    4.6043    0.1660 H       1  LIG1        0.1423
     20 H           0.8826    5.8570   -0.1119 H       1  LIG1        0.1423
@<TRIPOS>BOND
     1     9     8    1
     2    10     8    1
     3    16    14    1
     4    15    14   ar
     5    15    11   ar
     6     8     3    1
     7    14    13   ar
     8     3     2   ar
     9     3     4   ar
    10     7     2    1
    11    20    18    1
    12    11     4    1
    13    11    12   ar
    14     2     1   ar
    15    13    12   ar
    16    13    18    1
    17     4     5   ar
    18    19    18    1
    19    12    17    1
    20     1     5   ar
    21     1     6    1
