@<TRIPOS>MOLECULE
mol_data/opt/b3lyp/geoms/mol2/5ah5ah-5ah5ah-.out
 38 41 0 0 0
SMALL
GASTEIGER

@<TRIPOS>ATOM
      1 C          -1.6764   -1.9878    1.1145 C.ar    1  LIG1       -0.0219
      2 C          -0.6867   -2.0111    0.1750 C.ar    1  LIG1       -0.0334
      3 C          -0.2605   -0.7044   -0.2265 C.ar    1  LIG1        0.0400
      4 C          -0.9462    0.3069    0.4341 C.ar    1  LIG1        0.0465
      5 S          -2.1146   -0.3752    1.5609 S.2     1  LIG1       -0.0942
      6 H          -2.1692   -2.8302    1.5790 H       1  LIG1        0.0694
      7 H          -0.2632   -2.9238   -0.2301 H       1  LIG1        0.0641
      8 N           0.7536   -0.4991   -1.1663 N.pl3   1  LIG1       -0.3571
      9 H           0.8236   -1.2442   -1.8486 H       1  LIG1        0.1424
     10 H           0.6954    0.4043   -1.6236 H       1  LIG1        0.1424
     11 C          -0.7796    1.7341    0.2718 C.ar    1  LIG1        0.0301
     12 C           0.3757    2.4256   -0.0317 C.ar    1  LIG1       -0.0250
     13 C           0.1970    3.8366   -0.1422 C.ar    1  LIG1        0.0406
     14 C          -1.1128    4.2368    0.0911 C.ar    1  LIG1        0.0472
     15 S          -2.1317    2.8401    0.4305 S.2     1  LIG1       -0.0853
     16 H           1.3445    1.9443   -0.1081 H       1  LIG1        0.0648
     17 N           1.2558    4.7066   -0.4165 N.pl3   1  LIG1       -0.3570
     18 H           1.9952    4.2796   -0.9605 H       1  LIG1        0.1424
     19 H           0.9565    5.5813   -0.8333 H       1  LIG1        0.1424
     20 C          -1.6403    5.5806    0.0698 C.ar    1  LIG1        0.0301
     21 C          -0.9916    6.7569    0.3915 C.ar    1  LIG1       -0.0250
     22 C          -1.7982    7.9245    0.2451 C.ar    1  LIG1        0.0406
     23 C          -3.0873    7.6427   -0.1855 C.ar    1  LIG1        0.0471
     24 S          -3.2918    5.9100   -0.4246 S.2     1  LIG1       -0.0853
     25 H           0.0147    6.7811    0.7950 H       1  LIG1        0.0648
     26 N          -1.3271    9.2042    0.5554 N.pl3   1  LIG1       -0.3570
     27 H          -0.3309    9.3108    0.4089 H       1  LIG1        0.1424
     28 H          -1.8444    9.9415    0.0891 H       1  LIG1        0.1424
     29 C          -4.1603    8.5812   -0.4292 C.ar    1  LIG1        0.0295
     30 C          -4.4175    9.7708    0.2211 C.ar    1  LIG1       -0.0257
     31 C          -5.5550   10.4770   -0.2896 C.ar    1  LIG1        0.0323
     32 C          -6.1565    9.8125   -1.3298 C.ar    1  LIG1       -0.0031
     33 S          -5.3394    8.3220   -1.7063 S.2     1  LIG1       -0.0942
     34 H          -7.0422   10.0985   -1.8794 H       1  LIG1        0.0712
     35 H          -3.8622   10.0938    1.0948 H       1  LIG1        0.0647
     36 N          -6.0204   11.6624    0.2996 N.pl3   1  LIG1       -0.3575
     37 H          -5.2785   12.2602    0.6418 H       1  LIG1        0.1423
     38 H          -6.6491   12.1903   -0.2922 H       1  LIG1        0.1423
@<TRIPOS>BOND
     1    34    32    1
     2     9     8    1
     3    33    32   ar
     4    33    29   ar
     5    10     8    1
     6    32    31   ar
     7     8     3    1
     8    18    17    1
     9    19    17    1
    10    29    23    1
    11    29    30   ar
    12    24    23   ar
    13    24    20   ar
    14    17    13    1
    15    38    36    1
    16    31    30   ar
    17    31    36    1
    18     7     2    1
    19     3     2   ar
    20     3     4   ar
    21    23    22   ar
    22    13    12   ar
    23    13    14   ar
    24    16    12    1
    25    12    11   ar
    26    20    14    1
    27    20    21   ar
    28    28    26    1
    29    14    15   ar
    30     2     1   ar
    31    30    35    1
    32    22    21   ar
    33    22    26    1
    34    11    15   ar
    35    11     4    1
    36    36    37    1
    37    21    25    1
    38    27    26    1
    39     4     5   ar
    40     1     5   ar
    41     1     6    1
