@<TRIPOS>MOLECULE
mol_data/opt/b3lyp/geoms/mol2/5ah5ah-5ah.out
 29 31 0 0 0
SMALL
GASTEIGER

@<TRIPOS>ATOM
      1 C          -1.9300   -1.9463    0.6967 C.ar    1  LIG1       -0.0219
      2 C          -0.7311   -1.9481    0.0446 C.ar    1  LIG1       -0.0334
      3 C          -0.2324   -0.6322   -0.2209 C.ar    1  LIG1        0.0400
      4 C          -1.0782    0.3639    0.2488 C.ar    1  LIG1        0.0465
      5 S          -2.4888   -0.3434    1.0297 S.2     1  LIG1       -0.0942
      6 H          -2.5153   -2.7992    1.0100 H       1  LIG1        0.0694
      7 H          -0.2055   -2.8514   -0.2458 H       1  LIG1        0.0641
      8 N           0.9885   -0.4053   -0.8636 N.pl3   1  LIG1       -0.3571
      9 H           1.2389   -1.1384   -1.5159 H       1  LIG1        0.1424
     10 H           1.0409    0.5053   -1.3073 H       1  LIG1        0.1424
     11 C          -0.8937    1.7951    0.1489 C.ar    1  LIG1        0.0301
     12 C           0.2907    2.5026    0.1702 C.ar    1  LIG1       -0.0250
     13 C           0.1278    3.9138    0.0292 C.ar    1  LIG1        0.0406
     14 C          -1.2009    4.2954   -0.0925 C.ar    1  LIG1        0.0471
     15 S          -2.2542    2.8850   -0.0462 S.2     1  LIG1       -0.0853
     16 H           1.2511    2.0328    0.3517 H       1  LIG1        0.0648
     17 N           1.2091    4.7996    0.0621 N.pl3   1  LIG1       -0.3570
     18 H           2.0673    4.3987   -0.2958 H       1  LIG1        0.1424
     19 H           1.0088    5.6883   -0.3837 H       1  LIG1        0.1424
     20 C          -1.7229    5.6361   -0.2431 C.ar    1  LIG1        0.0295
     21 C          -1.2232    6.8098    0.2824 C.ar    1  LIG1       -0.0257
     22 C          -1.9736    7.9748   -0.0829 C.ar    1  LIG1        0.0323
     23 C          -3.0449    7.6727   -0.8870 C.ar    1  LIG1       -0.0031
     24 S          -3.1475    5.9665   -1.2172 S.2     1  LIG1       -0.0942
     25 H          -3.7899    8.3471   -1.2850 H       1  LIG1        0.0712
     26 H          -0.3922    6.8336    0.9788 H       1  LIG1        0.0647
     27 N          -1.6664    9.2465    0.4242 N.pl3   1  LIG1       -0.3575
     28 H          -0.6726    9.4089    0.5288 H       1  LIG1        0.1423
     29 H          -2.0910   10.0040   -0.0955 H       1  LIG1        0.1423
@<TRIPOS>BOND
     1     9     8    1
     2    10     8    1
     3    25    23    1
     4    24    23   ar
     5    24    20   ar
     6    23    22   ar
     7     8     3    1
     8    19    17    1
     9    18    17    1
    10     7     2    1
    11    20    14    1
    12    20    21   ar
    13     3     2   ar
    14     3     4   ar
    15    29    27    1
    16    14    15   ar
    17    14    13   ar
    18    22    21   ar
    19    22    27    1
    20    15    11   ar
    21    13    17    1
    22    13    12   ar
    23     2     1   ar
    24    11    12   ar
    25    11     4    1
    26    12    16    1
    27     4     5   ar
    28    21    26    1
    29    27    28    1
    30     1     6    1
    31     1     5   ar
