@<TRIPOS>MOLECULE
mol_data/opt/b3lyp/geoms/mol2/5ah5ah-5ah-5ah.out
 38 41 0 0 0
SMALL
GASTEIGER

@<TRIPOS>ATOM
      1 C          -1.6853   -1.9894    1.1009 C.ar    1  LIG1       -0.0219
      2 C          -0.6886   -2.0112    0.1688 C.ar    1  LIG1       -0.0334
      3 C          -0.2595   -0.7038   -0.2273 C.ar    1  LIG1        0.0400
      4 C          -0.9500    0.3064    0.4298 C.ar    1  LIG1        0.0465
      5 S          -2.1269   -0.3776    1.5467 S.2     1  LIG1       -0.0942
      6 H          -2.1816   -2.8326    1.5603 H       1  LIG1        0.0694
      7 H          -0.2621   -2.9232   -0.2347 H       1  LIG1        0.0641
      8 N           0.7616   -0.4970   -1.1592 N.pl3   1  LIG1       -0.3571
      9 H           0.8368   -1.2410   -1.8421 H       1  LIG1        0.1424
     10 H           0.7067    0.4072   -1.6155 H       1  LIG1        0.1424
     11 C          -0.7823    1.7339    0.2711 C.ar    1  LIG1        0.0301
     12 C           0.3752    2.4259   -0.0228 C.ar    1  LIG1       -0.0250
     13 C           0.1973    3.8370   -0.1322 C.ar    1  LIG1        0.0406
     14 C          -1.1141    4.2368    0.0922 C.ar    1  LIG1        0.0472
     15 S          -2.1355    2.8396    0.4218 S.2     1  LIG1       -0.0853
     16 H           1.3446    1.9446   -0.0928 H       1  LIG1        0.0648
     17 N           1.2582    4.7075   -0.3973 N.pl3   1  LIG1       -0.3570
     18 H           2.0014    4.2814   -0.9368 H       1  LIG1        0.1424
     19 H           0.9619    5.5830   -0.8146 H       1  LIG1        0.1424
     20 C          -1.6414    5.5807    0.0694 C.ar    1  LIG1        0.0301
     21 C          -0.9951    6.7564    0.3979 C.ar    1  LIG1       -0.0250
     22 C          -1.8006    7.9243    0.2475 C.ar    1  LIG1        0.0406
     23 C          -3.0865    7.6433   -0.1932 C.ar    1  LIG1        0.0471
     24 S          -3.2892    5.9110   -0.4369 S.2     1  LIG1       -0.0853
     25 H           0.0081    6.7799    0.8090 H       1  LIG1        0.0648
     26 N          -1.3318    9.2034    0.5635 N.pl3   1  LIG1       -0.3570
     27 H          -0.3346    9.3103    0.4248 H       1  LIG1        0.1424
     28 H          -1.8455    9.9416    0.0946 H       1  LIG1        0.1424
     29 C          -4.1576    8.5823   -0.4433 C.ar    1  LIG1        0.0295
     30 C          -4.4195    9.7708    0.2070 C.ar    1  LIG1       -0.0257
     31 C          -5.5532   10.4779   -0.3109 C.ar    1  LIG1        0.0323
     32 C          -6.1470    9.8152   -1.3566 C.ar    1  LIG1       -0.0031
     33 S          -5.3272    8.3252   -1.7295 S.2     1  LIG1       -0.0942
     34 H          -7.0286   10.1021   -1.9123 H       1  LIG1        0.0712
     35 H          -3.8708   10.0922    1.0854 H       1  LIG1        0.0647
     36 N          -6.0230   11.6623    0.2769 N.pl3   1  LIG1       -0.3575
     37 H          -5.2836   12.2597    0.6252 H       1  LIG1        0.1423
     38 H          -6.6476   12.1910   -0.3186 H       1  LIG1        0.1423
@<TRIPOS>BOND
     1    34    32    1
     2     9     8    1
     3    33    32   ar
     4    33    29   ar
     5    10     8    1
     6    32    31   ar
     7     8     3    1
     8    18    17    1
     9    19    17    1
    10    29    23    1
    11    29    30   ar
    12    24    23   ar
    13    24    20   ar
    14    17    13    1
    15    38    36    1
    16    31    30   ar
    17    31    36    1
    18     7     2    1
    19     3     2   ar
    20     3     4   ar
    21    23    22   ar
    22    13    12   ar
    23    13    14   ar
    24    16    12    1
    25    12    11   ar
    26    20    14    1
    27    20    21   ar
    28    14    15   ar
    29    28    26    1
    30     2     1   ar
    31    30    35    1
    32    22    21   ar
    33    22    26    1
    34    11    15   ar
    35    11     4    1
    36    36    37    1
    37    21    25    1
    38    27    26    1
    39     4     5   ar
    40     1     5   ar
    41     1     6    1
