@<TRIPOS>MOLECULE
mol_data/opt/b3lyp/geoms/mol2/5ah5ah5ah.out
 29 31 0 0 0
SMALL
GASTEIGER

@<TRIPOS>ATOM
      1 C          -1.9363   -1.9441    0.6944 C.ar    1  LIG1       -0.0219
      2 C          -0.7318   -1.9476    0.0527 C.ar    1  LIG1       -0.0334
      3 C          -0.2309   -0.6324   -0.2122 C.ar    1  LIG1        0.0400
      4 C          -1.0808    0.3649    0.2473 C.ar    1  LIG1        0.0465
      5 S          -2.4981   -0.3403    1.0180 S.2     1  LIG1       -0.0942
      6 H          -2.5243   -2.7962    1.0050 H       1  LIG1        0.0694
      7 H          -0.2036   -2.8517   -0.2306 H       1  LIG1        0.0641
      8 N           0.9955   -0.4073   -0.8449 N.pl3   1  LIG1       -0.3571
      9 H           1.2511   -1.1418   -1.4936 H       1  LIG1        0.1424
     10 H           1.0520    0.5023   -1.2901 H       1  LIG1        0.1424
     11 C          -0.8955    1.7959    0.1450 C.ar    1  LIG1        0.0301
     12 C           0.2886    2.5035    0.1751 C.ar    1  LIG1       -0.0250
     13 C           0.1269    3.9142    0.0285 C.ar    1  LIG1        0.0406
     14 C          -1.2006    4.2954   -0.1065 C.ar    1  LIG1        0.0471
     15 S          -2.2542    2.8850   -0.0656 S.2     1  LIG1       -0.0853
     16 H           1.2474    2.0343    0.3668 H       1  LIG1        0.0648
     17 N           1.2078    4.8003    0.0687 N.pl3   1  LIG1       -0.3570
     18 H           2.0694    4.3982   -0.2794 H       1  LIG1        0.1424
     19 H           1.0118    5.6874   -0.3822 H       1  LIG1        0.1424
     20 C          -1.7214    5.6356   -0.2657 C.ar    1  LIG1        0.0295
     21 C          -1.2263    6.8109    0.2605 C.ar    1  LIG1       -0.0257
     22 C          -1.9736    7.9747   -0.1148 C.ar    1  LIG1        0.0323
     23 C          -3.0378    7.6701   -0.9272 C.ar    1  LIG1       -0.0031
     24 S          -3.1375    5.9629   -1.2531 S.2     1  LIG1       -0.0942
     25 H          -3.7794    8.3432   -1.3338 H       1  LIG1        0.0712
     26 H          -0.4013    6.8370    0.9640 H       1  LIG1        0.0647
     27 N          -1.6708    9.2480    0.3910 N.pl3   1  LIG1       -0.3575
     28 H          -0.6779    9.4109    0.5034 H       1  LIG1        0.1423
     29 H          -2.0912   10.0039   -0.1345 H       1  LIG1        0.1423
@<TRIPOS>BOND
     1     9     8    1
     2    25    23    1
     3    10     8    1
     4    24    23   ar
     5    24    20   ar
     6    23    22   ar
     7     8     3    1
     8    19    17    1
     9    18    17    1
    10    20    14    1
    11    20    21   ar
    12     7     2    1
    13     3     2   ar
    14     3     4   ar
    15    29    27    1
    16    22    21   ar
    17    22    27    1
    18    14    15   ar
    19    14    13   ar
    20    15    11   ar
    21    13    17    1
    22    13    12   ar
    23     2     1   ar
    24    11    12   ar
    25    11     4    1
    26    12    16    1
    27     4     5   ar
    28    21    26    1
    29    27    28    1
    30     1     6    1
    31     1     5   ar
