@<TRIPOS>MOLECULE
mol_data/opt/b3lyp/geoms/mol2/5ah5ah5ah5ah-.out
 38 41 0 0 0
SMALL
GASTEIGER

@<TRIPOS>ATOM
      1 C          -1.6855   -1.9843    1.1157 C.ar    1  LIG1       -0.0219
      2 C          -0.6881   -2.0103    0.1844 C.ar    1  LIG1       -0.0334
      3 C          -0.2588   -0.7047   -0.2175 C.ar    1  LIG1        0.0400
      4 C          -0.9500    0.3085    0.4345 C.ar    1  LIG1        0.0465
      5 S          -2.1275   -0.3704    1.5537 S.2     1  LIG1       -0.0942
      6 H          -2.1820   -2.8254    1.5787 H       1  LIG1        0.0694
      7 H          -0.2612   -2.9241   -0.2146 H       1  LIG1        0.0641
      8 N           0.7630   -0.5021   -1.1495 N.pl3   1  LIG1       -0.3571
      9 H           0.8382   -1.2490   -1.8293 H       1  LIG1        0.1424
     10 H           0.7086    0.4001   -1.6097 H       1  LIG1        0.1424
     11 C          -0.7822    1.7353    0.2694 C.ar    1  LIG1        0.0301
     12 C           0.3755    2.4259   -0.0268 C.ar    1  LIG1       -0.0250
     13 C           0.1976    3.8366   -0.1429 C.ar    1  LIG1        0.0406
     14 C          -1.1140    4.2373    0.0785 C.ar    1  LIG1        0.0472
     15 S          -2.1356    2.8416    0.4135 S.2     1  LIG1       -0.0853
     16 H           1.3450    1.9444   -0.0936 H       1  LIG1        0.0648
     17 N           1.2587    4.7058   -0.4113 N.pl3   1  LIG1       -0.3570
     18 H           2.0028    4.2769   -0.9472 H       1  LIG1        0.1424
     19 H           0.9628    5.5789   -0.8338 H       1  LIG1        0.1424
     20 C          -1.6414    5.5810    0.0489 C.ar    1  LIG1        0.0301
     21 C          -0.9951    6.7584    0.3716 C.ar    1  LIG1       -0.0250
     22 C          -1.8007    7.9255    0.2153 C.ar    1  LIG1        0.0406
     23 C          -3.0866    7.6422   -0.2240 C.ar    1  LIG1        0.0471
     24 S          -3.2892    5.9087   -0.4590 S.2     1  LIG1       -0.0853
     25 H           0.0080    6.7839    0.7827 H       1  LIG1        0.0648
     26 N          -1.3320    9.2062    0.5247 N.pl3   1  LIG1       -0.3570
     27 H          -0.3347    9.3123    0.3854 H       1  LIG1        0.1424
     28 H          -1.8458    9.9420    0.0523 H       1  LIG1        0.1424
     29 C          -4.1577    8.5798   -0.4790 C.ar    1  LIG1        0.0295
     30 C          -4.4197    9.7716    0.1653 C.ar    1  LIG1       -0.0257
     31 C          -5.5533   10.4762   -0.3564 C.ar    1  LIG1        0.0323
     32 C          -6.1470    9.8082   -1.3988 C.ar    1  LIG1       -0.0031
     33 S          -5.3273    8.3162   -1.7639 S.2     1  LIG1       -0.0942
     34 H          -7.0283   10.0924   -1.9561 H       1  LIG1        0.0712
     35 H          -3.8710   10.0973    1.0422 H       1  LIG1        0.0647
     36 N          -6.0230   11.6636    0.2253 N.pl3   1  LIG1       -0.3575
     37 H          -5.2835   12.2623    0.5712 H       1  LIG1        0.1423
     38 H          -6.6469   12.1896   -0.3731 H       1  LIG1        0.1423
@<TRIPOS>BOND
     1    34    32    1
     2     9     8    1
     3    33    32   ar
     4    33    29   ar
     5    10     8    1
     6    32    31   ar
     7     8     3    1
     8    18    17    1
     9    19    17    1
    10    29    23    1
    11    29    30   ar
    12    24    23   ar
    13    24    20   ar
    14    17    13    1
    15    38    36    1
    16    31    30   ar
    17    31    36    1
    18    23    22   ar
    19     3     2   ar
    20     3     4   ar
    21     7     2    1
    22    13    12   ar
    23    13    14   ar
    24    16    12    1
    25    12    11   ar
    26    20    14    1
    27    20    21   ar
    28    28    26    1
    29    14    15   ar
    30    30    35    1
    31     2     1   ar
    32    22    21   ar
    33    22    26    1
    34    36    37    1
    35    11    15   ar
    36    11     4    1
    37    21    25    1
    38    27    26    1
    39     4     5   ar
    40     1     5   ar
    41     1     6    1
