@<TRIPOS>MOLECULE
mol_data/opt/b3lyp/geoms/mol2/5ah5ah5ah-5ah-.out
 38 41 0 0 0
SMALL
GASTEIGER

@<TRIPOS>ATOM
      1 C          -1.6936   -1.9848    1.1075 C.ar    1  LIG1       -0.0219
      2 C          -0.6897   -2.0103    0.1832 C.ar    1  LIG1       -0.0334
      3 C          -0.2577   -0.7045   -0.2149 C.ar    1  LIG1        0.0400
      4 C          -0.9534    0.3083    0.4326 C.ar    1  LIG1        0.0465
      5 S          -2.1388   -0.3712    1.5432 S.2     1  LIG1       -0.0942
      6 H          -2.1934   -2.8262    1.5665 H       1  LIG1        0.0694
      7 H          -0.2599   -2.9239   -0.2132 H       1  LIG1        0.0641
      8 N           0.7707   -0.5013   -1.1397 N.pl3   1  LIG1       -0.3571
      9 H           0.8509   -1.2479   -1.8193 H       1  LIG1        0.1424
     10 H           0.7195    0.4011   -1.5998 H       1  LIG1        0.1424
     11 C          -0.7846    1.7352    0.2694 C.ar    1  LIG1        0.0301
     12 C           0.3751    2.4261   -0.0183 C.ar    1  LIG1       -0.0250
     13 C           0.1979    3.8367   -0.1349 C.ar    1  LIG1        0.0406
     14 C          -1.1152    4.2373    0.0775 C.ar    1  LIG1        0.0472
     15 S          -2.1390    2.8413    0.4048 S.2     1  LIG1       -0.0853
     16 H           1.3450    1.9446   -0.0785 H       1  LIG1        0.0648
     17 N           1.2608    4.7062   -0.3953 N.pl3   1  LIG1       -0.3570
     18 H           2.0084    4.2777   -0.9269 H       1  LIG1        0.1424
     19 H           0.9678    5.5797   -0.8190 H       1  LIG1        0.1424
     20 C          -1.6425    5.5810    0.0449 C.ar    1  LIG1        0.0301
     21 C          -0.9987    6.7582    0.3731 C.ar    1  LIG1       -0.0250
     22 C          -1.8031    7.9254    0.2116 C.ar    1  LIG1        0.0406
     23 C          -3.0857    7.6423   -0.2372 C.ar    1  LIG1        0.0471
     24 S          -3.2865    5.9089   -0.4749 S.2     1  LIG1       -0.0853
     25 H           0.0014    6.7835    0.7916 H       1  LIG1        0.0648
     26 N          -1.3368    9.2059    0.5253 N.pl3   1  LIG1       -0.3570
     27 H          -0.3384    9.3120    0.3940 H       1  LIG1        0.1424
     28 H          -1.8467    9.9420    0.0492 H       1  LIG1        0.1424
     29 C          -4.1550    8.5800   -0.4995 C.ar    1  LIG1        0.0295
     30 C          -4.4215    9.7716    0.1434 C.ar    1  LIG1       -0.0257
     31 C          -5.5514   10.4763   -0.3860 C.ar    1  LIG1        0.0323
     32 C          -6.1377    9.8087   -1.4329 C.ar    1  LIG1       -0.0031
     33 S          -5.3154    8.3169   -1.7927 S.2     1  LIG1       -0.0942
     34 H          -7.0151   10.0932   -1.9964 H       1  LIG1        0.0712
     35 H          -3.8792   10.0969    1.0243 H       1  LIG1        0.0647
     36 N          -6.0253   11.6635    0.1928 N.pl3   1  LIG1       -0.3575
     37 H          -5.2883   12.2623    0.5438 H       1  LIG1        0.1423
     38 H          -6.6452   12.1896   -0.4098 H       1  LIG1        0.1423
@<TRIPOS>BOND
     1    34    32    1
     2     9     8    1
     3    33    32   ar
     4    33    29   ar
     5    10     8    1
     6    32    31   ar
     7     8     3    1
     8    18    17    1
     9    19    17    1
    10    29    23    1
    11    29    30   ar
    12    24    23   ar
    13    24    20   ar
    14    38    36    1
    15    17    13    1
    16    31    30   ar
    17    31    36    1
    18    23    22   ar
    19     3     2   ar
    20     3     4   ar
    21     7     2    1
    22    13    12   ar
    23    13    14   ar
    24    16    12    1
    25    12    11   ar
    26    20    14    1
    27    20    21   ar
    28    28    26    1
    29    14    15   ar
    30    30    35    1
    31     2     1   ar
    32    36    37    1
    33    22    21   ar
    34    22    26    1
    35    11    15   ar
    36    11     4    1
    37    21    25    1
    38    27    26    1
    39     4     5   ar
    40     1     5   ar
    41     1     6    1
