@<TRIPOS>MOLECULE
mol_data/opt/b3lyp/geoms/mol2/5ah5ah-5ah5ah.out
 38 41 0 0 0
SMALL
GASTEIGER

@<TRIPOS>ATOM
      1 C          -1.6770   -1.9888    1.1094 C.ar    1  LIG1       -0.0219
      2 C          -0.6870   -2.0112    0.1702 C.ar    1  LIG1       -0.0334
      3 C          -0.2607   -0.7041   -0.2297 C.ar    1  LIG1        0.0400
      4 C          -0.9465    0.3066    0.4317 C.ar    1  LIG1        0.0465
      5 S          -2.1153   -0.3768    1.5574 S.2     1  LIG1       -0.0942
      6 H          -2.1700   -2.8318    1.5727 H       1  LIG1        0.0694
      7 H          -0.2633   -2.9234   -0.2359 H       1  LIG1        0.0641
      8 N           0.7538   -0.4977   -1.1690 N.pl3   1  LIG1       -0.3571
      9 H           0.8240   -1.2421   -1.8521 H       1  LIG1        0.1424
     10 H           0.6956    0.4062   -1.6254 H       1  LIG1        0.1424
     11 C          -0.7798    1.7340    0.2711 C.ar    1  LIG1        0.0301
     12 C           0.3756    2.4258   -0.0313 C.ar    1  LIG1       -0.0250
     13 C           0.1969    3.8369   -0.1403 C.ar    1  LIG1        0.0406
     14 C          -1.1129    4.2368    0.0931 C.ar    1  LIG1        0.0472
     15 S          -2.1319    2.8398    0.4307 S.2     1  LIG1       -0.0853
     16 H           1.3444    1.9445   -0.1080 H       1  LIG1        0.0648
     17 N           1.2559    4.7072   -0.4133 N.pl3   1  LIG1       -0.3570
     18 H           1.9954    4.2807   -0.9575 H       1  LIG1        0.1424
     19 H           0.9567    5.5823   -0.8293 H       1  LIG1        0.1424
     20 C          -1.6403    5.5807    0.0733 C.ar    1  LIG1        0.0301
     21 C          -0.9916    6.7566    0.3964 C.ar    1  LIG1       -0.0250
     22 C          -1.7982    7.9244    0.2511 C.ar    1  LIG1        0.0406
     23 C          -3.0873    7.6431   -0.1800 C.ar    1  LIG1        0.0471
     24 S          -3.2918    5.9107   -0.4211 S.2     1  LIG1       -0.0853
     25 H           0.0146    6.7804    0.8001 H       1  LIG1        0.0648
     26 N          -1.3271    9.2037    0.5629 N.pl3   1  LIG1       -0.3570
     27 H          -0.3310    9.3106    0.4164 H       1  LIG1        0.1424
     28 H          -1.8444    9.9416    0.0975 H       1  LIG1        0.1424
     29 C          -4.1602    8.5819   -0.4228 C.ar    1  LIG1        0.0295
     30 C          -4.4175    9.7707    0.2288 C.ar    1  LIG1       -0.0257
     31 C          -5.5549   10.4776   -0.2813 C.ar    1  LIG1        0.0323
     32 C          -6.1561    9.8144   -1.3225 C.ar    1  LIG1       -0.0031
     33 S          -5.3389    8.3243   -1.7006 S.2     1  LIG1       -0.0942
     34 H          -7.0416   10.1010   -1.8719 H       1  LIG1        0.0712
     35 H          -3.8625   10.0926    1.1031 H       1  LIG1        0.0647
     36 N          -6.0205   11.6622    0.3093 N.pl3   1  LIG1       -0.3575
     37 H          -5.2786   12.2596    0.6523 H       1  LIG1        0.1423
     38 H          -6.6492   12.1907   -0.2820 H       1  LIG1        0.1423
@<TRIPOS>BOND
     1    34    32    1
     2     9     8    1
     3    33    32   ar
     4    33    29   ar
     5    10     8    1
     6    32    31   ar
     7     8     3    1
     8    18    17    1
     9    19    17    1
    10    29    23    1
    11    29    30   ar
    12    24    23   ar
    13    24    20   ar
    14    17    13    1
    15    38    36    1
    16    31    30   ar
    17    31    36    1
    18     7     2    1
    19     3     2   ar
    20     3     4   ar
    21    23    22   ar
    22    13    12   ar
    23    13    14   ar
    24    16    12    1
    25    12    11   ar
    26    20    14    1
    27    20    21   ar
    28    14    15   ar
    29    28    26    1
    30     2     1   ar
    31    30    35    1
    32    22    21   ar
    33    22    26    1
    34    11    15   ar
    35    11     4    1
    36    36    37    1
    37    21    25    1
    38    27    26    1
    39     4     5   ar
    40     1     5   ar
    41     1     6    1
