@<TRIPOS>MOLECULE
mol_data/opt/b3lyp/geoms/mol2/5ah5ah-5ah-5ah-.out
 38 41 0 0 0
SMALL
GASTEIGER

@<TRIPOS>ATOM
      1 C          -1.6846   -1.9883    1.1062 C.ar    1  LIG1       -0.0219
      2 C          -0.6883   -2.0112    0.1737 C.ar    1  LIG1       -0.0334
      3 C          -0.2594   -0.7042   -0.2241 C.ar    1  LIG1        0.0400
      4 C          -0.9497    0.3067    0.4322 C.ar    1  LIG1        0.0465
      5 S          -2.1260   -0.3760    1.5504 S.2     1  LIG1       -0.0942
      6 H          -2.1807   -2.8310    1.5668 H       1  LIG1        0.0694
      7 H          -0.2620   -2.9236   -0.2289 H       1  LIG1        0.0641
      8 N           0.7613   -0.4984   -1.1566 N.pl3   1  LIG1       -0.3571
      9 H           0.8361   -1.2431   -1.8388 H       1  LIG1        0.1424
     10 H           0.7063    0.4053   -1.6138 H       1  LIG1        0.1424
     11 C          -0.7821    1.7341    0.2718 C.ar    1  LIG1        0.0301
     12 C           0.3754    2.4257   -0.0232 C.ar    1  LIG1       -0.0250
     13 C           0.1974    3.8368   -0.1342 C.ar    1  LIG1        0.0406
     14 C          -1.1140    4.2368    0.0901 C.ar    1  LIG1        0.0472
     15 S          -2.1352    2.8399    0.4216 S.2     1  LIG1       -0.0853
     16 H           1.3447    1.9444   -0.0930 H       1  LIG1        0.0648
     17 N           1.2581    4.7069   -0.4006 N.pl3   1  LIG1       -0.3570
     18 H           2.0011    4.2803   -0.9400 H       1  LIG1        0.1424
     19 H           0.9617    5.5820   -0.8187 H       1  LIG1        0.1424
     20 C          -1.6413    5.5806    0.0659 C.ar    1  LIG1        0.0301
     21 C          -0.9950    6.7567    0.3930 C.ar    1  LIG1       -0.0250
     22 C          -1.8005    7.9244    0.2415 C.ar    1  LIG1        0.0406
     23 C          -3.0865    7.6429   -0.1987 C.ar    1  LIG1        0.0471
     24 S          -3.2892    5.9103   -0.4404 S.2     1  LIG1       -0.0853
     25 H           0.0083    6.7807    0.8039 H       1  LIG1        0.0648
     26 N          -1.3318    9.2039    0.5559 N.pl3   1  LIG1       -0.3570
     27 H          -0.3345    9.3105    0.4173 H       1  LIG1        0.1424
     28 H          -1.8453    9.9415    0.0860 H       1  LIG1        0.1424
     29 C          -4.1577    8.5816   -0.4496 C.ar    1  LIG1        0.0295
     30 C          -4.4194    9.7709    0.1993 C.ar    1  LIG1       -0.0257
     31 C          -5.5533   10.4773   -0.3192 C.ar    1  LIG1        0.0323
     32 C          -6.1474    9.8132   -1.3638 C.ar    1  LIG1       -0.0031
     33 S          -5.3277    8.3229   -1.7351 S.2     1  LIG1       -0.0942
     34 H          -7.0292   10.0995   -1.9196 H       1  LIG1        0.0712
     35 H          -3.8703   10.0935    1.0770 H       1  LIG1        0.0647
     36 N          -6.0228   11.6625    0.2673 N.pl3   1  LIG1       -0.3575
     37 H          -5.2833   12.2602    0.6146 H       1  LIG1        0.1423
     38 H          -6.6475   12.1904   -0.3287 H       1  LIG1        0.1423
@<TRIPOS>BOND
     1    34    32    1
     2     9     8    1
     3    33    32   ar
     4    33    29   ar
     5    10     8    1
     6    32    31   ar
     7     8     3    1
     8    18    17    1
     9    19    17    1
    10    29    23    1
    11    29    30   ar
    12    24    23   ar
    13    24    20   ar
    14    17    13    1
    15    38    36    1
    16    31    30   ar
    17    31    36    1
    18     7     2    1
    19     3     2   ar
    20     3     4   ar
    21    23    22   ar
    22    13    12   ar
    23    13    14   ar
    24    16    12    1
    25    12    11   ar
    26    20    14    1
    27    20    21   ar
    28    28    26    1
    29    14    15   ar
    30     2     1   ar
    31    30    35    1
    32    22    21   ar
    33    22    26    1
    34    36    37    1
    35    11    15   ar
    36    11     4    1
    37    21    25    1
    38    27    26    1
    39     4     5   ar
    40     1     5   ar
    41     1     6    1
