@<TRIPOS>MOLECULE
mol_data/opt/b3lyp/geoms/mol2/5ah5ah-5ah-.out
 29 31 0 0 0
SMALL
GASTEIGER

@<TRIPOS>ATOM
      1 C          -1.9321   -1.9472    0.6884 C.ar    1  LIG1       -0.0219
      2 C          -0.7315   -1.9480    0.0392 C.ar    1  LIG1       -0.0334
      3 C          -0.2322   -0.6317   -0.2228 C.ar    1  LIG1        0.0400
      4 C          -1.0790    0.3636    0.2465 C.ar    1  LIG1        0.0465
      5 S          -2.4916   -0.3449    1.0228 S.2     1  LIG1       -0.0942
      6 H          -2.5182   -2.8007    0.9988 H       1  LIG1        0.0694
      7 H          -0.2052   -2.8509   -0.2514 H       1  LIG1        0.0641
      8 N           0.9903   -0.4038   -0.8620 N.pl3   1  LIG1       -0.3571
      9 H           1.2426   -1.1359   -1.5147 H       1  LIG1        0.1424
     10 H           1.0438    0.5075   -1.3043 H       1  LIG1        0.1424
     11 C          -0.8943    1.7950    0.1495 C.ar    1  LIG1        0.0301
     12 C           0.2901    2.5024    0.1748 C.ar    1  LIG1       -0.0250
     13 C           0.1276    3.9138    0.0359 C.ar    1  LIG1        0.0406
     14 C          -1.2007    4.2957   -0.0882 C.ar    1  LIG1        0.0471
     15 S          -2.2542    2.8853   -0.0467 S.2     1  LIG1       -0.0853
     16 H           1.2502    2.0323    0.3576 H       1  LIG1        0.0648
     17 N           1.2090    4.7996    0.0727 N.pl3   1  LIG1       -0.3570
     18 H           2.0677    4.3993   -0.2844 H       1  LIG1        0.1424
     19 H           1.0095    5.6892   -0.3716 H       1  LIG1        0.1424
     20 C          -1.7224    5.6367   -0.2376 C.ar    1  LIG1        0.0295
     21 C          -1.2239    6.8095    0.2914 C.ar    1  LIG1       -0.0257
     22 C          -1.9734    7.9751   -0.0737 C.ar    1  LIG1        0.0323
     23 C          -3.0427    7.6746   -0.8810 C.ar    1  LIG1       -0.0031
     24 S          -3.1445    5.9690   -1.2146 S.2     1  LIG1       -0.0942
     25 H          -3.7866    8.3497   -1.2796 H       1  LIG1        0.0712
     26 H          -0.3947    6.8319    0.9898 H       1  LIG1        0.0647
     27 N          -1.6673    9.2459    0.4365 N.pl3   1  LIG1       -0.3575
     28 H          -0.6738    9.4081    0.5439 H       1  LIG1        0.1423
     29 H          -2.0906   10.0044   -0.0829 H       1  LIG1        0.1423
@<TRIPOS>BOND
     1     9     8    1
     2    10     8    1
     3    25    23    1
     4    24    23   ar
     5    24    20   ar
     6    23    22   ar
     7     8     3    1
     8    19    17    1
     9    18    17    1
    10     7     2    1
    11    20    14    1
    12    20    21   ar
    13     3     2   ar
    14     3     4   ar
    15    14    15   ar
    16    14    13   ar
    17    29    27    1
    18    22    21   ar
    19    22    27    1
    20    15    11   ar
    21    13    17    1
    22    13    12   ar
    23     2     1   ar
    24    11    12   ar
    25    11     4    1
    26    12    16    1
    27     4     5   ar
    28    21    26    1
    29    27    28    1
    30     1     6    1
    31     1     5   ar
