@<TRIPOS>MOLECULE
mol_data/opt/b3lyp/geoms/mol2/5ah5ah5ah-5ah.out
 38 41 0 0 0
SMALL
GASTEIGER

@<TRIPOS>ATOM
      1 C          -1.6942   -1.9859    1.1022 C.ar    1  LIG1       -0.0219
      2 C          -0.6899   -2.0104    0.1783 C.ar    1  LIG1       -0.0334
      3 C          -0.2577   -0.7041   -0.2182 C.ar    1  LIG1        0.0400
      4 C          -0.9538    0.3080    0.4302 C.ar    1  LIG1        0.0465
      5 S          -2.1396   -0.3728    1.5395 S.2     1  LIG1       -0.0942
      6 H          -2.1942   -2.8278    1.5600 H       1  LIG1        0.0694
      7 H          -0.2600   -2.9235   -0.2190 H       1  LIG1        0.0641
      8 N           0.7710   -0.4999   -1.1423 N.pl3   1  LIG1       -0.3571
      9 H           0.8516   -1.2458   -1.8225 H       1  LIG1        0.1424
     10 H           0.7199    0.4030   -1.6015 H       1  LIG1        0.1424
     11 C          -0.7849    1.7350    0.2687 C.ar    1  LIG1        0.0301
     12 C           0.3750    2.4262   -0.0178 C.ar    1  LIG1       -0.0250
     13 C           0.1979    3.8370   -0.1329 C.ar    1  LIG1        0.0406
     14 C          -1.1154    4.2374    0.0796 C.ar    1  LIG1        0.0472
     15 S          -2.1393    2.8410    0.4049 S.2     1  LIG1       -0.0853
     16 H           1.3449    1.9448   -0.0783 H       1  LIG1        0.0648
     17 N           1.2608    4.7068   -0.3920 N.pl3   1  LIG1       -0.3570
     18 H           2.0087    4.2789   -0.9236 H       1  LIG1        0.1424
     19 H           0.9680    5.5807   -0.8149 H       1  LIG1        0.1424
     20 C          -1.6426    5.5811    0.0484 C.ar    1  LIG1        0.0301
     21 C          -0.9988    6.7580    0.3780 C.ar    1  LIG1       -0.0250
     22 C          -1.8032    7.9253    0.2176 C.ar    1  LIG1        0.0406
     23 C          -3.0857    7.6427   -0.2318 C.ar    1  LIG1        0.0471
     24 S          -3.2865    5.9096   -0.4714 S.2     1  LIG1       -0.0853
     25 H           0.0012    6.7828    0.7967 H       1  LIG1        0.0648
     26 N          -1.3369    9.2054    0.5329 N.pl3   1  LIG1       -0.3570
     27 H          -0.3386    9.3118    0.4014 H       1  LIG1        0.1424
     28 H          -1.8470    9.9421    0.0578 H       1  LIG1        0.1424
     29 C          -4.1549    8.5808   -0.4932 C.ar    1  LIG1        0.0295
     30 C          -4.4217    9.7715    0.1511 C.ar    1  LIG1       -0.0257
     31 C          -5.5514   10.4769   -0.3778 C.ar    1  LIG1        0.0323
     32 C          -6.1373    9.8107   -1.4257 C.ar    1  LIG1       -0.0031
     33 S          -5.3149    8.3193   -1.7872 S.2     1  LIG1       -0.0942
     34 H          -7.0145   10.0958   -1.9892 H       1  LIG1        0.0712
     35 H          -3.8797   10.0957    1.0327 H       1  LIG1        0.0647
     36 N          -6.0255   11.6633    0.2024 N.pl3   1  LIG1       -0.3575
     37 H          -5.2887   12.2617    0.5544 H       1  LIG1        0.1423
     38 H          -6.6453   12.1901   -0.3997 H       1  LIG1        0.1423
@<TRIPOS>BOND
     1    34    32    1
     2     9     8    1
     3    33    32   ar
     4    33    29   ar
     5    10     8    1
     6    32    31   ar
     7     8     3    1
     8    18    17    1
     9    19    17    1
    10    29    23    1
    11    29    30   ar
    12    24    23   ar
    13    24    20   ar
    14    38    36    1
    15    17    13    1
    16    31    30   ar
    17    31    36    1
    18    23    22   ar
    19     7     2    1
    20     3     2   ar
    21     3     4   ar
    22    13    12   ar
    23    13    14   ar
    24    16    12    1
    25    12    11   ar
    26    20    14    1
    27    20    21   ar
    28    28    26    1
    29    14    15   ar
    30    30    35    1
    31     2     1   ar
    32    36    37    1
    33    22    21   ar
    34    22    26    1
    35    11    15   ar
    36    11     4    1
    37    21    25    1
    38    27    26    1
    39     4     5   ar
    40     1     5   ar
    41     1     6    1
