@<TRIPOS>MOLECULE
mol_data/opt/b3lyp/geoms/mol2/5ai.out
 12 12 0 0 0
SMALL
GASTEIGER

@<TRIPOS>ATOM
      1 C          -2.1394   -1.7728   -0.0474 C.ar    1  LIG1       -0.0241
      2 C          -0.7755   -1.7303   -0.0845 C.ar    1  LIG1       -0.0518
      3 C          -0.2418   -0.4002    0.0118 C.ar    1  LIG1       -0.0434
      4 C          -1.2384    0.5328    0.1197 C.ar    1  LIG1       -0.0214
      5 S          -2.8203   -0.1838    0.1066 S.2     1  LIG1       -0.1048
      6 H          -2.7858   -2.6378   -0.1010 H       1  LIG1        0.0693
      7 H          -1.1338    1.6057    0.2070 H       1  LIG1        0.0696
      8 H          -0.1560   -2.6160   -0.1773 H       1  LIG1        0.0625
      9 C           1.2293   -0.0843   -0.0057 C.3     1  LIG1       -0.0392
     10 H           1.4073    0.9909    0.0797 H       1  LIG1        0.0278
     11 H           1.6998   -0.4282   -0.9342 H       1  LIG1        0.0278
     12 H           1.7530   -0.5767    0.8219 H       1  LIG1        0.0278
@<TRIPOS>BOND
     1    11     9    1
     2     8     2    1
     3     6     1    1
     4     2     1   ar
     5     2     3   ar
     6     1     5   ar
     7     9     3    1
     8     9    10    1
     9     9    12    1
    10     3     4   ar
    11     5     4   ar
    12     4     7    1
