@<TRIPOS>MOLECULE
mol_data/opt/b3lyp/geoms/mol2/5ai5ai-5ai5ai.out
 42 45 0 0 0
SMALL
GASTEIGER

@<TRIPOS>ATOM
      1 C          -1.8349   -1.8728   -1.3516 C.ar    1  LIG1       -0.0235
      2 C          -0.8763   -1.9758   -0.3845 C.ar    1  LIG1       -0.0512
      3 C          -0.3792   -0.7162    0.0772 C.ar    1  LIG1       -0.0352
      4 C          -0.9830    0.3486   -0.5710 C.ar    1  LIG1        0.0288
      5 S          -2.1579   -0.2201   -1.7499 S.2     1  LIG1       -0.0959
      6 H          -2.3717   -2.6666   -1.8517 H       1  LIG1        0.0693
      7 H          -0.5320   -2.9250    0.0123 H       1  LIG1        0.0626
      8 C           0.6534   -0.6009    1.1661 C.3     1  LIG1       -0.0386
      9 H           0.5459    0.3336    1.7229 H       1  LIG1        0.0278
     10 H           1.6743   -0.6286    0.7644 H       1  LIG1        0.0278
     11 H           0.5630   -1.4328    1.8712 H       1  LIG1        0.0278
     12 C          -0.7571    1.7726   -0.3909 C.ar    1  LIG1        0.0270
     13 C           0.4204    2.4329   -0.1170 C.ar    1  LIG1       -0.0429
     14 C           0.2994    3.8464    0.0152 C.ar    1  LIG1       -0.0346
     15 C          -1.0031    4.2806   -0.1764 C.ar    1  LIG1        0.0294
     16 S          -2.0731    2.9257   -0.5040 S.2     1  LIG1       -0.0869
     17 H           1.3703    1.9183   -0.0312 H       1  LIG1        0.0632
     18 C           1.4724    4.7310    0.3425 C.3     1  LIG1       -0.0386
     19 H           1.1618    5.6130    0.9089 H       1  LIG1        0.0278
     20 H           1.9817    5.0849   -0.5628 H       1  LIG1        0.0278
     21 H           2.2119    4.1849    0.9357 H       1  LIG1        0.0278
     22 C          -1.5292    5.6325   -0.1345 C.ar    1  LIG1        0.0270
     23 C          -0.9198    6.8106   -0.5098 C.ar    1  LIG1       -0.0429
     24 C          -1.7130    7.9803   -0.3282 C.ar    1  LIG1       -0.0346
     25 C          -2.9658    7.6892    0.1866 C.ar    1  LIG1        0.0294
     26 S          -3.1471    5.9632    0.4571 S.2     1  LIG1       -0.0869
     27 H           0.0764    6.8429   -0.9347 H       1  LIG1        0.0632
     28 C          -1.2080    9.3597   -0.6568 C.3     1  LIG1       -0.0386
     29 H          -1.6842   10.1184   -0.0303 H       1  LIG1        0.0278
     30 H          -1.4047    9.6270   -1.7028 H       1  LIG1        0.0278
     31 H          -0.1257    9.4194   -0.5071 H       1  LIG1        0.0278
     32 C          -4.0565    8.5969    0.4999 C.ar    1  LIG1        0.0264
     33 C          -4.4440    9.7417   -0.1605 C.ar    1  LIG1       -0.0435
     34 C          -5.5680   10.4079    0.4231 C.ar    1  LIG1       -0.0428
     35 C          -6.0279    9.7459    1.5307 C.ar    1  LIG1       -0.0208
     36 S          -5.0994    8.3260    1.8901 S.2     1  LIG1       -0.0959
     37 H          -6.8659   10.0133    2.1601 H       1  LIG1        0.0696
     38 H          -3.9620   10.0821   -1.0695 H       1  LIG1        0.0632
     39 C          -6.1715   11.6704   -0.1308 C.3     1  LIG1       -0.0392
     40 H          -7.0337   11.9908    0.4596 H       1  LIG1        0.0278
     41 H          -6.5066   11.5311   -1.1650 H       1  LIG1        0.0278
     42 H          -5.4448   12.4911   -0.1348 H       1  LIG1        0.0278
@<TRIPOS>BOND
     1     6     1    1
     2     5     1   ar
     3     5     4   ar
     4    30    28    1
     5     1     2   ar
     6    41    39    1
     7    38    33    1
     8    27    23    1
     9    28    31    1
    10    28    24    1
    11    28    29    1
    12     4    12    1
    13     4     3   ar
    14    20    18    1
    15    23    24   ar
    16    23    22   ar
    17    16    12   ar
    18    16    15   ar
    19    12    13   ar
    20     2     7    1
    21     2     3   ar
    22    24    25   ar
    23    15    22    1
    24    15    14   ar
    25    33    34   ar
    26    33    32   ar
    27    42    39    1
    28    22    26   ar
    29    39    34    1
    30    39    40    1
    31    13    17    1
    32    13    14   ar
    33    14    18    1
    34     3     8    1
    35    25    26   ar
    36    25    32    1
    37    18    19    1
    38    18    21    1
    39    34    35   ar
    40    32    36   ar
    41    10     8    1
    42     8     9    1
    43     8    11    1
    44    35    36   ar
    45    35    37    1
