@<TRIPOS>MOLECULE
mol_data/opt/b3lyp/geoms/mol2/5ai5ai5ai-.out
 32 34 0 0 0
SMALL
GASTEIGER

@<TRIPOS>ATOM
      1 C          -2.0579   -1.8780   -0.8296 C.ar    1  LIG1       -0.0235
      2 C          -0.8554   -1.9457   -0.1862 C.ar    1  LIG1       -0.0512
      3 C          -0.2854   -0.6684    0.1154 C.ar    1  LIG1       -0.0352
      4 C          -1.0860    0.3732   -0.3225 C.ar    1  LIG1        0.0288
      5 S          -2.5362   -0.2384   -1.1078 S.2     1  LIG1       -0.0959
      6 H          -2.6919   -2.6910   -1.1545 H       1  LIG1        0.0693
      7 H          -0.3797   -2.8815    0.0875 H       1  LIG1        0.0626
      8 C           1.0171   -0.5142    0.8537 C.3     1  LIG1       -0.0386
      9 H           1.0534    0.4266    1.4090 H       1  LIG1        0.0278
     10 H           1.8762   -0.5262    0.1708 H       1  LIG1        0.0278
     11 H           1.1579   -1.3368    1.5616 H       1  LIG1        0.0278
     12 C          -0.8624    1.8051   -0.2116 C.ar    1  LIG1        0.0270
     13 C           0.3212    2.5037   -0.2993 C.ar    1  LIG1       -0.0429
     14 C           0.1992    3.9140   -0.1302 C.ar    1  LIG1       -0.0346
     15 C          -1.1131    4.3044    0.0785 C.ar    1  LIG1        0.0294
     16 S          -2.1881    2.9151    0.0798 S.2     1  LIG1       -0.0869
     17 H           1.2694    2.0203   -0.5044 H       1  LIG1        0.0632
     18 C           1.3856    4.8397   -0.1683 C.3     1  LIG1       -0.0386
     19 H           1.2103    5.7382    0.4289 H       1  LIG1        0.0278
     20 H           1.6153    5.1647   -1.1909 H       1  LIG1        0.0278
     21 H           2.2781    4.3380    0.2182 H       1  LIG1        0.0278
     22 C          -1.6464    5.6417    0.2786 C.ar    1  LIG1        0.0264
     23 C          -1.2492    6.8253   -0.3024 C.ar    1  LIG1       -0.0435
     24 C          -1.9933    7.9710    0.1240 C.ar    1  LIG1       -0.0428
     25 C          -2.9627    7.6342    1.0312 C.ar    1  LIG1       -0.0208
     26 S          -2.9742    5.9381    1.3932 S.2     1  LIG1       -0.0959
     27 H          -3.6764    8.2906    1.5105 H       1  LIG1        0.0696
     28 H          -0.4665    6.8735   -1.0506 H       1  LIG1        0.0632
     29 C          -1.7434    9.3660   -0.3826 C.3     1  LIG1       -0.0392
     30 H          -2.4407   10.0808    0.0619 H       1  LIG1        0.0278
     31 H          -1.8566    9.4203   -1.4714 H       1  LIG1        0.0278
     32 H          -0.7263    9.6996   -0.1467 H       1  LIG1        0.0278
@<TRIPOS>BOND
     1    31    29    1
     2    20    18    1
     3     6     1    1
     4     5     1   ar
     5     5     4   ar
     6    28    23    1
     7     1     2   ar
     8    17    13    1
     9    29    32    1
    10    29    30    1
    11    29    24    1
    12     4    12    1
    13     4     3   ar
    14    23    24   ar
    15    23    22   ar
    16    13    12   ar
    17    13    14   ar
    18    12    16   ar
    19     2     7    1
    20     2     3   ar
    21    18    14    1
    22    18    21    1
    23    18    19    1
    24    14    15   ar
    25    15    16   ar
    26    15    22    1
    27     3     8    1
    28    24    25   ar
    29    10     8    1
    30    22    26   ar
    31     8     9    1
    32     8    11    1
    33    25    26   ar
    34    25    27    1
