@<TRIPOS>MOLECULE
mol_data/opt/b3lyp/geoms/mol2/5ai5ai-5ai-5ai-.out
 42 45 0 0 0
SMALL
GASTEIGER

@<TRIPOS>ATOM
      1 C          -1.8222   -1.8731   -1.3616 C.ar    1  LIG1       -0.0235
      2 C          -0.8719   -1.9758   -0.3864 C.ar    1  LIG1       -0.0512
      3 C          -0.3792   -0.7160    0.0796 C.ar    1  LIG1       -0.0352
      4 C          -0.9779    0.3485   -0.5735 C.ar    1  LIG1        0.0288
      5 S          -2.1425   -0.2204   -1.7625 S.2     1  LIG1       -0.0959
      6 H          -2.3547   -2.6669   -1.8664 H       1  LIG1        0.0693
      7 H          -0.5307   -2.9248    0.0133 H       1  LIG1        0.0626
      8 C           0.6440   -0.6007    1.1774 C.3     1  LIG1       -0.0386
      9 H           0.5314    0.3337    1.7334 H       1  LIG1        0.0278
     10 H           1.6684   -0.6279    0.7845 H       1  LIG1        0.0278
     11 H           0.5478   -1.4328    1.8815 H       1  LIG1        0.0278
     12 C          -0.7537    1.7727   -0.3916 C.ar    1  LIG1        0.0270
     13 C           0.4213    2.4331   -0.1074 C.ar    1  LIG1       -0.0429
     14 C           0.2989    3.8465    0.0239 C.ar    1  LIG1       -0.0346
     15 C          -1.0019    4.2805   -0.1791 C.ar    1  LIG1        0.0294
     16 S          -2.0688    2.9255   -0.5160 S.2     1  LIG1       -0.0869
     17 H           1.3704    1.9185   -0.0133 H       1  LIG1        0.0632
     18 C           1.4688    4.7312    0.3618 C.3     1  LIG1       -0.0386
     19 H           1.1530    5.6131    0.9255 H       1  LIG1        0.0278
     20 H           1.9862    5.0853   -0.5388 H       1  LIG1        0.0278
     21 H           2.2031    4.1851    0.9615 H       1  LIG1        0.0278
     22 C          -1.5284    5.6324   -0.1419 C.ar    1  LIG1        0.0270
     23 C          -0.9162    6.8103   -0.5128 C.ar    1  LIG1       -0.0429
     24 C          -1.7106    7.9801   -0.3376 C.ar    1  LIG1       -0.0346
     25 C          -2.9674    7.6892    0.1676 C.ar    1  LIG1        0.0294
     26 S          -3.1510    5.9632    0.4368 S.2     1  LIG1       -0.0869
     27 H           0.0834    6.8425   -0.9299 H       1  LIG1        0.0632
     28 C          -1.2030    9.3594   -0.6623 C.3     1  LIG1       -0.0386
     29 H          -1.6841   10.1182   -0.0397 H       1  LIG1        0.0278
     30 H          -1.3913    9.6266   -1.7098 H       1  LIG1        0.0278
     31 H          -0.1219    9.4190   -0.5039 H       1  LIG1        0.0278
     32 C          -4.0605    8.5970    0.4721 C.ar    1  LIG1        0.0264
     33 C          -4.4425    9.7417   -0.1915 C.ar    1  LIG1       -0.0435
     34 C          -5.5711   10.4081    0.3829 C.ar    1  LIG1       -0.0428
     35 C          -6.0399    9.7465    1.4869 C.ar    1  LIG1       -0.0208
     36 S          -5.1144    8.3265    1.8541 S.2     1  LIG1       -0.0959
     37 H          -6.8829   10.0140    2.1097 H       1  LIG1        0.0696
     38 H          -3.9533   10.0819   -1.0967 H       1  LIG1        0.0632
     39 C          -6.1700   11.6705   -0.1763 C.3     1  LIG1       -0.0392
     40 H          -7.0370   11.9911    0.4070 H       1  LIG1        0.0278
     41 H          -6.4968   11.5307   -1.2131 H       1  LIG1        0.0278
     42 H          -5.4434   12.4911   -0.1747 H       1  LIG1        0.0278
@<TRIPOS>BOND
     1     6     1    1
     2     5     1   ar
     3     5     4   ar
     4    30    28    1
     5     1     2   ar
     6    41    39    1
     7    38    33    1
     8    27    23    1
     9    28    31    1
    10    28    24    1
    11    28    29    1
    12     4    12    1
    13     4     3   ar
    14    20    18    1
    15    16    12   ar
    16    16    15   ar
    17    23    24   ar
    18    23    22   ar
    19    12    13   ar
    20     2     7    1
    21     2     3   ar
    22    24    25   ar
    23    33    34   ar
    24    33    32   ar
    25    15    22    1
    26    15    14   ar
    27    39    42    1
    28    39    34    1
    29    39    40    1
    30    22    26   ar
    31    13    17    1
    32    13    14   ar
    33    14    18    1
    34     3     8    1
    35    25    26   ar
    36    25    32    1
    37    18    19    1
    38    18    21    1
    39    34    35   ar
    40    32    36   ar
    41    10     8    1
    42     8     9    1
    43     8    11    1
    44    35    36   ar
    45    35    37    1
