@<TRIPOS>MOLECULE
mol_data/opt/b3lyp/geoms/mol2/5ai5ai5ai-5ai.out
 42 45 0 0 0
SMALL
GASTEIGER

@<TRIPOS>ATOM
      1 C          -1.8134   -1.8755   -1.3646 C.ar    1  LIG1       -0.0235
      2 C          -0.8700   -1.9765   -0.3825 C.ar    1  LIG1       -0.0512
      3 C          -0.3802   -0.7160    0.0843 C.ar    1  LIG1       -0.0352
      4 C          -0.9738    0.3475   -0.5753 C.ar    1  LIG1        0.0288
      5 S          -2.1302   -0.2236   -1.7712 S.2     1  LIG1       -0.0959
      6 H          -2.3424   -2.6703   -1.8715 H       1  LIG1        0.0693
      7 H          -0.5319   -2.9249    0.0215 H       1  LIG1        0.0626
      8 C           0.6353   -0.5985    1.1890 C.3     1  LIG1       -0.0386
      9 H           0.5191    0.3371    1.7422 H       1  LIG1        0.0278
     10 H           1.6624   -0.6267    0.8033 H       1  LIG1        0.0278
     11 H           0.5341   -1.4290    1.8942 H       1  LIG1        0.0278
     12 C          -0.7508    1.7719   -0.3946 C.ar    1  LIG1        0.0270
     13 C           0.4223    2.4328   -0.1036 C.ar    1  LIG1       -0.0429
     14 C           0.2992    3.8466    0.0238 C.ar    1  LIG1       -0.0346
     15 C          -1.0001    4.2803   -0.1892 C.ar    1  LIG1        0.0294
     16 S          -2.0648    2.9247   -0.5308 S.2     1  LIG1       -0.0869
     17 H           1.3707    1.9183   -0.0018 H       1  LIG1        0.0632
     18 C           1.4669    4.7318    0.3678 C.3     1  LIG1       -0.0386
     19 H           1.1474    5.6151    0.9272 H       1  LIG1        0.0278
     20 H           1.9906    5.0836   -0.5301 H       1  LIG1        0.0278
     21 H           2.1968    4.1870    0.9739 H       1  LIG1        0.0278
     22 C          -1.5268    5.6323   -0.1583 C.ar    1  LIG1        0.0270
     23 C          -0.9116    6.8096   -0.5264 C.ar    1  LIG1       -0.0429
     24 C          -1.7075    7.9796   -0.3597 C.ar    1  LIG1       -0.0346
     25 C          -2.9682    7.6896    0.1358 C.ar    1  LIG1        0.0294
     26 S          -3.1539    5.9641    0.4070 S.2     1  LIG1       -0.0869
     27 H           0.0912    6.8411   -0.9355 H       1  LIG1        0.0632
     28 C          -1.1974    9.3584   -0.6831 C.3     1  LIG1       -0.0386
     29 H          -1.6836   10.1183   -0.0659 H       1  LIG1        0.0278
     30 H          -1.3775    9.6234   -1.7327 H       1  LIG1        0.0278
     31 H          -0.1177    9.4185   -0.5163 H       1  LIG1        0.0278
     32 C          -4.0638    8.5979    0.4301 C.ar    1  LIG1        0.0264
     33 C          -4.4411    9.7411   -0.2390 C.ar    1  LIG1       -0.0435
     34 C          -5.5740   10.4085    0.3255 C.ar    1  LIG1       -0.0428
     35 C          -6.0510    9.7492    1.4275 C.ar    1  LIG1       -0.0208
     36 S          -5.1281    8.3302    1.8046 S.2     1  LIG1       -0.0959
     37 H          -6.8986   10.0181    2.0432 H       1  LIG1        0.0696
     38 H          -3.9451   10.0793   -1.1413 H       1  LIG1        0.0632
     39 C          -6.1689   11.6697   -0.2407 C.3     1  LIG1       -0.0392
     40 H          -7.0403   11.9914    0.3354 H       1  LIG1        0.0278
     41 H          -6.4879   11.5279   -1.2797 H       1  LIG1        0.0278
     42 H          -5.4423   12.4904   -0.2353 H       1  LIG1        0.0278
@<TRIPOS>BOND
     1     6     1    1
     2     5     1   ar
     3     5     4   ar
     4    30    28    1
     5     1     2   ar
     6    41    39    1
     7    38    33    1
     8    27    23    1
     9    28    31    1
    10    28    24    1
    11    28    29    1
    12     4    12    1
    13     4     3   ar
    14    16    12   ar
    15    16    15   ar
    16    20    18    1
    17    23    24   ar
    18    23    22   ar
    19    12    13   ar
    20     2     7    1
    21     2     3   ar
    22    24    25   ar
    23    39    42    1
    24    39    34    1
    25    39    40    1
    26    33    34   ar
    27    33    32   ar
    28    15    22    1
    29    15    14   ar
    30    22    26   ar
    31    13    17    1
    32    13    14   ar
    33    14    18    1
    34     3     8    1
    35    25    26   ar
    36    25    32    1
    37    34    35   ar
    38    18    19    1
    39    18    21    1
    40    32    36   ar
    41    10     8    1
    42     8     9    1
    43     8    11    1
    44    35    36   ar
    45    35    37    1
