@<TRIPOS>MOLECULE
mol_data/opt/b3lyp/geoms/mol2/5ai5ai.out
 22 23 0 0 0
SMALL
GASTEIGER

@<TRIPOS>ATOM
      1 C          -2.1345   -1.8271   -0.4466 C.ar    1  LIG1       -0.0235
      2 C          -0.8046   -1.8637   -0.1401 C.ar    1  LIG1       -0.0512
      3 C          -0.2261   -0.5745    0.0891 C.ar    1  LIG1       -0.0352
      4 C          -1.1524    0.4429   -0.0577 C.ar    1  LIG1        0.0288
      5 S          -2.7318   -0.2030   -0.4827 S.2     1  LIG1       -0.0959
      6 H          -2.7991   -2.6550   -0.6505 H       1  LIG1        0.0693
      7 H          -0.2380   -2.7855   -0.0613 H       1  LIG1        0.0626
      8 C           1.2171   -0.3880    0.4734 C.3     1  LIG1       -0.0386
      9 H           1.3666    0.5432    1.0255 H       1  LIG1        0.0278
     10 H           1.8711   -0.3568   -0.4073 H       1  LIG1        0.0278
     11 H           1.5600   -1.2182    1.0989 H       1  LIG1        0.0278
     12 C          -0.9623    1.8787    0.0854 C.ar    1  LIG1        0.0264
     13 C           0.1100    2.6489   -0.3026 C.ar    1  LIG1       -0.0435
     14 C          -0.0247    4.0424   -0.0030 C.ar    1  LIG1       -0.0428
     15 C          -1.2185    4.3131    0.6113 C.ar    1  LIG1       -0.0208
     16 S          -2.1804    2.8897    0.8509 S.2     1  LIG1       -0.0959
     17 H          -1.5904    5.2747    0.9384 H       1  LIG1        0.0696
     18 H           0.9643    2.2350   -0.8261 H       1  LIG1        0.0632
     19 C           1.0162    5.0753   -0.3417 C.3     1  LIG1       -0.0392
     20 H           0.6963    6.0756   -0.0387 H       1  LIG1        0.0278
     21 H           1.2173    5.0998   -1.4189 H       1  LIG1        0.0278
     22 H           1.9675    4.8619    0.1593 H       1  LIG1        0.0278
@<TRIPOS>BOND
     1    21    19    1
     2    18    13    1
     3     6     1    1
     4     5     1   ar
     5     5     4   ar
     6     1     2   ar
     7    10     8    1
     8    19    20    1
     9    19    14    1
    10    19    22    1
    11    13    14   ar
    12    13    12   ar
    13     2     7    1
    14     2     3   ar
    15     4    12    1
    16     4     3   ar
    17    14    15   ar
    18    12    16   ar
    19     3     8    1
    20     8     9    1
    21     8    11    1
    22    15    16   ar
    23    15    17    1
