@<TRIPOS>MOLECULE
mol_data/opt/b3lyp/geoms/mol2/5ai5ai5ai.out
 32 34 0 0 0
SMALL
GASTEIGER

@<TRIPOS>ATOM
      1 C          -2.0589   -1.8797   -0.8211 C.ar    1  LIG1       -0.0235
      2 C          -0.8555   -1.9461   -0.1794 C.ar    1  LIG1       -0.0512
      3 C          -0.2850   -0.6681    0.1188 C.ar    1  LIG1       -0.0352
      4 C          -1.0863    0.3725   -0.3201 C.ar    1  LIG1        0.0288
      5 S          -2.5377   -0.2407   -1.1020 S.2     1  LIG1       -0.0959
      6 H          -2.6934   -2.6934   -1.1434 H       1  LIG1        0.0693
      7 H          -0.3793   -2.8813    0.0955 H       1  LIG1        0.0626
      8 C           1.0186   -0.5124    0.8547 C.3     1  LIG1       -0.0386
      9 H           1.0556    0.4295    1.4081 H       1  LIG1        0.0278
     10 H           1.8765   -0.5255    0.1705 H       1  LIG1        0.0278
     11 H           1.1606   -1.3336    1.5639 H       1  LIG1        0.0278
     12 C          -0.8627    1.8047   -0.2124 C.ar    1  LIG1        0.0270
     13 C           0.3208    2.5031   -0.3037 C.ar    1  LIG1       -0.0429
     14 C           0.1990    3.9138   -0.1371 C.ar    1  LIG1       -0.0346
     15 C          -1.1129    4.3045    0.0732 C.ar    1  LIG1        0.0294
     16 S          -2.1879    2.9152    0.0792 S.2     1  LIG1       -0.0869
     17 H           1.2686    2.0194   -0.5095 H       1  LIG1        0.0632
     18 C           1.3853    4.8394   -0.1791 C.3     1  LIG1       -0.0386
     19 H           1.2111    5.7390    0.4167 H       1  LIG1        0.0278
     20 H           1.6131    5.1625   -1.2028 H       1  LIG1        0.0278
     21 H           2.2785    4.3385    0.2067 H       1  LIG1        0.0278
     22 C          -1.6460    5.6421    0.2715 C.ar    1  LIG1        0.0264
     23 C          -1.2496    6.8247   -0.3122 C.ar    1  LIG1       -0.0435
     24 C          -1.9932    7.9712    0.1131 C.ar    1  LIG1       -0.0428
     25 C          -2.9613    7.6360    1.0223 C.ar    1  LIG1       -0.0208
     26 S          -2.9722    5.9406    1.3875 S.2     1  LIG1       -0.0959
     27 H          -3.6744    8.2933    1.5013 H       1  LIG1        0.0696
     28 H          -0.4681    6.8716   -1.0616 H       1  LIG1        0.0632
     29 C          -1.7440    9.3653   -0.3964 C.3     1  LIG1       -0.0392
     30 H          -2.4409   10.0808    0.0475 H       1  LIG1        0.0278
     31 H          -1.8584    9.4175   -1.4852 H       1  LIG1        0.0278
     32 H          -0.7266    9.6994   -0.1623 H       1  LIG1        0.0278
@<TRIPOS>BOND
     1    31    29    1
     2    20    18    1
     3     6     1    1
     4     5     1   ar
     5     5     4   ar
     6    28    23    1
     7     1     2   ar
     8    17    13    1
     9    29    32    1
    10    29    30    1
    11    29    24    1
    12     4    12    1
    13     4     3   ar
    14    23    24   ar
    15    23    22   ar
    16    13    12   ar
    17    13    14   ar
    18    12    16   ar
    19     2     7    1
    20     2     3   ar
    21    18    14    1
    22    18    21    1
    23    18    19    1
    24    14    15   ar
    25    15    16   ar
    26    15    22    1
    27    24    25   ar
    28     3     8    1
    29    10     8    1
    30    22    26   ar
    31     8     9    1
    32     8    11    1
    33    25    26   ar
    34    25    27    1
