@<TRIPOS>MOLECULE
mol_data/opt/b3lyp/geoms/mol2/5ai5ai-.out
 22 23 0 0 0
SMALL
GASTEIGER

@<TRIPOS>ATOM
      1 C          -2.1371   -1.8279   -0.4357 C.ar    1  LIG1       -0.0235
      2 C          -0.8055   -1.8639   -0.1369 C.ar    1  LIG1       -0.0512
      3 C          -0.2257   -0.5743    0.0867 C.ar    1  LIG1       -0.0352
      4 C          -1.1529    0.4428   -0.0566 C.ar    1  LIG1        0.0288
      5 S          -2.7347   -0.2038   -0.4712 S.2     1  LIG1       -0.0959
      6 H          -2.8029   -2.6561   -0.6342 H       1  LIG1        0.0693
      7 H          -0.2384   -2.7856   -0.0597 H       1  LIG1        0.0626
      8 C           1.2197   -0.3870    0.4624 C.3     1  LIG1       -0.0386
      9 H           1.3723    0.5451    1.0120 H       1  LIG1        0.0278
     10 H           1.8686   -0.3574   -0.4222 H       1  LIG1        0.0278
     11 H           1.5663   -1.2162    1.0872 H       1  LIG1        0.0278
     12 C          -0.9619    1.8789    0.0828 C.ar    1  LIG1        0.0264
     13 C           0.1082    2.6483   -0.3127 C.ar    1  LIG1       -0.0435
     14 C          -0.0246    4.0423   -0.0149 C.ar    1  LIG1       -0.0428
     15 C          -1.2149    4.3143    0.6057 C.ar    1  LIG1       -0.0208
     16 S          -2.1755    2.8914    0.8535 S.2     1  LIG1       -0.0959
     17 H          -1.5848    5.2765    0.9332 H       1  LIG1        0.0696
     18 H           0.9595    2.2333   -0.8403 H       1  LIG1        0.0632
     19 C           1.0144    5.0744   -0.3615 C.3     1  LIG1       -0.0392
     20 H           0.6964    6.0753   -0.0583 H       1  LIG1        0.0278
     21 H           1.2091    5.0971   -1.4399 H       1  LIG1        0.0278
     22 H           1.9686    4.8618    0.1342 H       1  LIG1        0.0278
@<TRIPOS>BOND
     1    21    19    1
     2    18    13    1
     3     6     1    1
     4     5     1   ar
     5     5     4   ar
     6     1     2   ar
     7    10     8    1
     8    19    20    1
     9    19    14    1
    10    19    22    1
    11    13    14   ar
    12    13    12   ar
    13     2     7    1
    14     2     3   ar
    15     4    12    1
    16     4     3   ar
    17    14    15   ar
    18    12    16   ar
    19     3     8    1
    20     8     9    1
    21     8    11    1
    22    15    16   ar
    23    15    17    1
