@<TRIPOS>MOLECULE
mol_data/opt/b3lyp/geoms/mol2/5ai5ai5ai5ai.out
 42 45 0 0 0
SMALL
GASTEIGER

@<TRIPOS>ATOM
      1 C          -1.8241   -1.8768   -1.3520 C.ar    1  LIG1       -0.0235
      2 C          -0.8731   -1.9769   -0.3771 C.ar    1  LIG1       -0.0512
      3 C          -0.3797   -0.7160    0.0848 C.ar    1  LIG1       -0.0352
      4 C          -0.9784    0.3469   -0.5712 C.ar    1  LIG1        0.0288
      5 S          -2.1440   -0.2253   -1.7576 S.2     1  LIG1       -0.0959
      6 H          -2.3570   -2.6721   -1.8540 H       1  LIG1        0.0693
      7 H          -0.5319   -2.9250    0.0252 H       1  LIG1        0.0626
      8 C           0.6444   -0.5975    1.1815 C.3     1  LIG1       -0.0386
      9 H           0.5325    0.3386    1.7347 H       1  LIG1        0.0278
     10 H           1.6684   -0.6262    0.7878 H       1  LIG1        0.0278
     11 H           0.5485   -1.4274    1.8882 H       1  LIG1        0.0278
     12 C          -0.7539    1.7715   -0.3935 C.ar    1  LIG1        0.0270
     13 C           0.4213    2.4326   -0.1119 C.ar    1  LIG1       -0.0429
     14 C           0.2993    3.8465    0.0150 C.ar    1  LIG1       -0.0346
     15 C          -1.0016    4.2801   -0.1886 C.ar    1  LIG1        0.0294
     16 S          -2.0688    2.9242   -0.5209 S.2     1  LIG1       -0.0869
     17 H           1.3705    1.9182   -0.0168 H       1  LIG1        0.0632
     18 C           1.4696    4.7320    0.3493 C.3     1  LIG1       -0.0386
     19 H           1.1544    5.6157    0.9107 H       1  LIG1        0.0278
     20 H           1.9862    5.0834   -0.5529 H       1  LIG1        0.0278
     21 H           2.2043    4.1876    0.9499 H       1  LIG1        0.0278
     22 C          -1.5279    5.6321   -0.1549 C.ar    1  LIG1        0.0270
     23 C          -0.9155    6.8091   -0.5287 C.ar    1  LIG1       -0.0429
     24 C          -1.7100    7.9793   -0.3571 C.ar    1  LIG1       -0.0346
     25 C          -2.9670    7.6898    0.1482 C.ar    1  LIG1        0.0294
     26 S          -3.1507    5.9646    0.4223 S.2     1  LIG1       -0.0869
     27 H           0.0842    6.8402   -0.9455 H       1  LIG1        0.0632
     28 C          -1.2024    9.3578   -0.6856 C.3     1  LIG1       -0.0386
     29 H          -1.6836   10.1182   -0.0652 H       1  LIG1        0.0278
     30 H          -1.3905    9.6219   -1.7339 H       1  LIG1        0.0278
     31 H          -0.1213    9.4179   -0.5273 H       1  LIG1        0.0278
     32 C          -4.0602    8.5984    0.4499 C.ar    1  LIG1        0.0264
     33 C          -4.4424    9.7411   -0.2171 C.ar    1  LIG1       -0.0435
     34 C          -5.5710   10.4091    0.3553 C.ar    1  LIG1       -0.0428
     35 C          -6.0399    9.7506    1.4612 C.ar    1  LIG1       -0.0208
     36 S          -5.1144    8.3318    1.8324 S.2     1  LIG1       -0.0959
     37 H          -6.8829   10.0200    2.0830 H       1  LIG1        0.0696
     38 H          -3.9530   10.0787   -1.1233 H       1  LIG1        0.0632
     39 C          -6.1699   11.6700   -0.2073 C.3     1  LIG1       -0.0392
     40 H          -7.0372   11.9920    0.3748 H       1  LIG1        0.0278
     41 H          -6.4963   11.5276   -1.2439 H       1  LIG1        0.0278
     42 H          -5.4433   12.4907   -0.2075 H       1  LIG1        0.0278
@<TRIPOS>BOND
     1     6     1    1
     2     5     1   ar
     3     5     4   ar
     4    30    28    1
     5     1     2   ar
     6    41    39    1
     7    38    33    1
     8    27    23    1
     9    28    31    1
    10    28    24    1
    11    28    29    1
    12     4    12    1
    13     4     3   ar
    14    20    18    1
    15    23    24   ar
    16    23    22   ar
    17    16    12   ar
    18    16    15   ar
    19    12    13   ar
    20     2     7    1
    21     2     3   ar
    22    24    25   ar
    23    33    34   ar
    24    33    32   ar
    25    42    39    1
    26    39    34    1
    27    39    40    1
    28    15    22    1
    29    15    14   ar
    30    22    26   ar
    31    13    17    1
    32    13    14   ar
    33    14    18    1
    34     3     8    1
    35    25    26   ar
    36    25    32    1
    37    18    19    1
    38    18    21    1
    39    34    35   ar
    40    32    36   ar
    41    10     8    1
    42     8     9    1
    43     8    11    1
    44    35    36   ar
    45    35    37    1
