@<TRIPOS>MOLECULE
mol_data/opt/b3lyp/geoms/mol2/5ai5ai-5ai-.out
 32 34 0 0 0
SMALL
GASTEIGER

@<TRIPOS>ATOM
      1 C          -2.0658   -1.8755   -0.8248 C.ar    1  LIG1       -0.0235
      2 C          -0.8576   -1.9452   -0.1925 C.ar    1  LIG1       -0.0512
      3 C          -0.2847   -0.6688    0.1076 C.ar    1  LIG1       -0.0352
      4 C          -1.0892    0.3741   -0.3201 C.ar    1  LIG1        0.0288
      5 S          -2.5465   -0.2352   -1.0941 S.2     1  LIG1       -0.0959
      6 H          -2.7028   -2.6876   -1.1463 H       1  LIG1        0.0693
      7 H          -0.3795   -2.8818    0.0742 H       1  LIG1        0.0626
      8 C           1.0244   -0.5167    0.8344 C.3     1  LIG1       -0.0386
      9 H           1.0658    0.4225    1.3920 H       1  LIG1        0.0278
     10 H           1.8772   -0.5269    0.1437 H       1  LIG1        0.0278
     11 H           1.1716   -1.3413    1.5387 H       1  LIG1        0.0278
     12 C          -0.8645    1.8057   -0.2072 C.ar    1  LIG1        0.0270
     13 C           0.3183    2.5045   -0.3039 C.ar    1  LIG1       -0.0429
     14 C           0.1979    3.9144   -0.1295 C.ar    1  LIG1       -0.0346
     15 C          -1.1123    4.3042    0.0923 C.ar    1  LIG1        0.0294
     16 S          -2.1875    2.9150    0.0994 S.2     1  LIG1       -0.0869
     17 H           1.2645    2.0217   -0.5190 H       1  LIG1        0.0632
     18 C           1.3840    4.8401   -0.1759 C.3     1  LIG1       -0.0386
     19 H           1.2144    5.7368    0.4257 H       1  LIG1        0.0278
     20 H           1.6041    5.1683   -1.1997 H       1  LIG1        0.0278
     21 H           2.2800    4.3372    0.2006 H       1  LIG1        0.0278
     22 C          -1.6437    5.6409    0.3011 C.ar    1  LIG1        0.0264
     23 C          -1.2517    6.8262   -0.2800 C.ar    1  LIG1       -0.0435
     24 C          -1.9918    7.9707    0.1564 C.ar    1  LIG1       -0.0428
     25 C          -2.9529    7.6313    1.0715 C.ar    1  LIG1       -0.0208
     26 S          -2.9613    5.9342    1.4286 S.2     1  LIG1       -0.0959
     27 H          -3.6622    8.2864    1.5591 H       1  LIG1        0.0696
     28 H          -0.4759    6.8765   -1.0352 H       1  LIG1        0.0632
     29 C          -1.7465    9.3672   -0.3483 C.3     1  LIG1       -0.0392
     30 H          -2.4397   10.0807    0.1045 H       1  LIG1        0.0278
     31 H          -1.8694    9.4246   -1.4360 H       1  LIG1        0.0278
     32 H          -0.7272    9.7000   -0.1207 H       1  LIG1        0.0278
@<TRIPOS>BOND
     1    31    29    1
     2    20    18    1
     3     6     1    1
     4     5     1   ar
     5     5     4   ar
     6    28    23    1
     7     1     2   ar
     8    17    13    1
     9    29    32    1
    10    29    30    1
    11    29    24    1
    12     4    12    1
    13     4     3   ar
    14    13    12   ar
    15    13    14   ar
    16    23    24   ar
    17    23    22   ar
    18    12    16   ar
    19     2     7    1
    20     2     3   ar
    21    18    14    1
    22    18    21    1
    23    18    19    1
    24    14    15   ar
    25    15    16   ar
    26    15    22    1
    27     3     8    1
    28    10     8    1
    29    24    25   ar
    30    22    26   ar
    31     8     9    1
    32     8    11    1
    33    25    26   ar
    34    25    27    1
