@<TRIPOS>MOLECULE
mol_data/opt/b3lyp/geoms/mol2/5ai5ai5ai-5ai-.out
 42 45 0 0 0
SMALL
GASTEIGER

@<TRIPOS>ATOM
      1 C          -1.8119   -1.8768   -1.3617 C.ar    1  LIG1       -0.0235
      2 C          -0.8695   -1.9768   -0.3785 C.ar    1  LIG1       -0.0512
      3 C          -0.3802   -0.7158    0.0875 C.ar    1  LIG1       -0.0352
      4 C          -0.9731    0.3470   -0.5737 C.ar    1  LIG1        0.0288
      5 S          -2.1283   -0.2253   -1.7702 S.2     1  LIG1       -0.0959
      6 H          -2.3404   -2.6721   -1.8682 H       1  LIG1        0.0693
      7 H          -0.5318   -2.9248    0.0268 H       1  LIG1        0.0626
      8 C           0.6343   -0.5972    1.1931 C.3     1  LIG1       -0.0386
      9 H           0.5176    0.3390    1.7452 H       1  LIG1        0.0278
     10 H           1.6618   -0.6259    0.8084 H       1  LIG1        0.0278
     11 H           0.5323   -1.4270    1.8991 H       1  LIG1        0.0278
     12 C          -0.7503    1.7716   -0.3942 C.ar    1  LIG1        0.0270
     13 C           0.4226    2.4328   -0.1031 C.ar    1  LIG1       -0.0429
     14 C           0.2993    3.8467    0.0230 C.ar    1  LIG1       -0.0346
     15 C          -0.9998    4.2802   -0.1912 C.ar    1  LIG1        0.0294
     16 S          -2.0642    2.9242   -0.5322 S.2     1  LIG1       -0.0869
     17 H           1.3710    1.9185   -0.0002 H       1  LIG1        0.0632
     18 C           1.4668    4.7323    0.3668 C.3     1  LIG1       -0.0386
     19 H           1.1470    5.6161    0.9252 H       1  LIG1        0.0278
     20 H           1.9911    5.0833   -0.5311 H       1  LIG1        0.0278
     21 H           2.1964    4.1881    0.9739 H       1  LIG1        0.0278
     22 C          -1.5266    5.6322   -0.1619 C.ar    1  LIG1        0.0270
     23 C          -0.9112    6.8092   -0.5305 C.ar    1  LIG1       -0.0429
     24 C          -1.7073    7.9793   -0.3655 C.ar    1  LIG1       -0.0346
     25 C          -2.9684    7.6896    0.1294 C.ar    1  LIG1        0.0294
     26 S          -3.1542    5.9644    0.4019 S.2     1  LIG1       -0.0869
     27 H           0.0919    6.8404   -0.9389 H       1  LIG1        0.0632
     28 C          -1.1970    9.3579   -0.6897 C.3     1  LIG1       -0.0386
     29 H          -1.6837   10.1183   -0.0735 H       1  LIG1        0.0278
     30 H          -1.3762    9.6219   -1.7396 H       1  LIG1        0.0278
     31 H          -0.1174    9.4181   -0.5221 H       1  LIG1        0.0278
     32 C          -4.0642    8.5981    0.4219 C.ar    1  LIG1        0.0264
     33 C          -4.4410    9.7408   -0.2483 C.ar    1  LIG1       -0.0435
     34 C          -5.5744   10.4086    0.3148 C.ar    1  LIG1       -0.0428
     35 C          -6.0524    9.7501    1.4167 C.ar    1  LIG1       -0.0208
     36 S          -5.1297    8.3314    1.7957 S.2     1  LIG1       -0.0959
     37 H          -6.9005   10.0193    2.0315 H       1  LIG1        0.0696
     38 H          -3.9441   10.0784   -1.1503 H       1  LIG1        0.0632
     39 C          -6.1688   11.6694   -0.2529 C.3     1  LIG1       -0.0392
     40 H          -7.0408   11.9914    0.3222 H       1  LIG1        0.0278
     41 H          -6.4866   11.5269   -1.2921 H       1  LIG1        0.0278
     42 H          -5.4423   12.4902   -0.2471 H       1  LIG1        0.0278
@<TRIPOS>BOND
     1     6     1    1
     2     5     1   ar
     3     5     4   ar
     4    30    28    1
     5     1     2   ar
     6    41    39    1
     7    38    33    1
     8    27    23    1
     9    28    31    1
    10    28    24    1
    11    28    29    1
    12     4    12    1
    13     4     3   ar
    14    16    12   ar
    15    16    15   ar
    16    20    18    1
    17    23    24   ar
    18    23    22   ar
    19    12    13   ar
    20     2     7    1
    21     2     3   ar
    22    24    25   ar
    23    39    42    1
    24    39    34    1
    25    39    40    1
    26    33    34   ar
    27    33    32   ar
    28    15    22    1
    29    15    14   ar
    30    22    26   ar
    31    13    17    1
    32    13    14   ar
    33    14    18    1
    34     3     8    1
    35    25    26   ar
    36    25    32    1
    37    34    35   ar
    38    18    19    1
    39    18    21    1
    40    32    36   ar
    41    10     8    1
    42     8     9    1
    43     8    11    1
    44    35    36   ar
    45    35    37    1
