@<TRIPOS>MOLECULE
mol_data/opt/b3lyp/geoms/mol2/5ai5ai-5ai5ai-.out
 42 45 0 0 0
SMALL
GASTEIGER

@<TRIPOS>ATOM
      1 C          -1.8336   -1.8740   -1.3487 C.ar    1  LIG1       -0.0235
      2 C          -0.8757   -1.9761   -0.3808 C.ar    1  LIG1       -0.0512
      3 C          -0.3790   -0.7161    0.0801 C.ar    1  LIG1       -0.0352
      4 C          -0.9824    0.3481   -0.5694 C.ar    1  LIG1        0.0288
      5 S          -2.1564   -0.2217   -1.7486 S.2     1  LIG1       -0.0959
      6 H          -2.3700   -2.6683   -1.8485 H       1  LIG1        0.0693
      7 H          -0.5316   -2.9249    0.0171 H       1  LIG1        0.0626
      8 C           0.6528   -0.5998    1.1697 C.3     1  LIG1       -0.0386
      9 H           0.5449    0.3353    1.7255 H       1  LIG1        0.0278
     10 H           1.6740   -0.6279    0.7688 H       1  LIG1        0.0278
     11 H           0.5619   -1.4311    1.8756 H       1  LIG1        0.0278
     12 C          -0.7567    1.7724   -0.3904 C.ar    1  LIG1        0.0270
     13 C           0.4206    2.4329   -0.1162 C.ar    1  LIG1       -0.0429
     14 C           0.2994    3.8465    0.0147 C.ar    1  LIG1       -0.0346
     15 C          -1.0029    4.2805   -0.1783 C.ar    1  LIG1        0.0294
     16 S          -2.0726    2.9253   -0.5055 S.2     1  LIG1       -0.0869
     17 H           1.3704    1.9184   -0.0292 H       1  LIG1        0.0632
     18 C           1.4721    4.7315    0.3421 C.3     1  LIG1       -0.0386
     19 H           1.1610    5.6140    0.9075 H       1  LIG1        0.0278
     20 H           1.9821    5.0845   -0.5631 H       1  LIG1        0.0278
     21 H           2.2112    4.1859    0.9364 H       1  LIG1        0.0278
     22 C          -1.5291    5.6325   -0.1380 C.ar    1  LIG1        0.0270
     23 C          -0.9195    6.8102   -0.5140 C.ar    1  LIG1       -0.0429
     24 C          -1.7128    7.9800   -0.3340 C.ar    1  LIG1       -0.0346
     25 C          -2.9659    7.6894    0.1802 C.ar    1  LIG1        0.0294
     26 S          -3.1475    5.9636    0.4523 S.2     1  LIG1       -0.0869
     27 H           0.0770    6.8421   -0.9383 H       1  LIG1        0.0632
     28 C          -1.2077    9.3592   -0.6636 C.3     1  LIG1       -0.0386
     29 H          -1.6845   10.1184   -0.0382 H       1  LIG1        0.0278
     30 H          -1.4035    9.6253   -1.7100 H       1  LIG1        0.0278
     31 H          -0.1255    9.4191   -0.5130 H       1  LIG1        0.0278
     32 C          -4.0569    8.5973    0.4919 C.ar    1  LIG1        0.0264
     33 C          -4.4441    9.7414   -0.1699 C.ar    1  LIG1       -0.0435
     34 C          -5.5685   10.4081    0.4123 C.ar    1  LIG1       -0.0428
     35 C          -6.0290    9.7474    1.5204 C.ar    1  LIG1       -0.0208
     36 S          -5.1006    8.3279    1.8819 S.2     1  LIG1       -0.0959
     37 H          -6.8673   10.0154    2.1491 H       1  LIG1        0.0696
     38 H          -3.9616   10.0808   -1.0790 H       1  LIG1        0.0632
     39 C          -6.1717   11.6700   -0.1433 C.3     1  LIG1       -0.0392
     40 H          -7.0341   11.9913    0.4465 H       1  LIG1        0.0278
     41 H          -6.5066   11.5294   -1.1774 H       1  LIG1        0.0278
     42 H          -5.4450   12.4906   -0.1482 H       1  LIG1        0.0278
@<TRIPOS>BOND
     1     6     1    1
     2     5     1   ar
     3     5     4   ar
     4    30    28    1
     5     1     2   ar
     6    41    39    1
     7    38    33    1
     8    27    23    1
     9    28    31    1
    10    28    24    1
    11    28    29    1
    12     4    12    1
    13     4     3   ar
    14    20    18    1
    15    23    24   ar
    16    23    22   ar
    17    16    12   ar
    18    16    15   ar
    19    12    13   ar
    20     2     7    1
    21     2     3   ar
    22    24    25   ar
    23    15    22    1
    24    15    14   ar
    25    33    34   ar
    26    33    32   ar
    27    42    39    1
    28    39    34    1
    29    39    40    1
    30    22    26   ar
    31    13    17    1
    32    13    14   ar
    33    14    18    1
    34     3     8    1
    35    25    26   ar
    36    25    32    1
    37    18    19    1
    38    18    21    1
    39    34    35   ar
    40    32    36   ar
    41    10     8    1
    42     8     9    1
    43     8    11    1
    44    35    36   ar
    45    35    37    1
