@<TRIPOS>MOLECULE
mol_data/opt/b3lyp/geoms/mol2/5ai5ai-5ai-5ai.out
 42 45 0 0 0
SMALL
GASTEIGER

@<TRIPOS>ATOM
      1 C          -1.8233   -1.8718   -1.3649 C.ar    1  LIG1       -0.0235
      2 C          -0.8728   -1.9755   -0.3899 C.ar    1  LIG1       -0.0512
      3 C          -0.3798   -0.7162    0.0770 C.ar    1  LIG1       -0.0352
      4 C          -0.9782    0.3490   -0.5752 C.ar    1  LIG1        0.0288
      5 S          -2.1432   -0.2188   -1.7644 S.2     1  LIG1       -0.0959
      6 H          -2.3559   -2.6652   -1.8702 H       1  LIG1        0.0693
      7 H          -0.5317   -2.9250    0.0089 H       1  LIG1        0.0626
      8 C           0.6440   -0.6018    1.1744 C.3     1  LIG1       -0.0386
      9 H           0.5314    0.3318    1.7316 H       1  LIG1        0.0278
     10 H           1.6681   -0.6282    0.7808 H       1  LIG1        0.0278
     11 H           0.5486   -1.4348    1.8776 H       1  LIG1        0.0278
     12 C          -0.7540    1.7730   -0.3919 C.ar    1  LIG1        0.0270
     13 C           0.4213    2.4331   -0.1081 C.ar    1  LIG1       -0.0429
     14 C           0.2991    3.8465    0.0244 C.ar    1  LIG1       -0.0346
     15 C          -1.0018    4.2807   -0.1771 C.ar    1  LIG1        0.0294
     16 S          -2.0691    2.9260   -0.5143 S.2     1  LIG1       -0.0869
     17 H           1.3705    1.9184   -0.0152 H       1  LIG1        0.0632
     18 C           1.4695    4.7308    0.3616 C.3     1  LIG1       -0.0386
     19 H           1.1544    5.6126    0.9260 H       1  LIG1        0.0278
     20 H           1.9860    5.0852   -0.5395 H       1  LIG1        0.0278
     21 H           2.2042    4.1844    0.9603 H       1  LIG1        0.0278
     22 C          -1.5282    5.6326   -0.1381 C.ar    1  LIG1        0.0270
     23 C          -0.9164    6.8108   -0.5085 C.ar    1  LIG1       -0.0429
     24 C          -1.7107    7.9805   -0.3318 C.ar    1  LIG1       -0.0346
     25 C          -2.9672    7.6891    0.1739 C.ar    1  LIG1        0.0294
     26 S          -3.1504    5.9629    0.4422 S.2     1  LIG1       -0.0869
     27 H           0.0829    6.8435   -0.9263 H       1  LIG1        0.0632
     28 C          -1.2033    9.3600   -0.6560 C.3     1  LIG1       -0.0386
     29 H          -1.6844   10.1184   -0.0330 H       1  LIG1        0.0278
     30 H          -1.3919    9.6275   -1.7034 H       1  LIG1        0.0278
     31 H          -0.1222    9.4197   -0.4979 H       1  LIG1        0.0278
     32 C          -4.0601    8.5965    0.4800 C.ar    1  LIG1        0.0264
     33 C          -4.4425    9.7422   -0.1819 C.ar    1  LIG1       -0.0435
     34 C          -5.5708   10.4078    0.3938 C.ar    1  LIG1       -0.0428
     35 C          -6.0394    9.7445    1.4970 C.ar    1  LIG1       -0.0208
     36 S          -5.1138    8.3240    1.8618 S.2     1  LIG1       -0.0959
     37 H          -6.8821   10.0112    2.1203 H       1  LIG1        0.0696
     38 H          -3.9535   10.0837   -1.0868 H       1  LIG1        0.0632
     39 C          -6.1699   11.6711   -0.1631 C.3     1  LIG1       -0.0392
     40 H          -7.0365   11.9909    0.4212 H       1  LIG1        0.0278
     41 H          -6.4974   11.5330   -1.2000 H       1  LIG1        0.0278
     42 H          -5.4431   12.4916   -0.1607 H       1  LIG1        0.0278
@<TRIPOS>BOND
     1     6     1    1
     2     5     1   ar
     3     5     4   ar
     4    30    28    1
     5     1     2   ar
     6    41    39    1
     7    38    33    1
     8    27    23    1
     9    28    31    1
    10    28    24    1
    11    28    29    1
    12     4    12    1
    13     4     3   ar
    14    20    18    1
    15    16    12   ar
    16    16    15   ar
    17    23    24   ar
    18    23    22   ar
    19    12    13   ar
    20     2     7    1
    21     2     3   ar
    22    24    25   ar
    23    33    34   ar
    24    33    32   ar
    25    15    22    1
    26    15    14   ar
    27    39    42    1
    28    39    34    1
    29    39    40    1
    30    22    26   ar
    31    13    17    1
    32    13    14   ar
    33    14    18    1
    34     3     8    1
    35    25    26   ar
    36    25    32    1
    37    18    19    1
    38    18    21    1
    39    34    35   ar
    40    32    36   ar
    41    10     8    1
    42     8     9    1
    43     8    11    1
    44    35    36   ar
    45    35    37    1
