@<TRIPOS>MOLECULE
mol_data/opt/b3lyp/geoms/mol2/5ai5ai-5ai.out
 32 34 0 0 0
SMALL
GASTEIGER

@<TRIPOS>ATOM
      1 C          -2.0669   -1.8772   -0.8162 C.ar    1  LIG1       -0.0235
      2 C          -0.8577   -1.9455   -0.1858 C.ar    1  LIG1       -0.0512
      3 C          -0.2843   -0.6685    0.1108 C.ar    1  LIG1       -0.0352
      4 C          -1.0895    0.3735   -0.3177 C.ar    1  LIG1        0.0288
      5 S          -2.5481   -0.2374   -1.0880 S.2     1  LIG1       -0.0959
      6 H          -2.7044   -2.6900   -1.1350 H       1  LIG1        0.0693
      7 H          -0.3791   -2.8816    0.0820 H       1  LIG1        0.0626
      8 C           1.0260   -0.5149    0.8352 C.3     1  LIG1       -0.0386
      9 H           1.0682    0.4254    1.3908 H       1  LIG1        0.0278
     10 H           1.8776   -0.5263    0.1431 H       1  LIG1        0.0278
     11 H           1.1744   -1.3381    1.5408 H       1  LIG1        0.0278
     12 C          -0.8647    1.8053   -0.2080 C.ar    1  LIG1        0.0270
     13 C           0.3179    2.5039   -0.3080 C.ar    1  LIG1       -0.0429
     14 C           0.1977    3.9141   -0.1363 C.ar    1  LIG1       -0.0346
     15 C          -1.1122    4.3043    0.0871 C.ar    1  LIG1        0.0294
     16 S          -2.1872    2.9151    0.0989 S.2     1  LIG1       -0.0869
     17 H           1.2637    2.0207   -0.5239 H       1  LIG1        0.0632
     18 C           1.3837    4.8398   -0.1865 C.3     1  LIG1       -0.0386
     19 H           1.2150    5.7377    0.4134 H       1  LIG1        0.0278
     20 H           1.6021    5.1659   -1.2113 H       1  LIG1        0.0278
     21 H           2.2803    4.3377    0.1896 H       1  LIG1        0.0278
     22 C          -1.6433    5.6414    0.2941 C.ar    1  LIG1        0.0264
     23 C          -1.2522    6.8257   -0.2899 C.ar    1  LIG1       -0.0435
     24 C          -1.9917    7.9709    0.1455 C.ar    1  LIG1       -0.0428
     25 C          -2.9515    7.6333    1.0627 C.ar    1  LIG1       -0.0208
     26 S          -2.9592    5.9368    1.4230 S.2     1  LIG1       -0.0959
     27 H          -3.6600    8.2892    1.5501 H       1  LIG1        0.0696
     28 H          -0.4776    6.8746   -1.0463 H       1  LIG1        0.0632
     29 C          -1.7472    9.3664   -0.3623 C.3     1  LIG1       -0.0392
     30 H          -2.4396   10.0808    0.0904 H       1  LIG1        0.0278
     31 H          -1.8720    9.4218   -1.4498 H       1  LIG1        0.0278
     32 H          -0.7275    9.6997   -0.1371 H       1  LIG1        0.0278
@<TRIPOS>BOND
     1    31    29    1
     2    20    18    1
     3     6     1    1
     4     5     1   ar
     5     5     4   ar
     6    28    23    1
     7     1     2   ar
     8    17    13    1
     9    29    32    1
    10    29    30    1
    11    29    24    1
    12     4    12    1
    13     4     3   ar
    14    13    12   ar
    15    13    14   ar
    16    23    24   ar
    17    23    22   ar
    18    12    16   ar
    19    18    14    1
    20    18    21    1
    21    18    19    1
    22     2     7    1
    23     2     3   ar
    24    14    15   ar
    25    15    16   ar
    26    15    22    1
    27     3     8    1
    28    10     8    1
    29    24    25   ar
    30    22    26   ar
    31     8     9    1
    32     8    11    1
    33    25    26   ar
    34    25    27    1
