@<TRIPOS>MOLECULE
mol_data/opt/b3lyp/geoms/mol2/5ai5ai5ai5ai-.out
 42 45 0 0 0
SMALL
GASTEIGER

@<TRIPOS>ATOM
      1 C          -1.8226   -1.8779   -1.3494 C.ar    1  LIG1       -0.0235
      2 C          -0.8726   -1.9772   -0.3736 C.ar    1  LIG1       -0.0512
      3 C          -0.3796   -0.7159    0.0877 C.ar    1  LIG1       -0.0352
      4 C          -0.9777    0.3465   -0.5696 C.ar    1  LIG1        0.0288
      5 S          -2.1423   -0.2267   -1.7566 S.2     1  LIG1       -0.0959
      6 H          -2.3550   -2.6736   -1.8513 H       1  LIG1        0.0693
      7 H          -0.5317   -2.9249    0.0297 H       1  LIG1        0.0626
      8 C           0.6436   -0.5965    1.1852 C.3     1  LIG1       -0.0386
      9 H           0.5315    0.3402    1.7373 H       1  LIG1        0.0278
     10 H           1.6679   -0.6261    0.7924 H       1  LIG1        0.0278
     11 H           0.5468   -1.4256    1.8928 H       1  LIG1        0.0278
     12 C          -0.7535    1.7712   -0.3928 C.ar    1  LIG1        0.0270
     13 C           0.4216    2.4326   -0.1109 C.ar    1  LIG1       -0.0429
     14 C           0.2993    3.8466    0.0147 C.ar    1  LIG1       -0.0346
     15 C          -1.0013    4.2800   -0.1903 C.ar    1  LIG1        0.0294
     16 S          -2.0683    2.9238   -0.5222 S.2     1  LIG1       -0.0869
     17 H           1.3706    1.9183   -0.0146 H       1  LIG1        0.0632
     18 C           1.4694    4.7325    0.3490 C.3     1  LIG1       -0.0386
     19 H           1.1538    5.6167    0.9092 H       1  LIG1        0.0278
     20 H           1.9868    5.0828   -0.5532 H       1  LIG1        0.0278
     21 H           2.2036    4.1887    0.9509 H       1  LIG1        0.0278
     22 C          -1.5277    5.6321   -0.1583 C.ar    1  LIG1        0.0270
     23 C          -0.9151    6.8087   -0.5329 C.ar    1  LIG1       -0.0429
     24 C          -1.7098    7.9791   -0.3629 C.ar    1  LIG1       -0.0346
     25 C          -2.9671    7.6900    0.1418 C.ar    1  LIG1        0.0294
     26 S          -3.1510    5.9650    0.4175 S.2     1  LIG1       -0.0869
     27 H           0.0849    6.8394   -0.9490 H       1  LIG1        0.0632
     28 C          -1.2020    9.3572   -0.6926 C.3     1  LIG1       -0.0386
     29 H          -1.6839   10.1183   -0.0734 H       1  LIG1        0.0278
     30 H          -1.3894    9.6201   -1.7414 H       1  LIG1        0.0278
     31 H          -0.1211    9.4177   -0.5334 H       1  LIG1        0.0278
     32 C          -4.0605    8.5989    0.4420 C.ar    1  LIG1        0.0264
     33 C          -4.4425    9.7408   -0.2266 C.ar    1  LIG1       -0.0435
     34 C          -5.5714   10.4093    0.3446 C.ar    1  LIG1       -0.0428
     35 C          -6.0407    9.7521    1.4511 C.ar    1  LIG1       -0.0208
     36 S          -5.1152    8.3339    1.8245 S.2     1  LIG1       -0.0959
     37 H          -6.8840   10.0223    2.0723 H       1  LIG1        0.0696
     38 H          -3.9528   10.0773   -1.1330 H       1  LIG1        0.0632
     39 C          -6.1703   11.6695   -0.2198 C.3     1  LIG1       -0.0392
     40 H          -7.0375   11.9923    0.3619 H       1  LIG1        0.0278
     41 H          -6.4967   11.5257   -1.2562 H       1  LIG1        0.0278
     42 H          -5.4437   12.4901   -0.2212 H       1  LIG1        0.0278
@<TRIPOS>BOND
     1     6     1    1
     2     5     1   ar
     3     5     4   ar
     4    30    28    1
     5     1     2   ar
     6    41    39    1
     7    38    33    1
     8    27    23    1
     9    28    31    1
    10    28    24    1
    11    28    29    1
    12     4    12    1
    13     4     3   ar
    14    20    18    1
    15    23    24   ar
    16    23    22   ar
    17    16    12   ar
    18    16    15   ar
    19    12    13   ar
    20     2     7    1
    21     2     3   ar
    22    24    25   ar
    23    33    34   ar
    24    33    32   ar
    25    42    39    1
    26    39    34    1
    27    39    40    1
    28    15    22    1
    29    15    14   ar
    30    22    26   ar
    31    13    17    1
    32    13    14   ar
    33    14    18    1
    34     3     8    1
    35    25    26   ar
    36    25    32    1
    37    34    35   ar
    38    18    19    1
    39    18    21    1
    40    32    36   ar
    41    10     8    1
    42     8     9    1
    43     8    11    1
    44    35    36   ar
    45    35    37    1
