@<TRIPOS>MOLECULE
mol_data/opt/b3lyp/geoms/mol2/5al.out
 13 13 0 0 0
SMALL
GASTEIGER

@<TRIPOS>ATOM
      1 C          -2.2058   -1.7348    0.0001 C.ar    1  LIG1       -0.0208
      2 C          -0.8392   -1.7869   -0.0004 C.ar    1  LIG1       -0.0129
      3 C          -0.2465   -0.4799   -0.0002 C.ar    1  LIG1        0.1271
      4 C          -1.1777    0.5286    0.0004 C.ar    1  LIG1        0.0174
      5 S          -2.7903   -0.1059    0.0008 S.2     1  LIG1       -0.1013
      6 H          -2.9013   -2.5619    0.0001 H       1  LIG1        0.0694
      7 H          -0.9905    1.5915    0.0007 H       1  LIG1        0.0730
      8 H          -0.2820   -2.7148   -0.0009 H       1  LIG1        0.0659
      9 O           1.0872   -0.1928   -0.0007 O.3     1  LIG1       -0.4946
     10 C           1.9853   -1.2914   -0.0012 C.3     1  LIG1        0.0788
     11 H           2.9886   -0.8628   -0.0013 H       1  LIG1        0.0660
     12 H           1.8630   -1.9169    0.8928 H       1  LIG1        0.0660
     13 H           1.8625   -1.9165   -0.8953 H       1  LIG1        0.0660
@<TRIPOS>BOND
     1    13    10    1
     2    11    10    1
     3    10     9    1
     4    10    12    1
     5     8     2    1
     6     9     3    1
     7     2     3   ar
     8     2     1   ar
     9     3     4   ar
    10     1     6    1
    11     1     5   ar
    12     4     7    1
    13     4     5   ar
