@<TRIPOS>MOLECULE
mol_data/opt/b3lyp/geoms/mol2/5al5al-5al-5al-.out
 46 49 0 0 0
SMALL
GASTEIGER

@<TRIPOS>ATOM
      1 C          -2.2102   -2.0997    0.0002 C.ar    1  LIG1       -0.0202
      2 C          -0.8439   -2.1472   -0.0003 C.ar    1  LIG1       -0.0123
      3 C          -0.2533   -0.8472    0.0006 C.ar    1  LIG1        0.1353
      4 C          -1.1800    0.1905    0.0019 C.ar    1  LIG1        0.0676
      5 S          -2.8044   -0.4767    0.0019 S.2     1  LIG1       -0.0924
      6 H          -2.9042   -2.9279   -0.0002 H       1  LIG1        0.0695
      7 H          -0.2838   -3.0729   -0.0014 H       1  LIG1        0.0660
      8 O           1.0833   -0.5773    0.0002 O.3     1  LIG1       -0.4939
      9 C           1.9737   -1.6859   -0.0016 C.3     1  LIG1        0.0788
     10 H           2.9802   -1.2658   -0.0017 H       1  LIG1        0.0660
     11 H           1.8425   -2.3076    0.8925 H       1  LIG1        0.0660
     12 H           1.8414   -2.3055   -0.8969 H       1  LIG1        0.0660
     13 C          -0.9333    1.6119    0.0028 C.ar    1  LIG1        0.0336
     14 C           0.2812    2.2731    0.0030 C.ar    1  LIG1       -0.0039
     15 C           0.1497    3.6858    0.0038 C.ar    1  LIG1        0.1359
     16 C          -1.1660    4.1413    0.0038 C.ar    1  LIG1        0.0682
     17 S          -2.2560    2.7633    0.0047 S.2     1  LIG1       -0.0833
     18 H           1.2204    1.7423    0.0023 H       1  LIG1        0.0666
     19 O           1.1811    4.5784    0.0038 O.3     1  LIG1       -0.4939
     20 C           2.5009    4.0504    0.0004 C.3     1  LIG1        0.0788
     21 H           3.1710    4.9113    0.0000 H       1  LIG1        0.0660
     22 H           2.6925    3.4432    0.8935 H       1  LIG1        0.0660
     23 H           2.6887    3.4454   -0.8949 H       1  LIG1        0.0660
     24 C          -1.6480    5.4964    0.0030 C.ar    1  LIG1        0.0336
     25 C          -0.9146    6.6700    0.0183 C.ar    1  LIG1       -0.0039
     26 C          -1.7234    7.8358    0.0124 C.ar    1  LIG1        0.1359
     27 C          -3.0919    7.5882   -0.0072 C.ar    1  LIG1        0.0682
     28 S          -3.3659    5.8529   -0.0212 S.2     1  LIG1       -0.0833
     29 H           0.1639    6.6678    0.0340 H       1  LIG1        0.0666
     30 O          -1.2615    9.1199    0.0258 O.3     1  LIG1       -0.4939
     31 C           0.1470    9.3056    0.0441 C.3     1  LIG1        0.0788
     32 H           0.3097   10.3844    0.0510 H       1  LIG1        0.0660
     33 H           0.5988    8.8662    0.9420 H       1  LIG1        0.0660
     34 H           0.6210    8.8741   -0.8460 H       1  LIG1        0.0660
     35 C          -4.1803    8.5349   -0.0164 C.ar    1  LIG1        0.0330
     36 C          -4.1173    9.9169   -0.0237 C.ar    1  LIG1       -0.0045
     37 C          -5.4052   10.5326   -0.0323 C.ar    1  LIG1        0.1277
     38 C          -6.4424    9.6335   -0.0315 C.ar    1  LIG1        0.0180
     39 S          -5.8543    8.0023   -0.0190 S.2     1  LIG1       -0.0923
     40 H          -7.5001    9.8471   -0.0372 H       1  LIG1        0.0730
     41 H          -3.1773   10.4464   -0.0234 H       1  LIG1        0.0666
     42 O          -5.6578   11.8745   -0.0408 O.3     1  LIG1       -0.4946
     43 C          -4.5351   12.7417   -0.0443 C.3     1  LIG1        0.0788
     44 H          -4.9358   13.7568   -0.0519 H       1  LIG1        0.0660
     45 H          -3.9148   12.6069    0.8513 H       1  LIG1        0.0660
     46 H          -3.9111   12.5948   -0.9354 H       1  LIG1        0.0660
@<TRIPOS>BOND
     1    46    43    1
     2    12     9    1
     3    23    20    1
     4    34    31    1
     5    44    43    1
     6    43    42    1
     7    43    45    1
     8    42    37    1
     9    40    38    1
    10    37    38   ar
    11    37    36   ar
    12    38    39   ar
    13    36    41    1
    14    36    35   ar
    15    28    27   ar
    16    28    24   ar
    17    39    35   ar
    18    35    27    1
    19    27    26   ar
    20    10     9    1
    21     9     8    1
    22     9    11    1
    23     7     2    1
    24     2     1   ar
    25     2     3   ar
    26     6     1    1
    27    21    20    1
    28     8     3    1
    29     1     5   ar
    30    20    19    1
    31    20    22    1
    32     3     4   ar
    33     4     5   ar
    34     4    13    1
    35    18    14    1
    36    13    14   ar
    37    13    17   ar
    38    24    16    1
    39    24    25   ar
    40    14    15   ar
    41    19    15    1
    42    15    16   ar
    43    16    17   ar
    44    26    25   ar
    45    26    30    1
    46    25    29    1
    47    30    31    1
    48    31    32    1
    49    31    33    1
