@<TRIPOS>MOLECULE
mol_data/opt/b3lyp/geoms/mol2/5al5al5al5al.out
 46 49 0 0 0
SMALL
GASTEIGER

@<TRIPOS>ATOM
      1 C          -2.2082   -2.0998    0.0948 C.ar    1  LIG1       -0.0202
      2 C          -0.8431   -2.1469    0.0341 C.ar    1  LIG1       -0.0123
      3 C          -0.2532   -0.8469    0.0120 C.ar    1  LIG1        0.1353
      4 C          -1.1791    0.1906    0.0553 C.ar    1  LIG1        0.0676
      5 S          -2.8018   -0.4770    0.1301 S.2     1  LIG1       -0.0924
      6 H          -2.9013   -2.9281    0.1233 H       1  LIG1        0.0695
      7 H          -0.2834   -3.0724    0.0058 H       1  LIG1        0.0660
      8 O           1.0818   -0.5764   -0.0476 O.3     1  LIG1       -0.4939
      9 C           1.9701   -1.6842   -0.1200 C.3     1  LIG1        0.0788
     10 H           2.9751   -1.2635   -0.1721 H       1  LIG1        0.0660
     11 H           1.8918   -2.3209    0.7698 H       1  LIG1        0.0660
     12 H           1.7854   -2.2889   -1.0163 H       1  LIG1        0.0660
     13 C          -0.9329    1.6120    0.0432 C.ar    1  LIG1        0.0336
     14 C           0.2815    2.2735    0.0544 C.ar    1  LIG1       -0.0039
     15 C           0.1500    3.6859    0.0374 C.ar    1  LIG1        0.1359
     16 C          -1.1657    4.1412    0.0131 C.ar    1  LIG1        0.0682
     17 S          -2.2554    2.7630    0.0065 S.2     1  LIG1       -0.0833
     18 H           1.2206    1.7430    0.0770 H       1  LIG1        0.0666
     19 O           1.1811    4.5787    0.0450 O.3     1  LIG1       -0.4939
     20 C           2.5007    4.0506    0.0677 C.3     1  LIG1        0.0788
     21 H           3.1709    4.9114    0.0669 H       1  LIG1        0.0660
     22 H           2.6789    3.4544    0.9709 H       1  LIG1        0.0660
     23 H           2.7017    3.4346   -0.8172 H       1  LIG1        0.0660
     24 C          -1.6475    5.4962   -0.0074 C.ar    1  LIG1        0.0336
     25 C          -0.9140    6.6699   -0.0095 C.ar    1  LIG1       -0.0039
     26 C          -1.7225    7.8355   -0.0332 C.ar    1  LIG1        0.1359
     27 C          -3.0911    7.5880   -0.0509 C.ar    1  LIG1        0.0682
     28 S          -3.3656    5.8527   -0.0320 S.2     1  LIG1       -0.0833
     29 H           0.1645    6.6678    0.0052 H       1  LIG1        0.0666
     30 O          -1.2604    9.1195   -0.0409 O.3     1  LIG1       -0.4939
     31 C           0.1482    9.3047   -0.0398 C.3     1  LIG1        0.0788
     32 H           0.3115   10.3833   -0.0541 H       1  LIG1        0.0660
     33 H           0.6088    8.8815    0.8615 H       1  LIG1        0.0660
     34 H           0.6133    8.8566   -0.9264 H       1  LIG1        0.0660
     35 C          -4.1792    8.5346   -0.0801 C.ar    1  LIG1        0.0330
     36 C          -4.1171    9.9163   -0.0517 C.ar    1  LIG1       -0.0045
     37 C          -5.4042   10.5322   -0.0951 C.ar    1  LIG1        0.1277
     38 C          -6.4399    9.6335   -0.1558 C.ar    1  LIG1        0.0180
     39 S          -5.8513    8.0025   -0.1646 S.2     1  LIG1       -0.0923
     40 H          -7.4970    9.8472   -0.1958 H       1  LIG1        0.0730
     41 H          -3.1783   10.4456    0.0001 H       1  LIG1        0.0666
     42 O          -5.6575   11.8739   -0.0807 O.3     1  LIG1       -0.4946
     43 C          -4.5372   12.7409   -0.0049 C.3     1  LIG1        0.0788
     44 H          -4.9387   13.7557   -0.0010 H       1  LIG1        0.0660
     45 H          -3.9597   12.5792    0.9146 H       1  LIG1        0.0660
     46 H          -3.8715   12.6213   -0.8696 H       1  LIG1        0.0660
@<TRIPOS>BOND
     1    12     9    1
     2    34    31    1
     3    46    43    1
     4    23    20    1
     5    40    38    1
     6    10     9    1
     7    39    38   ar
     8    39    35   ar
     9    38    37   ar
    10     9     8    1
    11     9    11    1
    12    37    42    1
    13    37    36   ar
    14    42    43    1
    15    35    36   ar
    16    35    27    1
    17    32    31    1
    18    36    41    1
    19    27    26   ar
    20    27    28   ar
    21     8     3    1
    22    30    31    1
    23    30    26    1
    24    31    33    1
    25    26    25   ar
    26    28    24   ar
    27    25    24   ar
    28    25    29    1
    29    24    16    1
    30    43    44    1
    31    43    45    1
    32     7     2    1
    33    17    16   ar
    34    17    13   ar
    35     3     2   ar
    36     3     4   ar
    37    16    15   ar
    38     2     1   ar
    39    15    19    1
    40    15    14   ar
    41    13    14   ar
    42    13     4    1
    43    19    20    1
    44    14    18    1
    45     4     5   ar
    46    21    20    1
    47    20    22    1
    48     1     6    1
    49     1     5   ar
