@<TRIPOS>MOLECULE
mol_data/opt/b3lyp/geoms/mol2/5al5al5al-.out
 35 37 0 0 0
SMALL
GASTEIGER

@<TRIPOS>ATOM
      1 C          -2.2455   -2.0138    0.0052 C.ar    1  LIG1       -0.0202
      2 C          -0.8791   -2.0547    0.0030 C.ar    1  LIG1       -0.0123
      3 C          -0.2945   -0.7518    0.0020 C.ar    1  LIG1        0.1353
      4 C          -1.2254    0.2814    0.0031 C.ar    1  LIG1        0.0676
      5 S          -2.8466   -0.3932    0.0069 S.2     1  LIG1       -0.0924
      6 H          -2.9356   -2.8451    0.0063 H       1  LIG1        0.0695
      7 H          -0.3143   -2.9775    0.0020 H       1  LIG1        0.0660
      8 O           1.0414   -0.4763   -0.0003 O.3     1  LIG1       -0.4939
      9 C           1.9360   -1.5812   -0.0052 C.3     1  LIG1        0.0788
     10 H           2.9409   -1.1571   -0.0077 H       1  LIG1        0.0660
     11 H           1.8098   -2.2042    0.8887 H       1  LIG1        0.0660
     12 H           1.8040   -2.2009   -0.9007 H       1  LIG1        0.0660
     13 C          -0.9860    1.7051    0.0015 C.ar    1  LIG1        0.0336
     14 C           0.2235    2.3730    0.0167 C.ar    1  LIG1       -0.0039
     15 C           0.0828    3.7867    0.0104 C.ar    1  LIG1        0.1359
     16 C          -1.2333    4.2332   -0.0097 C.ar    1  LIG1        0.0682
     17 S          -2.3144    2.8493   -0.0219 S.2     1  LIG1       -0.0833
     18 H           1.1661    1.8485    0.0325 H       1  LIG1        0.0666
     19 O           1.1096    4.6854    0.0230 O.3     1  LIG1       -0.4939
     20 C           2.4319    4.1654    0.0379 C.3     1  LIG1        0.0788
     21 H           3.0968    5.0303    0.0429 H       1  LIG1        0.0660
     22 H           2.6168    3.5624    0.9353 H       1  LIG1        0.0660
     23 H           2.6353    3.5584   -0.8528 H       1  LIG1        0.0660
     24 C          -1.7272    5.5895   -0.0204 C.ar    1  LIG1        0.0330
     25 C          -1.0016    6.7669   -0.0102 C.ar    1  LIG1       -0.0045
     26 C          -1.8291    7.9302   -0.0262 C.ar    1  LIG1        0.1277
     27 C          -3.1719    7.6465   -0.0486 C.ar    1  LIG1        0.0180
     28 S          -3.4488    5.9351   -0.0502 S.2     1  LIG1       -0.0923
     29 H          -3.9933    8.3461   -0.0636 H       1  LIG1        0.0730
     30 H           0.0771    6.7735    0.0083 H       1  LIG1        0.0666
     31 O          -1.4001    9.2261   -0.0203 O.3     1  LIG1       -0.4946
     32 C           0.0021    9.4423   -0.0058 C.3     1  LIG1        0.0788
     33 H           0.1420   10.5245   -0.0073 H       1  LIG1        0.0660
     34 H           0.4690    9.0210    0.8940 H       1  LIG1        0.0660
     35 H           0.4882    9.0158   -0.8928 H       1  LIG1        0.0660
@<TRIPOS>BOND
     1    12     9    1
     2    35    32    1
     3    23    20    1
     4    29    27    1
     5    28    27   ar
     6    28    24   ar
     7    27    26   ar
     8    26    31    1
     9    26    25   ar
    10    17    16   ar
    11    17    13   ar
    12    24    25   ar
    13    24    16    1
    14    31    32    1
    15    25    30    1
    16    16    15   ar
    17    10     9    1
    18    33    32    1
    19    32    34    1
    20     9     8    1
    21     9    11    1
    22     8     3    1
    23    13     4    1
    24    13    14   ar
    25     3     2   ar
    26     3     4   ar
    27     7     2    1
    28     2     1   ar
    29     4     5   ar
    30     1     6    1
    31     1     5   ar
    32    15    14   ar
    33    15    19    1
    34    14    18    1
    35    19    20    1
    36    20    21    1
    37    20    22    1
