@<TRIPOS>MOLECULE
mol_data/opt/b3lyp/geoms/mol2/5al5al-5al-.out
 35 37 0 0 0
SMALL
GASTEIGER

@<TRIPOS>ATOM
      1 C          -2.2455   -2.0138    0.0010 C.ar    1  LIG1       -0.0202
      2 C          -0.8791   -2.0547   -0.0002 C.ar    1  LIG1       -0.0123
      3 C          -0.2944   -0.7518    0.0001 C.ar    1  LIG1        0.1353
      4 C          -1.2254    0.2814    0.0015 C.ar    1  LIG1        0.0676
      5 S          -2.8466   -0.3933    0.0024 S.2     1  LIG1       -0.0924
      6 H          -2.9356   -2.8452    0.0010 H       1  LIG1        0.0695
      7 H          -0.3143   -2.9775   -0.0013 H       1  LIG1        0.0660
      8 O           1.0414   -0.4763   -0.0008 O.3     1  LIG1       -0.4939
      9 C           1.9360   -1.5812   -0.0024 C.3     1  LIG1        0.0788
     10 H           2.9410   -1.1572   -0.0030 H       1  LIG1        0.0660
     11 H           1.8077   -2.2032    0.8920 H       1  LIG1        0.0660
     12 H           1.8061   -2.2020   -0.8974 H       1  LIG1        0.0660
     13 C          -0.9860    1.7051    0.0022 C.ar    1  LIG1        0.0336
     14 C           0.2236    2.3730    0.0017 C.ar    1  LIG1       -0.0039
     15 C           0.0829    3.7867    0.0026 C.ar    1  LIG1        0.1359
     16 C          -1.2334    4.2332    0.0034 C.ar    1  LIG1        0.0682
     17 S          -2.3146    2.8493    0.0050 S.2     1  LIG1       -0.0833
     18 H           1.1663    1.8485    0.0005 H       1  LIG1        0.0666
     19 O           1.1097    4.6854    0.0020 O.3     1  LIG1       -0.4939
     20 C           2.4321    4.1654   -0.0025 C.3     1  LIG1        0.0788
     21 H           3.0970    5.0303   -0.0032 H       1  LIG1        0.0660
     22 H           2.6288    3.5591    0.8902 H       1  LIG1        0.0660
     23 H           2.6237    3.5617   -0.8981 H       1  LIG1        0.0660
     24 C          -1.7274    5.5895    0.0031 C.ar    1  LIG1        0.0330
     25 C          -1.0018    6.7668    0.0201 C.ar    1  LIG1       -0.0045
     26 C          -1.8294    7.9302    0.0139 C.ar    1  LIG1        0.1277
     27 C          -3.1722    7.6466   -0.0076 C.ar    1  LIG1        0.0180
     28 S          -3.4490    5.9352   -0.0217 S.2     1  LIG1       -0.0923
     29 H          -3.9937    8.3463   -0.0158 H       1  LIG1        0.0730
     30 H           0.0769    6.7734    0.0368 H       1  LIG1        0.0666
     31 O          -1.4004    9.2261    0.0278 O.3     1  LIG1       -0.4946
     32 C           0.0017    9.4422    0.0436 C.3     1  LIG1        0.0788
     33 H           0.1416   10.5244    0.0497 H       1  LIG1        0.0660
     34 H           0.4688    9.0145    0.9402 H       1  LIG1        0.0660
     35 H           0.4877    9.0220   -0.8466 H       1  LIG1        0.0660
@<TRIPOS>BOND
     1    23    20    1
     2    12     9    1
     3    35    32    1
     4    28    27   ar
     5    28    24   ar
     6    29    27    1
     7    27    26   ar
     8    21    20    1
     9    10     9    1
    10    20    19    1
    11    20    22    1
    12     9     8    1
    13     9    11    1
    14     7     2    1
    15     8     3    1
    16     2     3   ar
    17     2     1   ar
    18     3     4   ar
    19    18    14    1
    20     1     6    1
    21     1     5   ar
    22     4    13    1
    23     4     5   ar
    24    14    13   ar
    25    14    15   ar
    26    19    15    1
    27    13    17   ar
    28    15    16   ar
    29    24    16    1
    30    24    25   ar
    31    16    17   ar
    32    26    25   ar
    33    26    31    1
    34    25    30    1
    35    31    32    1
    36    32    33    1
    37    32    34    1
