@<TRIPOS>MOLECULE
mol_data/opt/b3lyp/geoms/mol2/5al5al-5al5al.out
 46 49 0 0 0
SMALL
GASTEIGER

@<TRIPOS>ATOM
      1 C          -2.2099   -2.1000    0.0008 C.ar    1  LIG1       -0.0202
      2 C          -0.8435   -2.1473    0.0008 C.ar    1  LIG1       -0.0123
      3 C          -0.2530   -0.8473    0.0010 C.ar    1  LIG1        0.1353
      4 C          -1.1798    0.1904    0.0010 C.ar    1  LIG1        0.0676
      5 S          -2.8043   -0.4771    0.0010 S.2     1  LIG1       -0.0924
      6 H          -2.9036   -2.9283    0.0008 H       1  LIG1        0.0695
      7 H          -0.2832   -3.0729    0.0008 H       1  LIG1        0.0660
      8 O           1.0834   -0.5771    0.0010 O.3     1  LIG1       -0.4939
      9 C           1.9738   -1.6857    0.0008 C.3     1  LIG1        0.0788
     10 H           2.9804   -1.2657    0.0009 H       1  LIG1        0.0660
     11 H           1.8421   -2.3065    0.8955 H       1  LIG1        0.0660
     12 H           1.8421   -2.3063   -0.8940 H       1  LIG1        0.0660
     13 C          -0.9334    1.6117    0.0012 C.ar    1  LIG1        0.0336
     14 C           0.2811    2.2732    0.0013 C.ar    1  LIG1       -0.0039
     15 C           0.1495    3.6857    0.0016 C.ar    1  LIG1        0.1359
     16 C          -1.1662    4.1413    0.0018 C.ar    1  LIG1        0.0682
     17 S          -2.2562    2.7632    0.0014 S.2     1  LIG1       -0.0833
     18 H           1.2204    1.7425    0.0012 H       1  LIG1        0.0666
     19 O           1.1808    4.5785    0.0018 O.3     1  LIG1       -0.4939
     20 C           2.5006    4.0504    0.0017 C.3     1  LIG1        0.0788
     21 H           3.1707    4.9113    0.0020 H       1  LIG1        0.0660
     22 H           2.6903    3.4440    0.8958 H       1  LIG1        0.0660
     23 H           2.6903    3.4445   -0.8926 H       1  LIG1        0.0660
     24 C          -1.6482    5.4963    0.0023 C.ar    1  LIG1        0.0336
     25 C          -0.9148    6.6700    0.0019 C.ar    1  LIG1       -0.0039
     26 C          -1.7235    7.8357    0.0026 C.ar    1  LIG1        0.1359
     27 C          -3.0922    7.5883    0.0033 C.ar    1  LIG1        0.0682
     28 S          -3.3664    5.8528    0.0051 S.2     1  LIG1       -0.0833
     29 H           0.1638    6.6679    0.0009 H       1  LIG1        0.0666
     30 O          -1.2615    9.1198    0.0022 O.3     1  LIG1       -0.4939
     31 C           0.1471    9.3054   -0.0070 C.3     1  LIG1        0.0788
     32 H           0.3101   10.3841   -0.0095 H       1  LIG1        0.0660
     33 H           0.6157    8.8711    0.8848 H       1  LIG1        0.0660
     34 H           0.6043    8.8684   -0.9032 H       1  LIG1        0.0660
     35 C          -4.1805    8.5350    0.0027 C.ar    1  LIG1        0.0330
     36 C          -4.1176    9.9169    0.0215 C.ar    1  LIG1       -0.0045
     37 C          -5.4054   10.5328    0.0146 C.ar    1  LIG1        0.1277
     38 C          -6.4425    9.6339   -0.0091 C.ar    1  LIG1        0.0180
     39 S          -5.8546    8.0027   -0.0250 S.2     1  LIG1       -0.0923
     40 H          -7.5002    9.8476   -0.0181 H       1  LIG1        0.0730
     41 H          -3.1777   10.4462    0.0401 H       1  LIG1        0.0666
     42 O          -5.6580   11.8746    0.0295 O.3     1  LIG1       -0.4946
     43 C          -4.5355   12.7416    0.0571 C.3     1  LIG1        0.0788
     44 H          -4.9363   13.7567    0.0662 H       1  LIG1        0.0660
     45 H          -3.9256   12.5880    0.9568 H       1  LIG1        0.0660
     46 H          -3.9012   12.6136   -0.8296 H       1  LIG1        0.0660
@<TRIPOS>BOND
     1    34    31    1
     2    12     9    1
     3    23    20    1
     4    46    43    1
     5    39    38   ar
     6    39    35   ar
     7    40    38    1
     8    32    31    1
     9    38    37   ar
    10    31    30    1
    11    31    33    1
    12     6     1    1
    13     7     2    1
    14     9    10    1
    15     9     8    1
    16     9    11    1
    17     1     2   ar
    18     1     5   ar
    19     2     3   ar
    20    29    25    1
    21     3     8    1
    22     3     4   ar
    23     5     4   ar
    24     4    13    1
    25    18    14    1
    26    13    14   ar
    27    13    17   ar
    28    14    15   ar
    29    17    16   ar
    30    15    16   ar
    31    15    19    1
    32    20    19    1
    33    20    21    1
    34    20    22    1
    35    16    24    1
    36    25    24   ar
    37    25    26   ar
    38    30    26    1
    39    24    28   ar
    40    26    27   ar
    41    35    27    1
    42    35    36   ar
    43    27    28   ar
    44    37    36   ar
    45    37    42    1
    46    36    41    1
    47    42    43    1
    48    43    44    1
    49    43    45    1
