@<TRIPOS>MOLECULE
mol_data/opt/b3lyp/geoms/mol2/5al5al-5al5al-.out
 46 49 0 0 0
SMALL
GASTEIGER

@<TRIPOS>ATOM
      1 C          -2.2102   -2.0998    0.0003 C.ar    1  LIG1       -0.0202
      2 C          -0.8438   -2.1472   -0.0003 C.ar    1  LIG1       -0.0123
      3 C          -0.2532   -0.8473   -0.0000 C.ar    1  LIG1        0.1353
      4 C          -1.1800    0.1904    0.0008 C.ar    1  LIG1        0.0676
      5 S          -2.8044   -0.4768    0.0013 S.2     1  LIG1       -0.0924
      6 H          -2.9041   -2.9280    0.0003 H       1  LIG1        0.0695
      7 H          -0.2837   -3.0729   -0.0009 H       1  LIG1        0.0660
      8 O           1.0833   -0.5773   -0.0006 O.3     1  LIG1       -0.4939
      9 C           1.9737   -1.6859   -0.0013 C.3     1  LIG1        0.0788
     10 H           2.9803   -1.2658   -0.0016 H       1  LIG1        0.0660
     11 H           1.8424   -2.3069    0.8932 H       1  LIG1        0.0660
     12 H           1.8416   -2.3062   -0.8963 H       1  LIG1        0.0660
     13 C          -0.9334    1.6119    0.0013 C.ar    1  LIG1        0.0336
     14 C           0.2812    2.2731    0.0010 C.ar    1  LIG1       -0.0039
     15 C           0.1496    3.6858    0.0016 C.ar    1  LIG1        0.1359
     16 C          -1.1661    4.1412    0.0024 C.ar    1  LIG1        0.0682
     17 S          -2.2560    2.7633    0.0023 S.2     1  LIG1       -0.0833
     18 H           1.2204    1.7423    0.0004 H       1  LIG1        0.0666
     19 O           1.1810    4.5785    0.0015 O.3     1  LIG1       -0.4939
     20 C           2.5009    4.0504    0.0008 C.3     1  LIG1        0.0788
     21 H           3.1709    4.9113    0.0009 H       1  LIG1        0.0660
     22 H           2.6909    3.4440    0.8948 H       1  LIG1        0.0660
     23 H           2.6903    3.4447   -0.8937 H       1  LIG1        0.0660
     24 C          -1.6481    5.4964    0.0032 C.ar    1  LIG1        0.0336
     25 C          -0.9146    6.6700    0.0033 C.ar    1  LIG1       -0.0039
     26 C          -1.7235    7.8358    0.0041 C.ar    1  LIG1        0.1359
     27 C          -3.0921    7.5882    0.0048 C.ar    1  LIG1        0.0682
     28 S          -3.3662    5.8528    0.0042 S.2     1  LIG1       -0.0833
     29 H           0.1641    6.6678    0.0027 H       1  LIG1        0.0666
     30 O          -1.2614    9.1199    0.0044 O.3     1  LIG1       -0.4939
     31 C           0.1472    9.3057    0.0040 C.3     1  LIG1        0.0788
     32 H           0.3100   10.3845    0.0044 H       1  LIG1        0.0660
     33 H           0.6105    8.8698    0.8976 H       1  LIG1        0.0660
     34 H           0.6098    8.8706   -0.8905 H       1  LIG1        0.0660
     35 C          -4.1805    8.5349    0.0057 C.ar    1  LIG1        0.0330
     36 C          -4.1175    9.9169    0.0061 C.ar    1  LIG1       -0.0045
     37 C          -5.4055   10.5325    0.0071 C.ar    1  LIG1        0.1277
     38 C          -6.4427    9.6334    0.0074 C.ar    1  LIG1        0.0180
     39 S          -5.8545    8.0022    0.0066 S.2     1  LIG1       -0.0923
     40 H          -7.5004    9.8470    0.0081 H       1  LIG1        0.0730
     41 H          -3.1776   10.4464    0.0057 H       1  LIG1        0.0666
     42 O          -5.6581   11.8745    0.0076 O.3     1  LIG1       -0.4946
     43 C          -4.5355   12.7417    0.0075 C.3     1  LIG1        0.0788
     44 H          -4.9363   13.7568    0.0081 H       1  LIG1        0.0660
     45 H          -3.9130   12.6005    0.9005 H       1  LIG1        0.0660
     46 H          -3.9138   12.6013   -0.8863 H       1  LIG1        0.0660
@<TRIPOS>BOND
     1    12     9    1
     2    23    20    1
     3    34    31    1
     4    46    43    1
     5    10     9    1
     6     9     8    1
     7     9    11    1
     8     7     2    1
     9     8     3    1
    10     2     3   ar
    11     2     1   ar
    12     3     4   ar
    13     6     1    1
    14     1     5   ar
    15    18    14    1
    16     4    13    1
    17     4     5   ar
    18    20    21    1
    19    20    19    1
    20    20    22    1
    21    14    13   ar
    22    14    15   ar
    23    13    17   ar
    24    19    15    1
    25    15    16   ar
    26    17    16   ar
    27    16    24    1
    28    29    25    1
    29    24    25   ar
    30    24    28   ar
    31    25    26   ar
    32    31    32    1
    33    31    30    1
    34    31    33    1
    35    26    30    1
    36    26    27   ar
    37    28    27   ar
    38    27    35    1
    39    41    36    1
    40    35    36   ar
    41    35    39   ar
    42    36    37   ar
    43    39    38   ar
    44    37    38   ar
    45    37    42    1
    46    38    40    1
    47    43    42    1
    48    43    44    1
    49    43    45    1
