@<TRIPOS>MOLECULE
mol_data/opt/b3lyp/geoms/mol2/5al5al-5al.out
 35 37 0 0 0
SMALL
GASTEIGER

@<TRIPOS>ATOM
      1 C          -2.2455   -2.0139    0.0003 C.ar    1  LIG1       -0.0202
      2 C          -0.8791   -2.0547   -0.0004 C.ar    1  LIG1       -0.0123
      3 C          -0.2944   -0.7518   -0.0001 C.ar    1  LIG1        0.1353
      4 C          -1.2254    0.2814    0.0008 C.ar    1  LIG1        0.0676
      5 S          -2.8466   -0.3933    0.0012 S.2     1  LIG1       -0.0924
      6 H          -2.9356   -2.8452    0.0002 H       1  LIG1        0.0695
      7 H          -0.3143   -2.9775   -0.0010 H       1  LIG1        0.0660
      8 O           1.0414   -0.4763   -0.0005 O.3     1  LIG1       -0.4939
      9 C           1.9360   -1.5812   -0.0013 C.3     1  LIG1        0.0788
     10 H           2.9410   -1.1573   -0.0015 H       1  LIG1        0.0660
     11 H           1.8072   -2.2029    0.8932 H       1  LIG1        0.0660
     12 H           1.8065   -2.2023   -0.8962 H       1  LIG1        0.0660
     13 C          -0.9860    1.7051    0.0013 C.ar    1  LIG1        0.0336
     14 C           0.2236    2.3730    0.0010 C.ar    1  LIG1       -0.0039
     15 C           0.0829    3.7867    0.0017 C.ar    1  LIG1        0.1359
     16 C          -1.2334    4.2332    0.0024 C.ar    1  LIG1        0.0682
     17 S          -2.3146    2.8493    0.0023 S.2     1  LIG1       -0.0833
     18 H           1.1663    1.8485    0.0004 H       1  LIG1        0.0666
     19 O           1.1097    4.6854    0.0016 O.3     1  LIG1       -0.4939
     20 C           2.4321    4.1654    0.0010 C.3     1  LIG1        0.0788
     21 H           3.0970    5.0303    0.0011 H       1  LIG1        0.0660
     22 H           2.6266    3.5600    0.8948 H       1  LIG1        0.0660
     23 H           2.6260    3.5607   -0.8934 H       1  LIG1        0.0660
     24 C          -1.7274    5.5895    0.0032 C.ar    1  LIG1        0.0330
     25 C          -1.0017    6.7669    0.0033 C.ar    1  LIG1       -0.0045
     26 C          -1.8294    7.9302    0.0042 C.ar    1  LIG1        0.1277
     27 C          -3.1723    7.6465    0.0047 C.ar    1  LIG1        0.0180
     28 S          -3.4492    5.9351    0.0041 S.2     1  LIG1       -0.0923
     29 H          -3.9939    8.3462    0.0054 H       1  LIG1        0.0730
     30 H           0.0771    6.7735    0.0028 H       1  LIG1        0.0666
     31 O          -1.4003    9.2262    0.0045 O.3     1  LIG1       -0.4946
     32 C           0.0020    9.4423    0.0041 C.3     1  LIG1        0.0788
     33 H           0.1419   10.5245    0.0046 H       1  LIG1        0.0660
     34 H           0.4788    9.0180    0.8973 H       1  LIG1        0.0660
     35 H           0.4782    9.0188   -0.8896 H       1  LIG1        0.0660
@<TRIPOS>BOND
     1    12     9    1
     2    23    20    1
     3    35    32    1
     4    10     9    1
     5     9     8    1
     6     9    11    1
     7     7     2    1
     8     8     3    1
     9     2     3   ar
    10     2     1   ar
    11     3     4   ar
    12     6     1    1
    13     1     5   ar
    14    18    14    1
    15     4     5   ar
    16     4    13    1
    17    20    21    1
    18    20    19    1
    19    20    22    1
    20    14    13   ar
    21    14    15   ar
    22    13    17   ar
    23    19    15    1
    24    15    16   ar
    25    17    16   ar
    26    16    24    1
    27    30    25    1
    28    24    25   ar
    29    24    28   ar
    30    25    26   ar
    31    32    31    1
    32    32    33    1
    33    32    34    1
    34    28    27   ar
    35    26    31    1
    36    26    27   ar
    37    27    29    1
