@<TRIPOS>MOLECULE
mol_data/opt/b3lyp/geoms/mol2/5al5al5al-5al-.out
 46 49 0 0 0
SMALL
GASTEIGER

@<TRIPOS>ATOM
      1 C          -2.2040   -2.1007    0.1094 C.ar    1  LIG1       -0.0202
      2 C          -0.8424   -2.1458   -0.0067 C.ar    1  LIG1       -0.0123
      3 C          -0.2537   -0.8451   -0.0273 C.ar    1  LIG1        0.1353
      4 C          -1.1774    0.1904    0.0718 C.ar    1  LIG1        0.0676
      5 S          -2.7954   -0.4794    0.2029 S.2     1  LIG1       -0.0924
      6 H          -2.8953   -2.9300    0.1499 H       1  LIG1        0.0695
      7 H          -0.2843   -3.0702   -0.0756 H       1  LIG1        0.0660
      8 O           1.0777   -0.5718   -0.1354 O.3     1  LIG1       -0.4939
      9 C           1.9608   -1.6755   -0.2894 C.3     1  LIG1        0.0788
     10 H           2.9617   -1.2518   -0.3805 H       1  LIG1        0.0660
     11 H           1.9292   -2.3403    0.5827 H       1  LIG1        0.0660
     12 H           1.7293   -2.2517   -1.1935 H       1  LIG1        0.0660
     13 C          -0.9317    1.6119    0.0721 C.ar    1  LIG1        0.0336
     14 C           0.2821    2.2732    0.1067 C.ar    1  LIG1       -0.0039
     15 C           0.1507    3.6858    0.0963 C.ar    1  LIG1        0.1359
     16 C          -1.1646    4.1410    0.0545 C.ar    1  LIG1        0.0682
     17 S          -2.2537    2.7628    0.0176 S.2     1  LIG1       -0.0833
     18 H           1.2207    1.7424    0.1435 H       1  LIG1        0.0666
     19 O           1.1813    4.5787    0.1266 O.3     1  LIG1       -0.4939
     20 C           2.5004    4.0508    0.1739 C.3     1  LIG1        0.0788
     21 H           3.1702    4.9117    0.1898 H       1  LIG1        0.0660
     22 H           2.6605    3.4512    1.0782 H       1  LIG1        0.0660
     23 H           2.7193    3.4382   -0.7092 H       1  LIG1        0.0660
     24 C          -1.6463    5.4961    0.0361 C.ar    1  LIG1        0.0336
     25 C          -0.9130    6.6698    0.0483 C.ar    1  LIG1       -0.0039
     26 C          -1.7213    7.8355    0.0222 C.ar    1  LIG1        0.1359
     27 C          -3.0896    7.5879   -0.0090 C.ar    1  LIG1        0.0682
     28 S          -3.3638    5.8525   -0.0148 S.2     1  LIG1       -0.0833
     29 H           0.1653    6.6677    0.0758 H       1  LIG1        0.0666
     30 O          -1.2598    9.1198    0.0284 O.3     1  LIG1       -0.4939
     31 C           0.1468    9.3061    0.1019 C.3     1  LIG1        0.0788
     32 H           0.3088   10.3850    0.1129 H       1  LIG1        0.0660
     33 H           0.5628    8.8683    1.0175 H       1  LIG1        0.0660
     34 H           0.6560    8.8733   -0.7681 H       1  LIG1        0.0660
     35 C          -4.1775    8.5346   -0.0344 C.ar    1  LIG1        0.0330
     36 C          -4.1149    9.9127   -0.1368 C.ar    1  LIG1       -0.0045
     37 C          -5.4020   10.5301   -0.1322 C.ar    1  LIG1        0.1277
     38 C          -6.4381    9.6358   -0.0279 C.ar    1  LIG1        0.0180
     39 S          -5.8499    8.0079    0.0747 S.2     1  LIG1       -0.0923
     40 H          -7.4953    9.8514   -0.0053 H       1  LIG1        0.0730
     41 H          -3.1757   10.4381   -0.2152 H       1  LIG1        0.0666
     42 O          -5.6550   11.8689   -0.2216 O.3     1  LIG1       -0.4946
     43 C          -4.5341   12.7309   -0.3359 C.3     1  LIG1        0.0788
     44 H          -4.9354   13.7441   -0.3949 H       1  LIG1        0.0660
     45 H          -3.8733   12.6564    0.5375 H       1  LIG1        0.0660
     46 H          -3.9515   12.5219   -1.2426 H       1  LIG1        0.0660
@<TRIPOS>BOND
     1    46    43    1
     2    12     9    1
     3    34    31    1
     4    23    20    1
     5    44    43    1
     6    10     9    1
     7    43    42    1
     8    43    45    1
     9     9     8    1
    10     9    11    1
    11    42    37    1
    12    41    36    1
    13    36    37   ar
    14    36    35   ar
    15     8     3    1
    16    37    38   ar
    17     7     2    1
    18    35    27    1
    19    35    39   ar
    20    38    40    1
    21    38    39   ar
    22     3     2   ar
    23     3     4   ar
    24    28    27   ar
    25    28    24   ar
    26    27    26   ar
    27     2     1   ar
    28    17    16   ar
    29    17    13   ar
    30    26    30    1
    31    26    25   ar
    32    30    31    1
    33    24    25   ar
    34    24    16    1
    35    25    29    1
    36    16    15   ar
    37     4    13    1
    38     4     5   ar
    39    13    14   ar
    40    15    14   ar
    41    15    19    1
    42    31    32    1
    43    31    33    1
    44    14    18    1
    45     1     6    1
    46     1     5   ar
    47    19    20    1
    48    20    21    1
    49    20    22    1
