@<TRIPOS>MOLECULE
mol_data/opt/b3lyp/geoms/mol2/5al5al.out
 24 25 0 0 0
SMALL
GASTEIGER

@<TRIPOS>ATOM
      1 C          -2.2494   -1.8823    0.1990 C.ar    1  LIG1       -0.0202
      2 C          -0.8875   -1.9265    0.0919 C.ar    1  LIG1       -0.0123
      3 C          -0.3049   -0.6246    0.0008 C.ar    1  LIG1        0.1353
      4 C          -1.2326    0.4078    0.0349 C.ar    1  LIG1        0.0676
      5 S          -2.8469   -0.2601    0.2037 S.2     1  LIG1       -0.0924
      6 H          -2.9367   -2.7118    0.2826 H       1  LIG1        0.0695
      7 H          -0.3242   -2.8502    0.0773 H       1  LIG1        0.0660
      8 O           1.0267   -0.3508   -0.1143 O.3     1  LIG1       -0.4939
      9 C           1.9116   -1.4553   -0.2421 C.3     1  LIG1        0.0788
     10 H           2.9097   -1.0314   -0.3597 H       1  LIG1        0.0660
     11 H           1.8945   -2.0914    0.6519 H       1  LIG1        0.0660
     12 H           1.6720   -2.0633   -1.1232 H       1  LIG1        0.0660
     13 C          -0.9942    1.8335   -0.0470 C.ar    1  LIG1        0.0330
     14 C           0.2037    2.5078    0.0801 C.ar    1  LIG1       -0.0045
     15 C           0.0630    3.9231   -0.0578 C.ar    1  LIG1        0.1277
     16 C          -1.2299    4.3223   -0.2871 C.ar    1  LIG1        0.0180
     17 S          -2.3023    2.9623   -0.3537 S.2     1  LIG1       -0.0923
     18 H          -1.5940    5.3293   -0.4207 H       1  LIG1        0.0730
     19 H           1.1329    1.9933    0.2714 H       1  LIG1        0.0666
     20 O           1.0652    4.8456    0.0231 O.3     1  LIG1       -0.4946
     21 C           2.3742    4.3578    0.2725 C.3     1  LIG1        0.0788
     22 H           3.0241    5.2340    0.2982 H       1  LIG1        0.0660
     23 H           2.4365    3.8360    1.2362 H       1  LIG1        0.0660
     24 H           2.7140    3.6816   -0.5226 H       1  LIG1        0.0660
@<TRIPOS>BOND
     1    12     9    1
     2    24    21    1
     3    18    16    1
     4    10     9    1
     5    17    16   ar
     6    17    13   ar
     7    16    15   ar
     8     9     8    1
     9     9    11    1
    10     8     3    1
    11    15    20    1
    12    15    14   ar
    13    13     4    1
    14    13    14   ar
    15     3     4   ar
    16     3     2   ar
    17    20    21    1
    18     4     5   ar
    19     7     2    1
    20    14    19    1
    21     2     1   ar
    22     1     5   ar
    23     1     6    1
    24    21    22    1
    25    21    23    1
