@<TRIPOS>MOLECULE
mol_data/opt/b3lyp/geoms/mol2/5al5al5al.out
 35 37 0 0 0
SMALL
GASTEIGER

@<TRIPOS>ATOM
      1 C          -2.2455   -2.0138    0.0044 C.ar    1  LIG1       -0.0202
      2 C          -0.8791   -2.0547    0.0029 C.ar    1  LIG1       -0.0123
      3 C          -0.2945   -0.7518    0.0019 C.ar    1  LIG1        0.1353
      4 C          -1.2254    0.2814    0.0023 C.ar    1  LIG1        0.0676
      5 S          -2.8466   -0.3932    0.0056 S.2     1  LIG1       -0.0924
      6 H          -2.9356   -2.8451    0.0055 H       1  LIG1        0.0695
      7 H          -0.3143   -2.9775    0.0023 H       1  LIG1        0.0660
      8 O           1.0414   -0.4763    0.0000 O.3     1  LIG1       -0.4939
      9 C           1.9360   -1.5812   -0.0041 C.3     1  LIG1        0.0788
     10 H           2.9410   -1.1572   -0.0063 H       1  LIG1        0.0660
     11 H           1.8093   -2.2039    0.8900 H       1  LIG1        0.0660
     12 H           1.8044   -2.2012   -0.8994 H       1  LIG1        0.0660
     13 C          -0.9860    1.7051    0.0006 C.ar    1  LIG1        0.0336
     14 C           0.2235    2.3730    0.0160 C.ar    1  LIG1       -0.0039
     15 C           0.0828    3.7867    0.0095 C.ar    1  LIG1        0.1359
     16 C          -1.2333    4.2332   -0.0107 C.ar    1  LIG1        0.0682
     17 S          -2.3144    2.8493   -0.0246 S.2     1  LIG1       -0.0833
     18 H           1.1661    1.8485    0.0323 H       1  LIG1        0.0666
     19 O           1.1096    4.6854    0.0226 O.3     1  LIG1       -0.4939
     20 C           2.4319    4.1654    0.0414 C.3     1  LIG1        0.0788
     21 H           3.0967    5.0303    0.0472 H       1  LIG1        0.0660
     22 H           2.6145    3.5634    0.9400 H       1  LIG1        0.0660
     23 H           2.6375    3.5574   -0.8481 H       1  LIG1        0.0660
     24 C          -1.7272    5.5895   -0.0203 C.ar    1  LIG1        0.0330
     25 C          -1.0015    6.7668   -0.0269 C.ar    1  LIG1       -0.0045
     26 C          -1.8290    7.9302   -0.0359 C.ar    1  LIG1        0.1277
     27 C          -3.1720    7.6465   -0.0363 C.ar    1  LIG1        0.0180
     28 S          -3.4490    5.9352   -0.0243 S.2     1  LIG1       -0.0923
     29 H          -3.9935    8.3462   -0.0424 H       1  LIG1        0.0730
     30 H           0.0774    6.7733   -0.0257 H       1  LIG1        0.0666
     31 O          -1.3999    9.2260   -0.0437 O.3     1  LIG1       -0.4946
     32 C           0.0024    9.4420   -0.0453 C.3     1  LIG1        0.0788
     33 H           0.1424   10.5243   -0.0524 H       1  LIG1        0.0660
     34 H           0.4790    9.0241    0.8510 H       1  LIG1        0.0660
     35 H           0.4788    9.0122   -0.9359 H       1  LIG1        0.0660
@<TRIPOS>BOND
     1    35    32    1
     2    12     9    1
     3    23    20    1
     4    33    32    1
     5    32    31    1
     6    32    34    1
     7    31    26    1
     8    29    27    1
     9    27    26   ar
    10    27    28   ar
    11    26    25   ar
    12    25    30    1
    13    25    24   ar
    14    17    16   ar
    15    17    13   ar
    16    28    24   ar
    17    24    16    1
    18    16    15   ar
    19    10     9    1
    20     9     8    1
    21     9    11    1
    22     8     3    1
    23    13     4    1
    24    13    14   ar
    25     3     4   ar
    26     3     2   ar
    27     7     2    1
    28     4     5   ar
    29     2     1   ar
    30     1     6    1
    31     1     5   ar
    32    15    14   ar
    33    15    19    1
    34    14    18    1
    35    19    20    1
    36    20    21    1
    37    20    22    1
