@<TRIPOS>MOLECULE
mol_data/opt/b3lyp/geoms/mol2/5al5al5al5al-.out
 46 49 0 0 0
SMALL
GASTEIGER

@<TRIPOS>ATOM
      1 C          -2.2049   -2.0989    0.1565 C.ar    1  LIG1       -0.0202
      2 C          -0.8429   -2.1458    0.0465 C.ar    1  LIG1       -0.0123
      3 C          -0.2539   -0.8456    0.0118 C.ar    1  LIG1        0.1353
      4 C          -1.1776    0.1912    0.0940 C.ar    1  LIG1        0.0676
      5 S          -2.7963   -0.4765    0.2278 S.2     1  LIG1       -0.0924
      6 H          -2.8966   -2.9276    0.2048 H       1  LIG1        0.0695
      7 H          -0.2848   -3.0711   -0.0086 H       1  LIG1        0.0660
      8 O           1.0780   -0.5739   -0.0945 O.3     1  LIG1       -0.4939
      9 C           1.9612   -1.6793   -0.2345 C.3     1  LIG1        0.0788
     10 H           2.9624   -1.2568   -0.3279 H       1  LIG1        0.0660
     11 H           1.9276   -2.3347    0.6445 H       1  LIG1        0.0660
     12 H           1.7316   -2.2651   -1.1329 H       1  LIG1        0.0660
     13 C          -0.9316    1.6126    0.0772 C.ar    1  LIG1        0.0336
     14 C           0.2819    2.2741    0.1171 C.ar    1  LIG1       -0.0039
     15 C           0.1509    3.6865    0.0861 C.ar    1  LIG1        0.1359
     16 C          -1.1637    4.1411    0.0239 C.ar    1  LIG1        0.0682
     17 S          -2.2525    2.7626   -0.0125 S.2     1  LIG1       -0.0833
     18 H           1.2197    1.7438    0.1728 H       1  LIG1        0.0666
     19 O           1.1812    4.5798    0.1174 O.3     1  LIG1       -0.4939
     20 C           2.4988    4.0529    0.2027 C.3     1  LIG1        0.0788
     21 H           3.1682    4.9141    0.2196 H       1  LIG1        0.0660
     22 H           2.6384    3.4682    1.1201 H       1  LIG1        0.0660
     23 H           2.7373    3.4261   -0.6651 H       1  LIG1        0.0660
     24 C          -1.6452    5.4960   -0.0133 C.ar    1  LIG1        0.0336
     25 C          -0.9112    6.6688   -0.0488 C.ar    1  LIG1       -0.0039
     26 C          -1.7195    7.8344   -0.0818 C.ar    1  LIG1        0.1359
     27 C          -3.0882    7.5872   -0.0749 C.ar    1  LIG1        0.0682
     28 S          -3.3632    5.8532   -0.0097 S.2     1  LIG1       -0.0833
     29 H           0.1674    6.6661   -0.0538 H       1  LIG1        0.0666
     30 O          -1.2577    9.1179   -0.1229 O.3     1  LIG1       -0.4939
     31 C           0.1503    9.3022   -0.1710 C.3     1  LIG1        0.0788
     32 H           0.3128   10.3801   -0.2160 H       1  LIG1        0.0660
     33 H           0.6395    8.9002    0.7248 H       1  LIG1        0.0660
     34 H           0.5869    8.8330   -1.0612 H       1  LIG1        0.0660
     35 C          -4.1762    8.5336   -0.1113 C.ar    1  LIG1        0.0330
     36 C          -4.1161    9.9143   -0.0498 C.ar    1  LIG1       -0.0045
     37 C          -5.4023   10.5304   -0.1125 C.ar    1  LIG1        0.1277
     38 C          -6.4351    9.6328   -0.2202 C.ar    1  LIG1        0.0180
     39 S          -5.8446    8.0028   -0.2550 S.2     1  LIG1       -0.0923
     40 H          -7.4910    9.8469   -0.2814 H       1  LIG1        0.0730
     41 H          -3.1796   10.4424    0.0408 H       1  LIG1        0.0666
     42 O          -5.6574   11.8713   -0.0723 O.3     1  LIG1       -0.4946
     43 C          -4.5401   12.7371    0.0473 C.3     1  LIG1        0.0788
     44 H          -4.9425   13.7514    0.0623 H       1  LIG1        0.0660
     45 H          -3.9843   12.5572    0.9768 H       1  LIG1        0.0660
     46 H          -3.8540   12.6351   -0.8036 H       1  LIG1        0.0660
@<TRIPOS>BOND
     1    12     9    1
     2    34    31    1
     3    46    43    1
     4    23    20    1
     5    10     9    1
     6    40    38    1
     7    39    38   ar
     8    39    35   ar
     9     9     8    1
    10     9    11    1
    11    38    37   ar
    12    32    31    1
    13    31    30    1
    14    31    33    1
    15    30    26    1
    16    37    42    1
    17    37    36   ar
    18    35    27    1
    19    35    36   ar
    20     8     3    1
    21    26    27   ar
    22    26    25   ar
    23    27    28   ar
    24    42    43    1
    25    29    25    1
    26    36    41    1
    27    25    24   ar
    28    24    28   ar
    29    24    16    1
    30    17    16   ar
    31    17    13   ar
    32     7     2    1
    33     3     2   ar
    34     3     4   ar
    35    16    15   ar
    36     2     1   ar
    37    43    44    1
    38    43    45    1
    39    13     4    1
    40    13    14   ar
    41    15    14   ar
    42    15    19    1
    43     4     5   ar
    44    14    18    1
    45    19    20    1
    46     1     6    1
    47     1     5   ar
    48    20    21    1
    49    20    22    1
