@<TRIPOS>MOLECULE
mol_data/opt/b3lyp/geoms/mol2/5al5al5al-5al.out
 46 49 0 0 0
SMALL
GASTEIGER

@<TRIPOS>ATOM
      1 C          -2.2061   -2.0992    0.1384 C.ar    1  LIG1       -0.0202
      2 C          -0.8434   -2.1459    0.0376 C.ar    1  LIG1       -0.0123
      3 C          -0.2541   -0.8457    0.0087 C.ar    1  LIG1        0.1353
      4 C          -1.1784    0.1911    0.0862 C.ar    1  LIG1        0.0676
      5 S          -2.7980   -0.4768    0.2082 S.2     1  LIG1       -0.0924
      6 H          -2.8981   -2.9279    0.1809 H       1  LIG1        0.0695
      7 H          -0.2849   -3.0711   -0.0150 H       1  LIG1        0.0660
      8 O           1.0785   -0.5738   -0.0880 O.3     1  LIG1       -0.4939
      9 C           1.9625   -1.6790   -0.2242 C.3     1  LIG1        0.0788
     10 H           2.9644   -1.2564   -0.3103 H       1  LIG1        0.0660
     11 H           1.9231   -2.3359    0.6534 H       1  LIG1        0.0660
     12 H           1.7388   -2.2633   -1.1251 H       1  LIG1        0.0660
     13 C          -0.9323    1.6125    0.0731 C.ar    1  LIG1        0.0336
     14 C           0.2809    2.2739    0.1221 C.ar    1  LIG1       -0.0039
     15 C           0.1502    3.6863    0.0923 C.ar    1  LIG1        0.1359
     16 C          -1.1640    4.1410    0.0219 C.ar    1  LIG1        0.0682
     17 S          -2.2525    2.7626   -0.0238 S.2     1  LIG1       -0.0833
     18 H           1.2184    1.7435    0.1834 H       1  LIG1        0.0666
     19 O           1.1802    4.5796    0.1318 O.3     1  LIG1       -0.4939
     20 C           2.4972    4.0526    0.2256 C.3     1  LIG1        0.0788
     21 H           3.1665    4.9137    0.2484 H       1  LIG1        0.0660
     22 H           2.6304    3.4666    1.1431 H       1  LIG1        0.0660
     23 H           2.7418    3.4270   -0.6414 H       1  LIG1        0.0660
     24 C          -1.6452    5.4959   -0.0167 C.ar    1  LIG1        0.0336
     25 C          -0.9110    6.6688   -0.0455 C.ar    1  LIG1       -0.0039
     26 C          -1.7191    7.8345   -0.0823 C.ar    1  LIG1        0.1359
     27 C          -3.0878    7.5873   -0.0850 C.ar    1  LIG1        0.0682
     28 S          -3.3632    5.8532   -0.0242 S.2     1  LIG1       -0.0833
     29 H           0.1676    6.6661   -0.0431 H       1  LIG1        0.0666
     30 O          -1.2570    9.1180   -0.1184 O.3     1  LIG1       -0.4939
     31 C           0.1513    9.3025   -0.1564 C.3     1  LIG1        0.0788
     32 H           0.3141   10.3804   -0.1987 H       1  LIG1        0.0660
     33 H           0.6343    8.8991    0.7422 H       1  LIG1        0.0660
     34 H           0.5940    8.8345   -1.0443 H       1  LIG1        0.0660
     35 C          -4.1754    8.5338   -0.1275 C.ar    1  LIG1        0.0330
     36 C          -4.1158    9.9143   -0.0637 C.ar    1  LIG1       -0.0045
     37 C          -5.4015   10.5306   -0.1343 C.ar    1  LIG1        0.1277
     38 C          -6.4336    9.6331   -0.2501 C.ar    1  LIG1        0.0180
     39 S          -5.8429    8.0032   -0.2832 S.2     1  LIG1       -0.0923
     40 H          -7.4890    9.8474   -0.3182 H       1  LIG1        0.0730
     41 H          -3.1799   10.4423    0.0340 H       1  LIG1        0.0666
     42 O          -5.6569   11.8714   -0.0940 O.3     1  LIG1       -0.4946
     43 C          -4.5404   12.7370    0.0348 C.3     1  LIG1        0.0788
     44 H          -4.9429   13.7513    0.0486 H       1  LIG1        0.0660
     45 H          -3.9912   12.5558    0.9679 H       1  LIG1        0.0660
     46 H          -3.8484   12.6365   -0.8113 H       1  LIG1        0.0660
@<TRIPOS>BOND
     1    12     9    1
     2    34    31    1
     3    46    43    1
     4    23    20    1
     5    40    38    1
     6    10     9    1
     7    39    38   ar
     8    39    35   ar
     9    38    37   ar
    10     9     8    1
    11     9    11    1
    12    32    31    1
    13    31    30    1
    14    31    33    1
    15    37    42    1
    16    37    36   ar
    17    35    27    1
    18    35    36   ar
    19    30    26    1
    20    42    43    1
    21     8     3    1
    22    27    26   ar
    23    27    28   ar
    24    26    25   ar
    25    36    41    1
    26    25    29    1
    27    25    24   ar
    28    28    24   ar
    29    17    16   ar
    30    17    13   ar
    31    24    16    1
    32     7     2    1
    33     3     2   ar
    34     3     4   ar
    35    16    15   ar
    36    43    44    1
    37    43    45    1
    38     2     1   ar
    39    13     4    1
    40    13    14   ar
    41     4     5   ar
    42    15    14   ar
    43    15    19    1
    44    14    18    1
    45    19    20    1
    46     1     6    1
    47     1     5   ar
    48    20    21    1
    49    20    22    1
