@<TRIPOS>MOLECULE
mol_data/opt/b3lyp/geoms/mol2/5al5al-.out
 24 25 0 0 0
SMALL
GASTEIGER

@<TRIPOS>ATOM
      1 C          -2.2555   -1.8909    0.0002 C.ar    1  LIG1       -0.0202
      2 C          -0.8895   -1.9275   -0.0004 C.ar    1  LIG1       -0.0123
      3 C          -0.3087   -0.6217   -0.0001 C.ar    1  LIG1        0.1353
      4 C          -1.2412    0.4077    0.0007 C.ar    1  LIG1        0.0676
      5 S          -2.8600   -0.2714    0.0011 S.2     1  LIG1       -0.0924
      6 H          -2.9434   -2.7242    0.0001 H       1  LIG1        0.0695
      7 H          -0.3217   -2.8485   -0.0010 H       1  LIG1        0.0660
      8 O           1.0270   -0.3431   -0.0005 O.3     1  LIG1       -0.4939
      9 C           1.9246   -1.4447   -0.0012 C.3     1  LIG1        0.0788
     10 H           2.9282   -1.0171   -0.0014 H       1  LIG1        0.0660
     11 H           1.7990   -2.0674    0.8933 H       1  LIG1        0.0660
     12 H           1.7984   -2.0667   -0.8961 H       1  LIG1        0.0660
     13 C          -1.0058    1.8364    0.0012 C.ar    1  LIG1        0.0330
     14 C           0.2028    2.5051    0.0010 C.ar    1  LIG1       -0.0045
     15 C           0.0531    3.9261    0.0017 C.ar    1  LIG1        0.1277
     16 C          -1.2561    4.3367    0.0023 C.ar    1  LIG1        0.0180
     17 S          -2.3363    2.9811    0.0022 S.2     1  LIG1       -0.0923
     18 H          -1.6295    5.3492    0.0029 H       1  LIG1        0.0730
     19 H           1.1466    1.9827    0.0005 H       1  LIG1        0.0666
     20 O           1.0633    4.8437    0.0017 O.3     1  LIG1       -0.4946
     21 C           2.3911    4.3432    0.0012 C.3     1  LIG1        0.0788
     22 H           3.0442    5.2174    0.0014 H       1  LIG1        0.0660
     23 H           2.5981    3.7399    0.8945 H       1  LIG1        0.0660
     24 H           2.5977    3.7405   -0.8927 H       1  LIG1        0.0660
@<TRIPOS>BOND
     1    12     9    1
     2    24    21    1
     3    10     9    1
     4     9     8    1
     5     9    11    1
     6     7     2    1
     7     8     3    1
     8     2     3   ar
     9     2     1   ar
    10     3     4   ar
    11     6     1    1
    12     1     5   ar
    13    19    14    1
    14     4     5   ar
    15     4    13    1
    16    14    13   ar
    17    14    15   ar
    18    21    22    1
    19    21    20    1
    20    21    23    1
    21    13    17   ar
    22    20    15    1
    23    15    16   ar
    24    17    16   ar
    25    16    18    1
