@<TRIPOS>MOLECULE
mol_data/opt/b3lyp/geoms/mol2/5al5al-5al-5al.out
 46 49 0 0 0
SMALL
GASTEIGER

@<TRIPOS>ATOM
      1 C          -2.2098   -2.1000   -0.0174 C.ar    1  LIG1       -0.0202
      2 C          -0.8435   -2.1473   -0.0084 C.ar    1  LIG1       -0.0123
      3 C          -0.2530   -0.8473   -0.0027 C.ar    1  LIG1        0.1353
      4 C          -1.1798    0.1904   -0.0073 C.ar    1  LIG1        0.0676
      5 S          -2.8043   -0.4771   -0.0191 S.2     1  LIG1       -0.0924
      6 H          -2.9036   -2.9283   -0.0231 H       1  LIG1        0.0695
      7 H          -0.2832   -3.0728   -0.0060 H       1  LIG1        0.0660
      8 O           1.0834   -0.5771    0.0066 O.3     1  LIG1       -0.4939
      9 C           1.9738   -1.6857    0.0117 C.3     1  LIG1        0.0788
     10 H           2.9803   -1.2656    0.0192 H       1  LIG1        0.0660
     11 H           1.8358   -2.3073    0.9049 H       1  LIG1        0.0660
     12 H           1.8484   -2.3055   -0.8846 H       1  LIG1        0.0660
     13 C          -0.9334    1.6117   -0.0036 C.ar    1  LIG1        0.0336
     14 C           0.2811    2.2732    0.0042 C.ar    1  LIG1       -0.0039
     15 C           0.1495    3.6857    0.0058 C.ar    1  LIG1        0.1359
     16 C          -1.1663    4.1413   -0.0006 C.ar    1  LIG1        0.0682
     17 S          -2.2562    2.7632   -0.0087 S.2     1  LIG1       -0.0833
     18 H           1.2204    1.7425    0.0083 H       1  LIG1        0.0666
     19 O           1.1807    4.5785    0.0129 O.3     1  LIG1       -0.4939
     20 C           2.5005    4.0504    0.0197 C.3     1  LIG1        0.0788
     21 H           3.1706    4.9112    0.0250 H       1  LIG1        0.0660
     22 H           2.6850    3.4428    0.9140 H       1  LIG1        0.0660
     23 H           2.6954    3.4457   -0.8744 H       1  LIG1        0.0660
     24 C          -1.6483    5.4963   -0.0009 C.ar    1  LIG1        0.0336
     25 C          -0.9148    6.6700    0.0058 C.ar    1  LIG1       -0.0039
     26 C          -1.7235    7.8357    0.0031 C.ar    1  LIG1        0.1359
     27 C          -3.0922    7.5883   -0.0057 C.ar    1  LIG1        0.0682
     28 S          -3.3664    5.8528   -0.0107 S.2     1  LIG1       -0.0833
     29 H           0.1638    6.6678    0.0124 H       1  LIG1        0.0666
     30 O          -1.2615    9.1198    0.0085 O.3     1  LIG1       -0.4939
     31 C           0.1471    9.3053    0.0157 C.3     1  LIG1        0.0788
     32 H           0.3101   10.3841    0.0182 H       1  LIG1        0.0660
     33 H           0.6057    8.8683    0.9112 H       1  LIG1        0.0660
     34 H           0.6144    8.8711   -0.8768 H       1  LIG1        0.0660
     35 C          -4.1805    8.5350   -0.0106 C.ar    1  LIG1        0.0330
     36 C          -4.1175    9.9170   -0.0061 C.ar    1  LIG1       -0.0045
     37 C          -5.4053   10.5329   -0.0134 C.ar    1  LIG1        0.1277
     38 C          -6.4426    9.6339   -0.0233 C.ar    1  LIG1        0.0180
     39 S          -5.8547    8.0026   -0.0241 S.2     1  LIG1       -0.0923
     40 H          -7.5003    9.8475   -0.0301 H       1  LIG1        0.0730
     41 H          -3.1775   10.4465    0.0022 H       1  LIG1        0.0666
     42 O          -5.6578   11.8748   -0.0113 O.3     1  LIG1       -0.4946
     43 C          -4.5351   12.7420    0.0008 C.3     1  LIG1        0.0788
     44 H          -4.9359   13.7571    0.0013 H       1  LIG1        0.0660
     45 H          -3.9201   12.5979    0.8986 H       1  LIG1        0.0660
     46 H          -3.9059   12.6044   -0.8882 H       1  LIG1        0.0660
@<TRIPOS>BOND
     1    46    43    1
     2    12     9    1
     3    34    31    1
     4    23    20    1
     5    40    38    1
     6    39    38   ar
     7    39    35   ar
     8    38    37   ar
     9     6     1    1
    10     5     1   ar
    11     5     4   ar
    12     1     2   ar
    13    37    42    1
    14    37    36   ar
    15    42    43    1
    16    28    27   ar
    17    28    24   ar
    18    35    36   ar
    19    35    27    1
    20    17    13   ar
    21    17    16   ar
    22     2     7    1
    23     2     3   ar
    24     4    13    1
    25     4     3   ar
    26    36    41    1
    27    27    26   ar
    28    13    14   ar
    29     3     8    1
    30    24    16    1
    31    24    25   ar
    32    16    15   ar
    33    43    44    1
    34    43    45    1
    35    26    25   ar
    36    26    30    1
    37    14    15   ar
    38    14    18    1
    39    25    29    1
    40    15    19    1
    41     8     9    1
    42    30    31    1
    43     9    10    1
    44     9    11    1
    45    19    20    1
    46    31    32    1
    47    31    33    1
    48    20    21    1
    49    20    22    1
