@<TRIPOS>MOLECULE
mol_data/opt/b3lyp/geoms/mol2/5da.out
 10 10 0 0 0
SMALL
GASTEIGER

@<TRIPOS>ATOM
      1 C          -2.0776   -1.6993   -0.0001 C.ar    1  LIG1       -0.0070
      2 C          -0.7000   -1.6746   -0.0002 C.ar    1  LIG1        0.0588
      3 C          -0.1692   -0.3391    0.0000 C.ar    1  LIG1       -0.0373
      4 C          -1.1508    0.6069    0.0005 C.ar    1  LIG1       -0.0231
      5 S          -2.7343   -0.1068    0.0005 S.2     1  LIG1       -0.1038
      6 H          -2.7208   -2.5670   -0.0003 H       1  LIG1        0.0706
      7 H          -1.0431    1.6822    0.0008 H       1  LIG1        0.0694
      8 N           0.7715   -3.8072   -0.0010 N.1     1  LIG1       -0.1909
      9 C           0.1058   -2.8529   -0.0007 C.1     1  LIG1        0.0997
     10 H           0.8910   -0.1186   -0.0000 H       1  LIG1        0.0636
@<TRIPOS>BOND
     1     8     9    3
     2     9     2    1
     3     6     1    1
     4     2     1   ar
     5     2     3   ar
     6     1     5   ar
     7    10     3    1
     8     3     4   ar
     9     5     4   ar
    10     4     7    1
