@<TRIPOS>MOLECULE
mol_data/opt/b3lyp/geoms/mol2/5da5da-5da5da-.out
 34 37 0 0 0
SMALL
GASTEIGER

@<TRIPOS>ATOM
      1 C          -2.1838   -1.9089    0.0004 C.ar    1  LIG1       -0.0063
      2 C          -0.8071   -1.9808   -0.0004 C.ar    1  LIG1        0.0594
      3 C          -0.1798   -0.6976   -0.0001 C.ar    1  LIG1       -0.0290
      4 C          -1.0858    0.3434    0.0009 C.ar    1  LIG1        0.0284
      5 S          -2.7336   -0.2814    0.0014 S.2     1  LIG1       -0.0948
      6 H          -2.8879   -2.7285    0.0003 H       1  LIG1        0.0706
      7 N           0.4858   -4.2265   -0.0021 N.1     1  LIG1       -0.1909
      8 C          -0.0925   -3.2175   -0.0013 C.1     1  LIG1        0.0997
      9 H           0.8935   -0.5680   -0.0006 H       1  LIG1        0.0642
     10 C          -0.8328    1.7687    0.0014 C.ar    1  LIG1        0.0439
     11 C           0.3831    2.4569    0.0013 C.ar    1  LIG1        0.0676
     12 C           0.2457    3.8731    0.0020 C.ar    1  LIG1       -0.0284
     13 C          -1.0659    4.2989    0.0027 C.ar    1  LIG1        0.0290
     14 S          -2.1499    2.9134    0.0025 S.2     1  LIG1       -0.0859
     15 N           2.7066    1.3153   -0.0002 N.1     1  LIG1       -0.1908
     16 C           1.6616    1.8281    0.0005 C.1     1  LIG1        0.1003
     17 H           1.0981    4.5385    0.0019 H       1  LIG1        0.0642
     18 C          -1.5884    5.6456    0.0035 C.ar    1  LIG1        0.0439
     19 C          -0.9050    6.8646    0.0038 C.ar    1  LIG1        0.0676
     20 C          -1.7579    8.0040    0.0047 C.ar    1  LIG1       -0.0284
     21 C          -3.0993    7.6887    0.0051 C.ar    1  LIG1        0.0290
     22 S          -3.3086    5.9423    0.0044 S.2     1  LIG1       -0.0859
     23 N           1.6740    7.0864    0.0029 N.1     1  LIG1       -0.1908
     24 C           0.5140    6.9878    0.0033 C.1     1  LIG1        0.1003
     25 H          -1.3741    9.0150    0.0050 H       1  LIG1        0.0642
     26 C          -4.2476    8.5708    0.0060 C.ar    1  LIG1        0.0433
     27 C          -4.2904    9.9663    0.0065 C.ar    1  LIG1        0.0670
     28 C          -5.6216   10.4952    0.0074 C.ar    1  LIG1       -0.0367
     29 C          -6.5753    9.5231    0.0074 C.ar    1  LIG1       -0.0225
     30 S          -5.8770    7.9370    0.0065 S.2     1  LIG1       -0.0948
     31 H          -7.6499    9.6360    0.0080 H       1  LIG1        0.0694
     32 N          -2.2119   11.5078    0.0061 N.1     1  LIG1       -0.1908
     33 C          -3.1443   10.8099    0.0063 C.1     1  LIG1        0.1003
     34 H          -5.8326   11.5571    0.0079 H       1  LIG1        0.0636
@<TRIPOS>BOND
     1     7     8    3
     2     8     2    1
     3     9     3    1
     4     2     3   ar
     5     2     1   ar
     6    15    16    3
     7     3     4   ar
     8     6     1    1
     9     1     5   ar
    10    16    11    1
    11     4     5   ar
    12     4    10    1
    13    11    10   ar
    14    11    12   ar
    15    10    14   ar
    16    17    12    1
    17    12    13   ar
    18    14    13   ar
    19    13    18    1
    20    23    24    3
    21    24    19    1
    22    18    19   ar
    23    18    22   ar
    24    19    20   ar
    25    22    21   ar
    26    20    25    1
    27    20    21   ar
    28    21    26    1
    29    26    30   ar
    30    26    27   ar
    31    32    33    3
    32    33    27    1
    33    30    29   ar
    34    27    28   ar
    35    28    29   ar
    36    28    34    1
    37    29    31    1
