@<TRIPOS>MOLECULE
mol_data/opt/b3lyp/geoms/mol2/5da5da5da-.out
 26 28 0 0 0
SMALL
GASTEIGER

@<TRIPOS>ATOM
      1 C          -2.1001   -1.8885    0.0699 C.ar    1  LIG1       -0.0063
      2 C          -0.7447   -1.8945   -0.1828 C.ar    1  LIG1        0.0594
      3 C          -0.1735   -0.5842   -0.1973 C.ar    1  LIG1       -0.0290
      4 C          -1.0999    0.4053    0.0472 C.ar    1  LIG1        0.0284
      5 S          -2.6946   -0.2938    0.3084 S.2     1  LIG1       -0.0948
      6 H          -2.7626   -2.7399    0.1317 H       1  LIG1        0.0706
      7 N           0.6006   -4.0670   -0.6125 N.1     1  LIG1       -0.1909
      8 C          -0.0017   -3.0913   -0.4180 C.1     1  LIG1        0.0997
      9 H           0.8739   -0.3970   -0.3914 H       1  LIG1        0.0642
     10 C          -0.8963    1.8383    0.1083 C.ar    1  LIG1        0.0439
     11 C           0.2755    2.5493    0.3643 C.ar    1  LIG1        0.0676
     12 C           0.1017    3.9641    0.3567 C.ar    1  LIG1       -0.0284
     13 C          -1.1925    4.3537    0.0993 C.ar    1  LIG1        0.0290
     14 S          -2.2112    2.9481   -0.1747 S.2     1  LIG1       -0.0859
     15 N           2.5596    1.4394    0.8694 N.1     1  LIG1       -0.1908
     16 C           1.5311    1.9364    0.6458 C.1     1  LIG1        0.1003
     17 H           0.9107    4.6539    0.5561 H       1  LIG1        0.0642
     18 C          -1.7400    5.6932    0.0280 C.ar    1  LIG1        0.0433
     19 C          -1.0814    6.8950   -0.2260 C.ar    1  LIG1        0.0670
     20 C          -1.9529    8.0323   -0.2175 C.ar    1  LIG1       -0.0367
     21 C          -3.2500    7.6990    0.0321 C.ar    1  LIG1       -0.0225
     22 S          -3.4415    5.9944    0.2832 S.2     1  LIG1       -0.0948
     23 H          -4.1103    8.3505    0.0897 H       1  LIG1        0.0694
     24 N           1.4555    7.1011   -0.6969 N.1     1  LIG1       -0.1908
     25 C           0.3140    7.0016   -0.4895 C.1     1  LIG1        0.1003
     26 H          -1.6064    9.0416   -0.4000 H       1  LIG1        0.0636
@<TRIPOS>BOND
     1    24    25    3
     2     7     8    3
     3    25    19    1
     4     8     2    1
     5    26    20    1
     6     9     3    1
     7    19    20   ar
     8    19    18   ar
     9    20    21   ar
    10     3     2   ar
    11     3     4   ar
    12     2     1   ar
    13    14    13   ar
    14    14    10   ar
    15    18    13    1
    16    18    22   ar
    17    21    23    1
    18    21    22   ar
    19     4    10    1
    20     4     5   ar
    21     1     6    1
    22     1     5   ar
    23    13    12   ar
    24    10    11   ar
    25    12    11   ar
    26    12    17    1
    27    11    16    1
    28    16    15    3
