@<TRIPOS>MOLECULE
mol_data/opt/b3lyp/geoms/mol2/5da5da-5da5da.out
 34 37 0 0 0
SMALL
GASTEIGER

@<TRIPOS>ATOM
      1 C          -2.1103   -1.9258    0.1848 C.ar    1  LIG1       -0.0063
      2 C          -0.7613   -1.9633   -0.0979 C.ar    1  LIG1        0.0594
      3 C          -0.1670   -0.6648   -0.1569 C.ar    1  LIG1       -0.0290
      4 C          -1.0699    0.3476    0.0839 C.ar    1  LIG1        0.0284
      5 S          -2.6707   -0.3154    0.3975 S.2     1  LIG1       -0.0948
      6 H          -2.7864   -2.7630    0.2829 H       1  LIG1        0.0706
      7 N           0.5342   -4.1703   -0.5038 N.1     1  LIG1       -0.1909
      8 C          -0.0456   -3.1791   -0.3200 C.1     1  LIG1        0.0997
      9 H           0.8790   -0.5022   -0.3791 H       1  LIG1        0.0642
     10 C          -0.8397    1.7771    0.1033 C.ar    1  LIG1        0.0439
     11 C           0.3519    2.4734    0.3075 C.ar    1  LIG1        0.0676
     12 C           0.2039    3.8892    0.2672 C.ar    1  LIG1       -0.0284
     13 C          -1.0915    4.2966    0.0356 C.ar    1  LIG1        0.0290
     14 S          -2.1429    2.9024   -0.1708 S.2     1  LIG1       -0.0859
     15 N           2.6286    1.3325    0.7759 N.1     1  LIG1       -0.1908
     16 C           1.6040    1.8444    0.5689 C.1     1  LIG1        0.1003
     17 H           1.0309    4.5681    0.4257 H       1  LIG1        0.0642
     18 C          -1.6170    5.6401   -0.0543 C.ar    1  LIG1        0.0439
     19 C          -0.9418    6.8342   -0.3123 C.ar    1  LIG1        0.0676
     20 C          -1.7898    7.9785   -0.3380 C.ar    1  LIG1       -0.0284
     21 C          -3.1139    7.6833   -0.1056 C.ar    1  LIG1        0.0290
     22 S          -3.3149    5.9619    0.1857 S.2     1  LIG1       -0.0859
     23 N           1.6029    6.9837   -0.7651 N.1     1  LIG1       -0.1908
     24 C           0.4582    6.9162   -0.5648 C.1     1  LIG1        0.1003
     25 H          -1.4213    8.9749   -0.5417 H       1  LIG1        0.0642
     26 C          -4.2512    8.5797   -0.0694 C.ar    1  LIG1        0.0433
     27 C          -4.2743    9.9540    0.1630 C.ar    1  LIG1        0.0670
     28 C          -5.5923   10.5139    0.1224 C.ar    1  LIG1       -0.0367
     29 C          -6.5525    9.5809   -0.1301 C.ar    1  LIG1       -0.0225
     30 S          -5.8757    7.9997   -0.3451 S.2     1  LIG1       -0.0948
     31 H          -7.6208    9.7231   -0.2093 H       1  LIG1        0.0694
     32 N          -2.1755   11.3889    0.6484 N.1     1  LIG1       -0.1908
     33 C          -3.1170   10.7380    0.4348 C.1     1  LIG1        0.1003
     34 H          -5.7913   11.5656    0.2852 H       1  LIG1        0.0636
@<TRIPOS>BOND
     1    23    24    3
     2    24    19    1
     3    25    20    1
     4     7     8    3
     5     9     3    1
     6    30    29   ar
     7    30    26   ar
     8    20    19   ar
     9    20    21   ar
    10     8     2    1
    11    19    18   ar
    12    31    29    1
    13    14    13   ar
    14    14    10   ar
    15     3     2   ar
    16     3     4   ar
    17    29    28   ar
    18    21    26    1
    19    21    22   ar
    20     2     1   ar
    21    26    27   ar
    22    18    13    1
    23    18    22   ar
    24    13    12   ar
    25     4    10    1
    26     4     5   ar
    27    10    11   ar
    28    28    27   ar
    29    28    34    1
    30    27    33    1
    31     1     6    1
    32     1     5   ar
    33    12    11   ar
    34    12    17    1
    35    11    16    1
    36    33    32    3
    37    16    15    3
