@<TRIPOS>MOLECULE
mol_data/opt/b3lyp/geoms/mol2/5da5da.out
 18 19 0 0 0
SMALL
GASTEIGER

@<TRIPOS>ATOM
      1 C          -2.0665   -1.8037   -0.3068 C.ar    1  LIG1       -0.0063
      2 C          -0.7419   -1.8059    0.0740 C.ar    1  LIG1        0.0594
      3 C          -0.2048   -0.4897    0.2341 C.ar    1  LIG1       -0.0290
      4 C          -1.1247    0.4988   -0.0294 C.ar    1  LIG1        0.0284
      5 S          -2.6703   -0.2047   -0.4918 S.2     1  LIG1       -0.0948
      6 H          -2.7012   -2.6589   -0.4893 H       1  LIG1        0.0706
      7 N           0.6066   -3.9800    0.4849 N.1     1  LIG1       -0.1909
      8 C           0.0024   -3.0037    0.2986 C.1     1  LIG1        0.0997
      9 H           0.8149   -0.2990    0.5407 H       1  LIG1        0.0642
     10 C          -0.9466    1.9383    0.0277 C.ar    1  LIG1        0.0432
     11 C           0.2238    2.6796   -0.1121 C.ar    1  LIG1        0.0670
     12 C           0.0186    4.0934    0.0078 C.ar    1  LIG1       -0.0367
     13 C          -1.2856    4.4179    0.2287 C.ar    1  LIG1       -0.0225
     14 S          -2.2940    3.0102    0.3177 S.2     1  LIG1       -0.0948
     15 H          -1.7207    5.3996    0.3500 H       1  LIG1        0.0694
     16 N           2.5592    1.6604   -0.5690 N.1     1  LIG1       -0.1908
     17 C           1.5045    2.1111   -0.3687 C.1     1  LIG1        0.1003
     18 H           0.8210    4.8150   -0.0793 H       1  LIG1        0.0636
@<TRIPOS>BOND
     1    16    17    3
     2     5     1   ar
     3     5     4   ar
     4     6     1    1
     5    17    11    1
     6     1     2   ar
     7    11    12   ar
     8    11    10   ar
     9    18    12    1
    10     4    10    1
    11     4     3   ar
    12    12    13   ar
    13    10    14   ar
    14     2     3   ar
    15     2     8    1
    16    13    14   ar
    17    13    15    1
    18     3     9    1
    19     8     7    3
