@<TRIPOS>MOLECULE
mol_data/opt/b3lyp/geoms/mol2/5da5da-.out
 18 19 0 0 0
SMALL
GASTEIGER

@<TRIPOS>ATOM
      1 C          -2.1213   -1.8063   -0.0000 C.ar    1  LIG1       -0.0063
      2 C          -0.7436   -1.8118   -0.0003 C.ar    1  LIG1        0.0594
      3 C          -0.1783   -0.4982    0.0001 C.ar    1  LIG1       -0.0290
      4 C          -1.1313    0.4970    0.0007 C.ar    1  LIG1        0.0284
      5 S          -2.7469   -0.2056    0.0008 S.2     1  LIG1       -0.0948
      6 H          -2.7856   -2.6583   -0.0002 H       1  LIG1        0.0706
      7 N           0.6574   -3.9917   -0.0015 N.1     1  LIG1       -0.1909
      8 C           0.0300   -3.0123   -0.0010 C.1     1  LIG1        0.0997
      9 H           0.8878   -0.3174   -0.0000 H       1  LIG1        0.0642
     10 C          -0.9477    1.9375    0.0013 C.ar    1  LIG1        0.0432
     11 C           0.2335    2.6789    0.0015 C.ar    1  LIG1        0.0670
     12 C           0.0183    4.0963    0.0021 C.ar    1  LIG1       -0.0367
     13 C          -1.3018    4.4283    0.0023 C.ar    1  LIG1       -0.0225
     14 S          -2.3171    3.0234    0.0019 S.2     1  LIG1       -0.0948
     15 H          -1.7473    5.4127    0.0028 H       1  LIG1        0.0694
     16 N           2.6184    1.6737    0.0008 N.1     1  LIG1       -0.1908
     17 C           1.5421    2.1182    0.0011 C.1     1  LIG1        0.1003
     18 H           0.8288    4.8140    0.0023 H       1  LIG1        0.0636
@<TRIPOS>BOND
     1     7     8    3
     2     8     2    1
     3     2     1   ar
     4     2     3   ar
     5     6     1    1
     6     9     3    1
     7     1     5   ar
     8     3     4   ar
     9     4     5   ar
    10     4    10    1
    11    16    17    3
    12    17    11    1
    13    10    11   ar
    14    10    14   ar
    15    11    12   ar
    16    14    13   ar
    17    12    18    1
    18    12    13   ar
    19    13    15    1
