@<TRIPOS>MOLECULE
mol_data/opt/b3lyp/geoms/mol2/5da5da5da-5da-.out
 34 37 0 0 0
SMALL
GASTEIGER

@<TRIPOS>ATOM
      1 C          -2.1230   -1.9184   -0.1285 C.ar    1  LIG1       -0.0063
      2 C          -0.7559   -1.9469   -0.3059 C.ar    1  LIG1        0.0594
      3 C          -0.1579   -0.6503   -0.2447 C.ar    1  LIG1       -0.0290
      4 C          -1.0764    0.3515   -0.0187 C.ar    1  LIG1        0.0284
      5 S          -2.6973   -0.3197    0.1299 S.2     1  LIG1       -0.0948
      6 H          -2.8053   -2.7563   -0.1319 H       1  LIG1        0.0706
      7 N           0.5661   -4.1344   -0.7319 N.1     1  LIG1       -0.1909
      8 C          -0.0258   -3.1520   -0.5391 C.1     1  LIG1        0.0997
      9 H           0.9024   -0.4805   -0.3741 H       1  LIG1        0.0642
     10 C          -0.8468    1.7761    0.1022 C.ar    1  LIG1        0.0439
     11 C           0.3245    2.4524    0.4438 C.ar    1  LIG1        0.0676
     12 C           0.1819    3.8688    0.4750 C.ar    1  LIG1       -0.0284
     13 C          -1.0901    4.2972    0.1635 C.ar    1  LIG1        0.0290
     14 S          -2.1220    2.9232   -0.2103 S.2     1  LIG1       -0.0859
     15 N           2.5538    1.2728    1.0300 N.1     1  LIG1       -0.1908
     16 C           1.5503    1.8018    0.7697 C.1     1  LIG1        0.1003
     17 H           0.9946    4.5316    0.7399 H       1  LIG1        0.0642
     18 C          -1.6060    5.6467    0.1126 C.ar    1  LIG1        0.0439
     19 C          -0.9104    6.8537    0.0226 C.ar    1  LIG1        0.0676
     20 C          -1.7533    8.0017   -0.0011 C.ar    1  LIG1       -0.0284
     21 C          -3.0944    7.6980    0.0605 C.ar    1  LIG1        0.0290
     22 S          -3.3224    5.9578    0.1581 S.2     1  LIG1       -0.0859
     23 N           1.6700    7.0304   -0.0866 N.1     1  LIG1       -0.1908
     24 C           0.5095    6.9511   -0.0437 C.1     1  LIG1        0.1003
     25 H          -1.3656    9.0098   -0.0614 H       1  LIG1        0.0642
     26 C          -4.2308    8.5964    0.0531 C.ar    1  LIG1        0.0433
     27 C          -4.3013    9.9147   -0.3953 C.ar    1  LIG1        0.0670
     28 C          -5.6022   10.4960   -0.2463 C.ar    1  LIG1       -0.0367
     29 C          -6.5043    9.6338    0.3001 C.ar    1  LIG1       -0.0225
     30 S          -5.7890    8.0978    0.6657 S.2     1  LIG1       -0.0948
     31 H          -7.5488    9.8051    0.5176 H       1  LIG1        0.0694
     32 N          -2.3169   11.2184   -1.4259 N.1     1  LIG1       -0.1908
     33 C          -3.2076   10.6257   -0.9663 C.1     1  LIG1        0.1003
     34 H          -5.8325   11.5101   -0.5476 H       1  LIG1        0.0636
@<TRIPOS>BOND
     1    32    33    3
     2    33    27    1
     3     7     8    3
     4    34    28    1
     5     8     2    1
     6    27    28   ar
     7    27    26   ar
     8     9     3    1
     9     2     3   ar
    10     2     1   ar
    11    28    29   ar
    12     3     4   ar
    13    14    10   ar
    14    14    13   ar
    15     6     1    1
    16     1     5   ar
    17    23    24    3
    18    25    20    1
    19    24    19    1
    20     4    10    1
    21     4     5   ar
    22    20    19   ar
    23    20    21   ar
    24    19    18   ar
    25    26    21    1
    26    26    30   ar
    27    21    22   ar
    28    10    11   ar
    29    18    22   ar
    30    18    13    1
    31    13    12   ar
    32    29    31    1
    33    29    30   ar
    34    11    12   ar
    35    11    16    1
    36    12    17    1
    37    16    15    3
