@<TRIPOS>MOLECULE
mol_data/opt/b3lyp/geoms/mol2/5da5da5da-5da.out
 34 37 0 0 0
SMALL
GASTEIGER

@<TRIPOS>ATOM
      1 C          -2.1090   -1.9238    0.2207 C.ar    1  LIG1       -0.0063
      2 C          -0.7607   -1.9638   -0.0648 C.ar    1  LIG1        0.0594
      3 C          -0.1666   -0.6660   -0.1374 C.ar    1  LIG1       -0.0290
      4 C          -1.0690    0.3486    0.0963 C.ar    1  LIG1        0.0284
      5 S          -2.6689   -0.3115    0.4200 S.2     1  LIG1       -0.0948
      6 H          -2.7848   -2.7601    0.3281 H       1  LIG1        0.0706
      7 N           0.5341   -4.1744   -0.4535 N.1     1  LIG1       -0.1909
      8 C          -0.0454   -3.1816   -0.2775 C.1     1  LIG1        0.0997
      9 H           0.8788   -0.5053   -0.3636 H       1  LIG1        0.0642
     10 C          -0.8389    1.7783    0.1019 C.ar    1  LIG1        0.0439
     11 C           0.3532    2.4765    0.2963 C.ar    1  LIG1        0.0676
     12 C           0.2050    3.8918    0.2433 C.ar    1  LIG1       -0.0284
     13 C          -1.0911    4.2971    0.0116 C.ar    1  LIG1        0.0290
     14 S          -2.1430    2.9009   -0.1789 S.2     1  LIG1       -0.0859
     15 N           2.6314    1.3402    0.7684 N.1     1  LIG1       -0.1908
     16 C           1.6062    1.8500    0.5598 C.1     1  LIG1        0.1003
     17 H           1.0324    4.5722    0.3932 H       1  LIG1        0.0642
     18 C          -1.6170    5.6397   -0.0891 C.ar    1  LIG1        0.0439
     19 C          -0.9424    6.8316   -0.3584 C.ar    1  LIG1        0.0676
     20 C          -1.7907    7.9754   -0.3927 C.ar    1  LIG1       -0.0284
     21 C          -3.1143    7.6821   -0.1557 C.ar    1  LIG1        0.0290
     22 S          -3.3145    5.9632    0.1509 S.2     1  LIG1       -0.0859
     23 N           1.6014    6.9779   -0.8167 N.1     1  LIG1       -0.1908
     24 C           0.4571    6.9118   -0.6140 C.1     1  LIG1        0.1003
     25 H          -1.4227    8.9701   -0.6057 H       1  LIG1        0.0642
     26 C          -4.2517    8.5785   -0.1253 C.ar    1  LIG1        0.0433
     27 C          -4.2748    9.9545    0.0969 C.ar    1  LIG1        0.0670
     28 C          -5.5929   10.5140    0.0529 C.ar    1  LIG1       -0.0367
     29 C          -6.5531    9.5790   -0.1921 C.ar    1  LIG1       -0.0225
     30 S          -5.8764    7.9964   -0.3958 S.2     1  LIG1       -0.0948
     31 H          -7.6215    9.7207   -0.2717 H       1  LIG1        0.0694
     32 N          -2.1757   11.3930    0.5705 N.1     1  LIG1       -0.1908
     33 C          -3.1173   10.7405    0.3623 C.1     1  LIG1        0.1003
     34 H          -5.7918   11.5669    0.2081 H       1  LIG1        0.0636
@<TRIPOS>BOND
     1    23    24    3
     2    24    19    1
     3    25    20    1
     4     7     8    3
     5    30    29   ar
     6    30    26   ar
     7    20    19   ar
     8    20    21   ar
     9     9     3    1
    10    19    18   ar
    11     8     2    1
    12    31    29    1
    13    29    28   ar
    14    14    13   ar
    15    14    10   ar
    16    21    26    1
    17    21    22   ar
    18     3     2   ar
    19     3     4   ar
    20    26    27   ar
    21    18    13    1
    22    18    22   ar
    23     2     1   ar
    24    13    12   ar
    25    28    27   ar
    26    28    34    1
    27     4    10    1
    28     4     5   ar
    29    27    33    1
    30    10    11   ar
    31     1     6    1
    32     1     5   ar
    33    12    11   ar
    34    12    17    1
    35    11    16    1
    36    33    32    3
    37    16    15    3
