@<TRIPOS>MOLECULE
mol_data/opt/b3lyp/geoms/mol2/5da5da-5da.out
 26 28 0 0 0
SMALL
GASTEIGER

@<TRIPOS>ATOM
      1 C          -2.1480   -1.8796    0.0001 C.ar    1  LIG1       -0.0063
      2 C          -0.7702   -1.9186   -0.0004 C.ar    1  LIG1        0.0594
      3 C          -0.1733   -0.6205    0.0000 C.ar    1  LIG1       -0.0290
      4 C          -1.1035    0.3984    0.0008 C.ar    1  LIG1        0.0284
      5 S          -2.7360   -0.2652    0.0011 S.2     1  LIG1       -0.0948
      6 H          -2.8324   -2.7157   -0.0000 H       1  LIG1        0.0706
      7 N           0.5759   -4.1329   -0.0019 N.1     1  LIG1       -0.1909
      8 C          -0.0264   -3.1380   -0.0012 C.1     1  LIG1        0.0997
      9 H           0.8968   -0.4657   -0.0003 H       1  LIG1        0.0642
     10 C          -0.8850    1.8303    0.0014 C.ar    1  LIG1        0.0439
     11 C           0.3126    2.5477    0.0014 C.ar    1  LIG1        0.0676
     12 C           0.1394    3.9616    0.0021 C.ar    1  LIG1       -0.0284
     13 C          -1.1805    4.3543    0.0026 C.ar    1  LIG1        0.0290
     14 S          -2.2295    2.9429    0.0022 S.2     1  LIG1       -0.0859
     15 N           2.6649    1.4667    0.0004 N.1     1  LIG1       -0.1908
     16 C           1.6064    1.9513    0.0009 C.1     1  LIG1        0.1003
     17 H           0.9753    4.6477    0.0022 H       1  LIG1        0.0642
     18 C          -1.7387    5.6910    0.0034 C.ar    1  LIG1        0.0433
     19 C          -1.0825    6.9232    0.0038 C.ar    1  LIG1        0.0670
     20 C          -1.9752    8.0439    0.0045 C.ar    1  LIG1       -0.0367
     21 C          -3.2857    7.6742    0.0047 C.ar    1  LIG1       -0.0225
     22 S          -3.4675    5.9505    0.0039 S.2     1  LIG1       -0.0948
     23 H          -4.1622    8.3061    0.0052 H       1  LIG1        0.0694
     24 N           1.4869    7.2309    0.0033 N.1     1  LIG1       -0.1908
     25 C           0.3313    7.0862    0.0035 C.1     1  LIG1        0.1003
     26 H          -1.6305    9.0701    0.0049 H       1  LIG1        0.0636
@<TRIPOS>BOND
     1     7     8    3
     2     8     2    1
     3     2     3   ar
     4     2     1   ar
     5     9     3    1
     6     6     1    1
     7     3     4   ar
     8     1     5   ar
     9    15    16    3
    10     4     5   ar
    11     4    10    1
    12    16    11    1
    13    10    11   ar
    14    10    14   ar
    15    11    12   ar
    16    12    17    1
    17    12    13   ar
    18    14    13   ar
    19    13    18    1
    20    24    25    3
    21    18    19   ar
    22    18    22   ar
    23    25    19    1
    24    19    20   ar
    25    22    21   ar
    26    20    21   ar
    27    20    26    1
    28    21    23    1
