@<TRIPOS>MOLECULE
mol_data/opt/b3lyp/geoms/mol2/5da5da-5da-.out
 26 28 0 0 0
SMALL
GASTEIGER

@<TRIPOS>ATOM
      1 C          -2.0757   -1.8951   -0.0299 C.ar    1  LIG1       -0.0063
      2 C          -0.7120   -1.8941    0.1728 C.ar    1  LIG1        0.0594
      3 C          -0.1478   -0.5807    0.1694 C.ar    1  LIG1       -0.0290
      4 C          -1.0879    0.4042   -0.0390 C.ar    1  LIG1        0.0284
      5 S          -2.6873   -0.3032   -0.2432 S.2     1  LIG1       -0.0948
      6 H          -2.7354   -2.7500   -0.0693 H       1  LIG1        0.0706
      7 N           0.6600   -4.0600    0.5482 N.1     1  LIG1       -0.1909
      8 C           0.0457   -3.0872    0.3779 C.1     1  LIG1        0.0997
      9 H           0.9050   -0.3881    0.3254 H       1  LIG1        0.0642
     10 C          -0.8945    1.8384   -0.1041 C.ar    1  LIG1        0.0439
     11 C           0.2634    2.5564   -0.4006 C.ar    1  LIG1        0.0676
     12 C           0.0822    3.9701   -0.3838 C.ar    1  LIG1       -0.0284
     13 C          -1.2040    4.3520   -0.0792 C.ar    1  LIG1        0.0290
     14 S          -2.2044    2.9403    0.2285 S.2     1  LIG1       -0.0859
     15 N           2.5338    1.4600   -0.9900 N.1     1  LIG1       -0.1908
     16 C           1.5115    1.9510   -0.7284 C.1     1  LIG1        0.1003
     17 H           0.8798    4.6649   -0.6107 H       1  LIG1        0.0642
     18 C          -1.7560    5.6883    0.0148 C.ar    1  LIG1        0.0433
     19 C          -1.0953    6.8932    0.2479 C.ar    1  LIG1        0.0670
     20 C          -1.9728    8.0256    0.2735 C.ar    1  LIG1       -0.0367
     21 C          -3.2763    7.6856    0.0700 C.ar    1  LIG1       -0.0225
     22 S          -3.4671    5.9806   -0.1784 S.2     1  LIG1       -0.0948
     23 H          -4.1416    8.3324    0.0449 H       1  LIG1        0.0694
     24 N           1.4557    7.1124    0.6277 N.1     1  LIG1       -0.1908
     25 C           0.3081    7.0070    0.4613 C.1     1  LIG1        0.1003
     26 H          -1.6257    9.0365    0.4460 H       1  LIG1        0.0636
@<TRIPOS>BOND
     1    15    16    3
     2    16    11    1
     3    17    12    1
     4    11    12   ar
     5    11    10   ar
     6    12    13   ar
     7     5     4   ar
     8     5     1   ar
     9    22    18   ar
    10    22    21   ar
    11    10     4    1
    12    10    14   ar
    13    13    18    1
    14    13    14   ar
    15     6     1    1
    16     4     3   ar
    17     1     2   ar
    18    18    19   ar
    19    23    21    1
    20    21    20   ar
    21     3     2   ar
    22     3     9    1
    23     2     8    1
    24    19    20   ar
    25    19    25    1
    26    20    26    1
    27     8     7    3
    28    25    24    3
