@<TRIPOS>MOLECULE
mol_data/opt/b3lyp/geoms/mol2/5da5da-5da-5da.out
 34 37 0 0 0
SMALL
GASTEIGER

@<TRIPOS>ATOM
      1 C          -2.1113   -1.9245   -0.2205 C.ar    1  LIG1       -0.0063
      2 C          -0.7677   -1.9646    0.0864 C.ar    1  LIG1        0.0594
      3 C          -0.1737   -0.6670    0.1639 C.ar    1  LIG1       -0.0290
      4 C          -1.0715    0.3475   -0.0874 C.ar    1  LIG1        0.0284
      5 S          -2.6667   -0.3124   -0.4340 S.2     1  LIG1       -0.0948
      6 H          -2.7860   -2.7606   -0.3357 H       1  LIG1        0.0706
      7 N           0.5189   -4.1749    0.5029 N.1     1  LIG1       -0.1909
      8 C          -0.0569   -3.1822    0.3145 C.1     1  LIG1        0.0997
      9 H           0.8681   -0.5064    0.4060 H       1  LIG1        0.0642
     10 C          -0.8400    1.7769   -0.0943 C.ar    1  LIG1        0.0439
     11 C           0.3555    2.4735   -0.2728 C.ar    1  LIG1        0.0676
     12 C           0.2078    3.8891   -0.2269 C.ar    1  LIG1       -0.0284
     13 C          -1.0914    4.2962   -0.0164 C.ar    1  LIG1        0.0290
     14 S          -2.1473    2.9016    0.1627 S.2     1  LIG1       -0.0859
     15 N           2.6397    1.3337   -0.7061 N.1     1  LIG1       -0.1908
     16 C           1.6118    1.8451   -0.5149 C.1     1  LIG1        0.1003
     17 H           1.0380    4.5684   -0.3663 H       1  LIG1        0.0642
     18 C          -1.6175    5.6396    0.0717 C.ar    1  LIG1        0.0439
     19 C          -0.9463    6.8316    0.3489 C.ar    1  LIG1        0.0676
     20 C          -1.7938    7.9764    0.3658 C.ar    1  LIG1       -0.0284
     21 C          -3.1136    7.6837    0.1075 C.ar    1  LIG1        0.0290
     22 S          -3.3105    5.9641   -0.1975 S.2     1  LIG1       -0.0859
     23 N           1.5898    6.9763    0.8491 N.1     1  LIG1       -0.1908
     24 C           0.4489    6.9110    0.6275 C.1     1  LIG1        0.1003
     25 H          -1.4284    8.9713    0.5821 H       1  LIG1        0.0642
     26 C          -4.2494    8.5811    0.0557 C.ar    1  LIG1        0.0433
     27 C          -4.2672    9.9568   -0.1691 C.ar    1  LIG1        0.0670
     28 C          -5.5853   10.5176   -0.1492 C.ar    1  LIG1       -0.0367
     29 C          -6.5507    9.5840    0.0802 C.ar    1  LIG1       -0.0225
     30 S          -5.8791    8.0010    0.2982 S.2     1  LIG1       -0.0948
     31 H          -7.6202    9.7266    0.1406 H       1  LIG1        0.0694
     32 N          -2.1587   11.3926   -0.6077 N.1     1  LIG1       -0.1908
     33 C          -3.1045   10.7414   -0.4152 C.1     1  LIG1        0.1003
     34 H          -5.7805   11.5704   -0.3095 H       1  LIG1        0.0636
@<TRIPOS>BOND
     1    15    16    3
     2    32    33    3
     3    16    11    1
     4     5     1   ar
     5     5     4   ar
     6    33    27    1
     7    17    12    1
     8     6     1    1
     9    34    28    1
    10    11    12   ar
    11    11    10   ar
    12    12    13   ar
    13     1     2   ar
    14    22    18   ar
    15    22    21   ar
    16    27    28   ar
    17    27    26   ar
    18    28    29   ar
    19    10     4    1
    20    10    14   ar
    21     4     3   ar
    22    13    18    1
    23    13    14   ar
    24    26    21    1
    25    26    30   ar
    26    18    19   ar
    27    29    31    1
    28    29    30   ar
    29     2     3   ar
    30     2     8    1
    31    21    20   ar
    32     3     9    1
    33     8     7    3
    34    19    20   ar
    35    19    24    1
    36    20    25    1
    37    24    23    3
