@<TRIPOS>MOLECULE
mol_data/opt/b3lyp/geoms/mol2/5dd.out
 11 11 0 0 0
SMALL
GASTEIGER

@<TRIPOS>ATOM
      1 C          -2.1119   -1.7157   -0.0002 C.ar    1  LIG1       -0.0057
      2 C          -0.7382   -1.7019   -0.0001 C.ar    1  LIG1        0.0761
      3 C          -0.2073   -0.3555   -0.0004 C.ar    1  LIG1        0.0761
      4 C          -1.2018    0.5923    0.0006 C.ar    1  LIG1       -0.0057
      5 S          -2.7715   -0.1222    0.0007 S.2     1  LIG1       -0.1025
      6 H          -2.7564   -2.5828   -0.0003 H       1  LIG1        0.0707
      7 H          -1.0810    1.6659    0.0009 H       1  LIG1        0.0707
      8 N           0.7031   -3.8526   -0.0010 N.1     1  LIG1       -0.1908
      9 C           0.0603   -2.8836   -0.0005 C.1     1  LIG1        0.1010
     10 N           2.3141    0.2327   -0.0010 N.1     1  LIG1       -0.1908
     11 C           1.1829   -0.0368   -0.0009 C.1     1  LIG1        0.1010
@<TRIPOS>BOND
     1    10    11    3
     2     8     9    3
     3    11     3    1
     4     9     2    1
     5     3     2   ar
     6     3     4   ar
     7     6     1    1
     8     1     2   ar
     9     1     5   ar
    10     4     5   ar
    11     4     7    1
