@<TRIPOS>MOLECULE
mol_data/opt/b3lyp/geoms/mol2/5dd5dd5dd5dd-.out
 38 41 0 0 0
SMALL
GASTEIGER

@<TRIPOS>ATOM
      1 C           0.4041   -2.0026   -0.3544 C.ar    1  LIG1       -0.0050
      2 C          -0.9178   -1.8020   -0.0399 C.ar    1  LIG1        0.0767
      3 C          -1.2428   -0.4044    0.0784 C.ar    1  LIG1        0.0844
      4 C          -0.1483    0.4296   -0.1480 C.ar    1  LIG1        0.0458
      5 S           1.2721   -0.5307   -0.5076 S.2     1  LIG1       -0.0935
      6 H           0.9060   -2.9498   -0.4935 H       1  LIG1        0.0707
      7 N          -2.6140   -3.7271    0.3053 N.1     1  LIG1       -0.1908
      8 C          -1.8555   -2.8594    0.1517 C.1     1  LIG1        0.1010
      9 N          -3.6311    0.3938    0.6732 N.1     1  LIG1       -0.1908
     10 C          -2.5541    0.0399    0.4088 C.1     1  LIG1        0.1016
     11 C          -0.0991    1.8806   -0.1383 C.ar    1  LIG1        0.0464
     12 C           1.0082    2.7162   -0.0006 C.ar    1  LIG1        0.0850
     13 C           0.6789    4.1140   -0.0541 C.ar    1  LIG1        0.0850
     14 C          -0.6740    4.3377   -0.2474 C.ar    1  LIG1        0.0464
     15 S          -1.5467    2.8357   -0.3562 S.2     1  LIG1       -0.0845
     16 N           3.4399    1.9176    0.3805 N.1     1  LIG1       -0.1908
     17 C           2.3441    2.2705    0.2109 C.1     1  LIG1        0.1016
     18 N           2.4202    5.9836    0.3550 N.1     1  LIG1       -0.1908
     19 C           1.6385    5.1460    0.1571 C.1     1  LIG1        0.1016
     20 C          -1.3790    5.6056   -0.3436 C.ar    1  LIG1        0.0464
     21 C          -1.0921    6.6888   -1.1603 C.ar    1  LIG1        0.0850
     22 C          -2.0271    7.7713   -1.0021 C.ar    1  LIG1        0.0850
     23 C          -3.0148    7.4992   -0.0685 C.ar    1  LIG1        0.0464
     24 S          -2.7915    5.9182    0.6293 S.2     1  LIG1       -0.0845
     25 N           0.7848    6.6805   -2.9414 N.1     1  LIG1       -0.1908
     26 C          -0.0486    6.6936   -2.1307 C.1     1  LIG1        0.1016
     27 N          -1.9803    9.9042   -2.4664 N.1     1  LIG1       -0.1908
     28 C          -1.9920    8.9535   -1.7973 C.1     1  LIG1        0.1016
     29 C          -4.1261    8.3436    0.3442 C.ar    1  LIG1        0.0458
     30 C          -4.0885    9.6556    0.7894 C.ar    1  LIG1        0.0844
     31 C          -5.3993   10.1683    1.1058 C.ar    1  LIG1        0.0767
     32 C          -6.3887    9.2359    0.9050 C.ar    1  LIG1       -0.0050
     33 S          -5.7666    7.7425    0.3236 S.2     1  LIG1       -0.0935
     34 H          -7.4493    9.3651    1.0686 H       1  LIG1        0.0707
     35 N          -1.9077   10.9952    1.1694 N.1     1  LIG1       -0.1908
     36 C          -2.8876   10.3968    0.9853 C.1     1  LIG1        0.1016
     37 N          -5.8668   12.5558    1.9910 N.1     1  LIG1       -0.1908
     38 C          -5.6495   11.4860    1.5915 C.1     1  LIG1        0.1010
@<TRIPOS>BOND
     1    25    26    3
     2    27    28    3
     3    26    21    1
     4    28    22    1
     5    21    22   ar
     6    21    20   ar
     7    22    23   ar
     8     5     1   ar
     9     5     4   ar
    10     6     1    1
    11    15    14   ar
    12    15    11   ar
    13     1     2   ar
    14    20    14    1
    15    20    24   ar
    16    14    13   ar
    17     4    11    1
    18     4     3   ar
    19    11    12   ar
    20    23    29    1
    21    23    24   ar
    22    13    12   ar
    23    13    19    1
    24     2     3   ar
    25     2     8    1
    26    12    17    1
    27     3    10    1
    28     8     7    3
    29    19    18    3
    30    17    16    3
    31    33    29   ar
    32    33    32   ar
    33    29    30   ar
    34    10     9    3
    35    30    36    1
    36    30    31   ar
    37    32    34    1
    38    32    31   ar
    39    36    35    3
    40    31    38    1
    41    38    37    3
