@<TRIPOS>MOLECULE
mol_data/opt/b3lyp/geoms/mol2/5dd5dd5dd-5dd-.out
 38 41 0 0 0
SMALL
GASTEIGER

@<TRIPOS>ATOM
      1 C          -2.0825   -1.8931    0.2596 C.ar    1  LIG1       -0.0050
      2 C          -0.8140   -1.8412    0.7852 C.ar    1  LIG1        0.0767
      3 C          -0.2322   -0.5243    0.6897 C.ar    1  LIG1        0.0844
      4 C          -1.0801    0.3865    0.0794 C.ar    1  LIG1        0.0458
      5 S          -2.5886   -0.3742   -0.3671 S.2     1  LIG1       -0.0935
      6 H          -2.7331   -2.7548    0.2102 H       1  LIG1        0.0707
      7 N           0.3557   -3.8890    1.8532 N.1     1  LIG1       -0.1908
      8 C          -0.1622   -2.9653    1.3740 C.1     1  LIG1        0.1010
      9 N           2.0726    0.0862    1.6943 N.1     1  LIG1       -0.1908
     10 C           1.0424   -0.1891    1.2307 C.1     1  LIG1        0.1016
     11 C          -0.8443    1.7963   -0.1944 C.ar    1  LIG1        0.0464
     12 C           0.2308    2.3791   -0.8468 C.ar    1  LIG1        0.0850
     13 C           0.1183    3.8110   -0.9424 C.ar    1  LIG1        0.0850
     14 C          -1.0417    4.3003   -0.3642 C.ar    1  LIG1        0.0464
     15 S          -1.9910    3.0062    0.3145 S.2     1  LIG1       -0.0845
     16 N           2.1346    1.0335   -1.9694 N.1     1  LIG1       -0.1908
     17 C           1.2885    1.6387   -1.4502 C.1     1  LIG1        0.1016
     18 N           1.7963    5.2899   -2.2435 N.1     1  LIG1       -0.1908
     19 C           1.0535    4.6249   -1.6455 C.1     1  LIG1        0.1016
     20 C          -1.4944    5.6819   -0.2854 C.ar    1  LIG1        0.0464
     21 C          -0.8162    6.7785    0.2218 C.ar    1  LIG1        0.0850
     22 C          -1.5742    7.9985    0.1227 C.ar    1  LIG1        0.0850
     23 C          -2.8265    7.8118   -0.4385 C.ar    1  LIG1        0.0464
     24 S          -3.0732    6.1407   -0.8652 S.2     1  LIG1       -0.0845
     25 N           1.5188    6.6436    1.3286 N.1     1  LIG1       -0.1908
     26 C           0.4743    6.7062    0.8218 C.1     1  LIG1        0.1016
     27 N          -0.6530   10.3130    0.8234 N.1     1  LIG1       -0.1908
     28 C          -1.0687    9.2706    0.5198 C.1     1  LIG1        0.1016
     29 C          -3.8611    8.8092   -0.6806 C.ar    1  LIG1        0.0458
     30 C          -4.4518    9.6627    0.2366 C.ar    1  LIG1        0.0844
     31 C          -5.4381   10.5251   -0.3671 C.ar    1  LIG1        0.0767
     32 C          -5.5749   10.2982   -1.7156 C.ar    1  LIG1       -0.0050
     33 S          -4.5192    9.0631   -2.2778 S.2     1  LIG1       -0.0935
     34 H          -6.2429   10.8055   -2.3973 H       1  LIG1        0.0707
     35 N          -3.9516    9.6038    2.7747 N.1     1  LIG1       -0.1908
     36 C          -4.1677    9.6425    1.6329 C.1     1  LIG1        0.1016
     37 N          -6.8384   12.2793    0.9230 N.1     1  LIG1       -0.1908
     38 C          -6.2042   11.4920    0.3492 C.1     1  LIG1        0.1010
@<TRIPOS>BOND
     1    34    32    1
     2    33    32   ar
     3    33    29   ar
     4    18    19    3
     5    16    17    3
     6    32    31   ar
     7    19    13    1
     8    17    12    1
     9    13    12   ar
    10    13    14   ar
    11    24    23   ar
    12    24    20   ar
    13    12    11   ar
    14    29    23    1
    15    29    30   ar
    16    23    22   ar
    17     5     4   ar
    18     5     1   ar
    19    31    30   ar
    20    31    38    1
    21    14    20    1
    22    14    15   ar
    23    20    21   ar
    24    11     4    1
    25    11    15   ar
    26     4     3   ar
    27    22    21   ar
    28    22    28    1
    29     6     1    1
    30    21    26    1
    31    30    36    1
    32     1     2   ar
    33    38    37    3
    34    28    27    3
    35     3     2   ar
    36     3    10    1
    37     2     8    1
    38    26    25    3
    39    10     9    3
    40     8     7    3
    41    36    35    3
