@<TRIPOS>MOLECULE
mol_data/opt/b3lyp/geoms/mol2/5dd5dd-.out
 20 21 0 0 0
SMALL
GASTEIGER

@<TRIPOS>ATOM
      1 C          -1.9610   -1.7748   -0.7094 C.ar    1  LIG1       -0.0050
      2 C          -0.7466   -1.8525   -0.0715 C.ar    1  LIG1        0.0767
      3 C          -0.2325   -0.5537    0.2916 C.ar    1  LIG1        0.0844
      4 C          -1.0734    0.4773   -0.0938 C.ar    1  LIG1        0.0458
      5 S          -2.4929   -0.1500   -0.8953 S.2     1  LIG1       -0.0935
      6 H          -2.5574   -2.5974   -1.0779 H       1  LIG1        0.0707
      7 N           0.4372   -4.0971    0.4417 N.1     1  LIG1       -0.1908
      8 C          -0.0873   -3.0851    0.2129 C.1     1  LIG1        0.1010
      9 N           1.9431   -0.2085    1.6493 N.1     1  LIG1       -0.1908
     10 C           0.9727   -0.3619    1.0274 C.1     1  LIG1        0.1016
     11 C          -0.8883    1.9099    0.0949 C.ar    1  LIG1        0.0458
     12 C           0.1872    2.6932   -0.2902 C.ar    1  LIG1        0.0844
     13 C           0.0201    4.0801    0.0728 C.ar    1  LIG1        0.0767
     14 C          -1.1744    4.3138    0.7102 C.ar    1  LIG1       -0.0050
     15 S          -2.1019    2.8776    0.8959 S.2     1  LIG1       -0.0935
     16 H          -1.5421    5.2609    1.0786 H       1  LIG1        0.0707
     17 N           2.2041    1.8062   -1.6472 N.1     1  LIG1       -0.1908
     18 C           1.3044    2.2012   -1.0254 C.1     1  LIG1        0.1016
     19 N           1.7359    5.9499   -0.4398 N.1     1  LIG1       -0.1908
     20 C           0.9713    5.1045   -0.2112 C.1     1  LIG1        0.1010
@<TRIPOS>BOND
     1    17    18    3
     2     6     1    1
     3    18    12    1
     4     5     1   ar
     5     5     4   ar
     6     1     2   ar
     7    19    20    3
     8    12    13   ar
     9    12    11   ar
    10    20    13    1
    11     4    11    1
    12     4     3   ar
    13     2     8    1
    14     2     3   ar
    15    13    14   ar
    16    11    15   ar
    17     8     7    3
    18     3    10    1
    19    14    15   ar
    20    14    16    1
    21    10     9    3
