@<TRIPOS>MOLECULE
mol_data/opt/b3lyp/geoms/mol2/5dd5dd5dd-.out
 29 31 0 0 0
SMALL
GASTEIGER

@<TRIPOS>ATOM
      1 C          -1.2146   -1.3510   -2.0255 C.ar    1  LIG1       -0.0050
      2 C          -0.8846   -1.6740   -0.7311 C.ar    1  LIG1        0.0767
      3 C          -0.5419   -0.5131    0.0537 C.ar    1  LIG1        0.0844
      4 C          -0.6118    0.6615   -0.6790 C.ar    1  LIG1        0.0458
      5 S          -1.1067    0.3386   -2.3229 S.2     1  LIG1       -0.0935
      6 H          -1.5108   -2.0312   -2.8115 H       1  LIG1        0.0707
      7 N          -0.9216   -4.0982    0.1769 N.1     1  LIG1       -0.1908
      8 C          -0.9013   -3.0075   -0.2250 C.1     1  LIG1        0.1010
      9 N          -0.0212   -0.5999    2.5867 N.1     1  LIG1       -0.1908
     10 C          -0.2410   -0.5639    1.4454 C.1     1  LIG1        0.1016
     11 C          -0.3368    2.0179   -0.2287 C.ar    1  LIG1        0.0464
     12 C           0.7971    2.5008    0.4024 C.ar    1  LIG1        0.0850
     13 C           0.7166    3.9062    0.6929 C.ar    1  LIG1        0.0850
     14 C          -0.4749    4.4892    0.2673 C.ar    1  LIG1        0.0464
     15 S          -1.5028    3.2856   -0.4720 S.2     1  LIG1       -0.0845
     16 N           2.9152    1.0844    0.8533 N.1     1  LIG1       -0.1908
     17 C           1.9581    1.7166    0.6633 C.1     1  LIG1        0.1016
     18 N           2.6672    5.1699    1.8309 N.1     1  LIG1       -0.1908
     19 C           1.7874    4.6074    1.3177 C.1     1  LIG1        0.1016
     20 C          -0.9107    5.8680    0.4019 C.ar    1  LIG1        0.0458
     21 C          -1.8456    6.5623   -0.3636 C.ar    1  LIG1        0.0844
     22 C          -2.0430    7.9164    0.0856 C.ar    1  LIG1        0.0767
     23 C          -1.2643    8.2208    1.1756 C.ar    1  LIG1       -0.0050
     24 S          -0.2890    6.8994    1.6725 S.2     1  LIG1       -0.0935
     25 H          -1.2154    9.1647    1.7001 H       1  LIG1        0.0707
     26 N          -3.1098    5.6012   -2.4066 N.1     1  LIG1       -0.1908
     27 C          -2.5361    6.0292   -1.4888 C.1     1  LIG1        0.1016
     28 N          -3.6649    9.6008   -1.0252 N.1     1  LIG1       -0.1908
     29 C          -2.9374    8.8409   -0.5304 C.1     1  LIG1        0.1010
@<TRIPOS>BOND
     1     6     1    1
     2    26    27    3
     3     5     1   ar
     4     5     4   ar
     5     1     2   ar
     6    27    21    1
     7    28    29    3
     8     2     8    1
     9     2     3   ar
    10     4    11    1
    11     4     3   ar
    12    29    22    1
    13    15    11   ar
    14    15    14   ar
    15    21    22   ar
    16    21    20   ar
    17    11    12   ar
    18     8     7    3
    19     3    10    1
    20    22    23   ar
    21    14    20    1
    22    14    13   ar
    23    20    24   ar
    24    12    17    1
    25    12    13   ar
    26    17    16    3
    27    13    19    1
    28    23    24   ar
    29    23    25    1
    30    19    18    3
    31    10     9    3
