@<TRIPOS>MOLECULE
mol_data/opt/b3lyp/geoms/mol2/5dd5dd5dd.out
 29 31 0 0 0
SMALL
GASTEIGER

@<TRIPOS>ATOM
      1 C          -1.8906   -1.9273   -0.4581 C.ar    1  LIG1       -0.0050
      2 C          -0.7485   -1.8695    0.3037 C.ar    1  LIG1        0.0767
      3 C          -0.2398   -0.5252    0.4316 C.ar    1  LIG1        0.0844
      4 C          -1.0116    0.4010   -0.2517 C.ar    1  LIG1        0.0458
      5 S          -2.3609   -0.3797   -1.0415 S.2     1  LIG1       -0.0935
      6 H          -2.4672   -2.8080   -0.7028 H       1  LIG1        0.0707
      7 N           0.3200   -3.9553    1.4037 N.1     1  LIG1       -0.1908
      8 C          -0.1527   -3.0142    0.9114 C.1     1  LIG1        0.1010
      9 N           1.7952    0.0876    1.9073 N.1     1  LIG1       -0.1908
     10 C           0.8888   -0.1869    1.2328 C.1     1  LIG1        0.1016
     11 C          -0.8131    1.8390   -0.3576 C.ar    1  LIG1        0.0464
     12 C           0.3248    2.5237   -0.7531 C.ar    1  LIG1        0.0850
     13 C           0.1489    3.9527   -0.7498 C.ar    1  LIG1        0.0850
     14 C          -1.1209    4.3392   -0.3517 C.ar    1  LIG1        0.0464
     15 S          -2.0986    2.9488    0.0345 S.2     1  LIG1       -0.0845
     16 N           2.4713    1.3622   -1.6128 N.1     1  LIG1       -0.1908
     17 C           1.5136    1.8848   -1.2113 C.1     1  LIG1        0.1016
     18 N           1.9488    5.6043   -1.6031 N.1     1  LIG1       -0.1908
     19 C           1.1468    4.8630   -1.2044 C.1     1  LIG1        0.1016
     20 C          -1.6620    5.6856   -0.2393 C.ar    1  LIG1        0.0458
     21 C          -1.1368    6.7682    0.4482 C.ar    1  LIG1        0.0844
     22 C          -1.9563    7.9497    0.3265 C.ar    1  LIG1        0.0767
     23 C          -3.0792    7.7323   -0.4348 C.ar    1  LIG1       -0.0050
     24 S          -3.1612    6.1196   -1.0253 S.2     1  LIG1       -0.0935
     25 H          -3.8524    8.4482   -0.6754 H       1  LIG1        0.0707
     26 N           0.9878    6.6598    1.9210 N.1     1  LIG1       -0.1908
     27 C           0.0410    6.7098    1.2478 C.1     1  LIG1        0.1016
     28 N          -1.4237   10.2274    1.4361 N.1     1  LIG1       -0.1908
     29 C          -1.6548    9.2020    0.9396 C.1     1  LIG1        0.1010
@<TRIPOS>BOND
     1    16    17    3
     2    18    19    3
     3    17    12    1
     4    19    13    1
     5     5     1   ar
     6     5     4   ar
     7    24    23   ar
     8    24    20   ar
     9    12    13   ar
    10    12    11   ar
    11    13    14   ar
    12     6     1    1
    13    25    23    1
    14     1     2   ar
    15    23    22   ar
    16    11     4    1
    17    11    15   ar
    18    14    20    1
    19    14    15   ar
    20     4     3   ar
    21    20    21   ar
    22     2     3   ar
    23     2     8    1
    24    22    21   ar
    25    22    29    1
    26     3    10    1
    27    21    27    1
    28     8     7    3
    29    29    28    3
    30    10     9    3
    31    27    26    3
