@<TRIPOS>MOLECULE
mol_data/opt/b3lyp/geoms/mol2/5dd5dd.out
 20 21 0 0 0
SMALL
GASTEIGER

@<TRIPOS>ATOM
      1 C          -1.9548   -1.7730   -0.7249 C.ar    1  LIG1       -0.0050
      2 C          -0.7459   -1.8522   -0.0767 C.ar    1  LIG1        0.0767
      3 C          -0.2354   -0.5542    0.2945 C.ar    1  LIG1        0.0844
      4 C          -1.0730    0.4777   -0.0955 C.ar    1  LIG1        0.0458
      5 S          -2.4854   -0.1478   -0.9110 S.2     1  LIG1       -0.0935
      6 H          -2.5477   -2.5946   -1.1008 H       1  LIG1        0.0707
      7 N           0.4338   -4.0979    0.4407 N.1     1  LIG1       -0.1908
      8 C          -0.0888   -3.0854    0.2100 C.1     1  LIG1        0.1010
      9 N           1.9279   -0.2124    1.6726 N.1     1  LIG1       -0.1908
     10 C           0.9631   -0.3642    1.0415 C.1     1  LIG1        0.1016
     11 C          -0.8895    1.9097    0.0985 C.ar    1  LIG1        0.0458
     12 C           0.1897    2.6938   -0.2745 C.ar    1  LIG1        0.0844
     13 C           0.0196    4.0798    0.0905 C.ar    1  LIG1        0.0767
     14 C          -1.1808    4.3122    0.7172 C.ar    1  LIG1       -0.0050
     15 S          -2.1104    2.8758    0.8905 S.2     1  LIG1       -0.0935
     16 H          -1.5517    5.2584    1.0846 H       1  LIG1        0.0707
     17 N           2.2187    1.8097   -1.6152 N.1     1  LIG1       -0.1908
     18 C           1.3134    2.2035   -1.0009 C.1     1  LIG1        0.1016
     19 N           1.7406    5.9504   -0.4012 N.1     1  LIG1       -0.1908
     20 C           0.9737    5.1047   -0.1820 C.1     1  LIG1        0.1010
@<TRIPOS>BOND
     1    17    18    3
     2     6     1    1
     3    18    12    1
     4     5     1   ar
     5     5     4   ar
     6     1     2   ar
     7    19    20    3
     8    12    13   ar
     9    12    11   ar
    10    20    13    1
    11     4    11    1
    12     4     3   ar
    13     2     8    1
    14     2     3   ar
    15    13    14   ar
    16    11    15   ar
    17     8     7    3
    18     3    10    1
    19    14    15   ar
    20    14    16    1
    21    10     9    3
