@<TRIPOS>MOLECULE
mol_data/opt/b3lyp/geoms/mol2/5dd5dd-5dd5dd.out
 38 41 0 0 0
SMALL
GASTEIGER

@<TRIPOS>ATOM
      1 C          -0.9818   -1.8772    1.5665 C.ar    1  LIG1       -0.0050
      2 C          -0.6832   -1.9223    0.2258 C.ar    1  LIG1        0.0767
      3 C          -0.5056   -0.6076   -0.3408 C.ar    1  LIG1        0.0844
      4 C          -0.6671    0.3999    0.5960 C.ar    1  LIG1        0.0458
      5 S          -1.0405   -0.2669    2.1660 S.2     1  LIG1       -0.0935
      6 H          -1.1624   -2.7170    2.2225 H       1  LIG1        0.0707
      7 N          -0.5097   -4.1315   -1.1128 N.1     1  LIG1       -0.1908
      8 C          -0.5832   -3.1360   -0.5170 C.1     1  LIG1        0.1010
      9 N          -0.0875   -0.1688   -2.8565 N.1     1  LIG1       -0.1908
     10 C          -0.2608   -0.3693   -1.7243 C.1     1  LIG1        0.1016
     11 C          -0.5559    1.8385    0.3921 C.ar    1  LIG1        0.0464
     12 C           0.5190    2.5490   -0.1156 C.ar    1  LIG1        0.0850
     13 C           0.2710    3.9653   -0.1894 C.ar    1  LIG1        0.0850
     14 C          -0.9830    4.3164    0.2834 C.ar    1  LIG1        0.0464
     15 S          -1.8702    2.9072    0.7994 S.2     1  LIG1       -0.0845
     16 N           2.7738    1.4583   -0.7658 N.1     1  LIG1       -0.1908
     17 C           1.7582    1.9493   -0.4849 C.1     1  LIG1        0.1016
     18 N           1.9550    5.6508   -1.1987 N.1     1  LIG1       -0.1908
     19 C           1.2029    4.8949   -0.7355 C.1     1  LIG1        0.1016
     20 C          -1.5721    5.6449    0.3738 C.ar    1  LIG1        0.0464
     21 C          -1.0566    6.7697    0.9970 C.ar    1  LIG1        0.0850
     22 C          -1.9261    7.9126    0.8988 C.ar    1  LIG1        0.0850
     23 C          -3.0924    7.6440    0.1994 C.ar    1  LIG1        0.0464
     24 S          -3.1191    5.9903   -0.3503 S.2     1  LIG1       -0.0845
     25 N           1.1343    6.7586    2.3740 N.1     1  LIG1       -0.1908
     26 C           0.1583    6.7717    1.7424 C.1     1  LIG1        0.1016
     27 N          -1.4483   10.1581    2.0923 N.1     1  LIG1       -0.1908
     28 C          -1.6551    9.1553    1.5416 C.1     1  LIG1        0.1016
     29 C          -4.1999    8.5422   -0.0911 C.ar    1  LIG1        0.0458
     30 C          -4.1571    9.8006   -0.6704 C.ar    1  LIG1        0.0844
     31 C          -5.4660   10.3945   -0.7966 C.ar    1  LIG1        0.0767
     32 C          -6.4617    9.5737   -0.3242 C.ar    1  LIG1       -0.0050
     33 S          -5.8448    8.0907    0.2888 S.2     1  LIG1       -0.0935
     34 H          -7.5226    9.7795   -0.3061 H       1  LIG1        0.0707
     35 N          -2.0016   10.9088   -1.5755 N.1     1  LIG1       -0.1908
     36 C          -2.9672   10.4149   -1.1564 C.1     1  LIG1        0.1016
     37 N          -5.9279   12.7248   -1.8256 N.1     1  LIG1       -0.1908
     38 C          -5.7122   11.6801   -1.3635 C.1     1  LIG1        0.1010
@<TRIPOS>BOND
     1     9    10    3
     2    37    38    3
     3    10     3    1
     4    35    36    3
     5    38    31    1
     6    18    19    3
     7    36    30    1
     8     7     8    3
     9    31    30   ar
    10    31    32   ar
    11    16    17    3
    12    19    13    1
    13    30    29   ar
    14     8     2    1
    15    17    12    1
    16    24    23   ar
    17    24    20   ar
    18     3     2   ar
    19     3     4   ar
    20    32    34    1
    21    32    33   ar
    22    13    12   ar
    23    13    14   ar
    24    12    11   ar
    25    29    23    1
    26    29    33   ar
    27    23    22   ar
    28     2     1   ar
    29    14    20    1
    30    14    15   ar
    31    20    21   ar
    32    11     4    1
    33    11    15   ar
    34     4     5   ar
    35    22    21   ar
    36    22    28    1
    37    21    26    1
    38    28    27    3
    39     1     5   ar
    40     1     6    1
    41    26    25    3
