@<TRIPOS>MOLECULE
mol_data/opt/b3lyp/geoms/mol2/5dd5dd-5dd-5dd.out
 38 41 0 0 0
SMALL
GASTEIGER

@<TRIPOS>ATOM
      1 C          -1.0290   -1.5946   -2.1518 C.ar    1  LIG1       -0.0050
      2 C          -0.8310   -1.8342   -0.8130 C.ar    1  LIG1        0.0767
      3 C          -0.6420   -0.6179   -0.0610 C.ar    1  LIG1        0.0844
      4 C          -0.6942    0.5128   -0.8595 C.ar    1  LIG1        0.0458
      5 S          -0.9790    0.0825   -2.5271 S.2     1  LIG1       -0.0935
      6 H          -1.1954   -2.3285   -2.9276 H       1  LIG1        0.0707
      7 N          -0.8431   -4.2080    0.2201 N.1     1  LIG1       -0.1908
      8 C          -0.8338   -3.1398   -0.2384 C.1     1  LIG1        0.1010
      9 N          -0.3899   -0.5372    2.5131 N.1     1  LIG1       -0.1908
     10 C          -0.4888   -0.5783    1.3553 C.1     1  LIG1        0.1016
     11 C          -0.5401    1.9035   -0.4517 C.ar    1  LIG1        0.0464
     12 C           0.5244    2.4835    0.2187 C.ar    1  LIG1        0.0850
     13 C           0.3275    3.8866    0.4723 C.ar    1  LIG1        0.0850
     14 C          -0.8752    4.3593   -0.0253 C.ar    1  LIG1        0.0464
     15 S          -1.7790    3.0810   -0.7888 S.2     1  LIG1       -0.0845
     16 N           2.6827    1.2075    0.8592 N.1     1  LIG1       -0.1908
     17 C           1.7094    1.7794    0.5813 C.1     1  LIG1        0.1016
     18 N           1.9910    5.3545    1.8046 N.1     1  LIG1       -0.1908
     19 C           1.2523    4.6939    1.1967 C.1     1  LIG1        0.1016
     20 C          -1.3951    5.7201    0.0349 C.ar    1  LIG1        0.0464
     21 C          -0.8089    6.8758   -0.4532 C.ar    1  LIG1        0.0850
     22 C          -1.5996    8.0523   -0.2028 C.ar    1  LIG1        0.0850
     23 C          -2.7857    7.7730    0.4559 C.ar    1  LIG1        0.0464
     24 S          -2.9278    6.0683    0.7857 S.2     1  LIG1       -0.0845
     25 N           1.4216    6.8947   -1.7651 N.1     1  LIG1       -0.1908
     26 C           0.4252    6.8927   -1.1663 C.1     1  LIG1        0.1016
     27 N          -0.8348   10.4441   -0.8278 N.1     1  LIG1       -0.1908
     28 C          -1.1820    9.3682   -0.5569 C.1     1  LIG1        0.1016
     29 C          -3.8313    8.7056    0.8576 C.ar    1  LIG1        0.0458
     30 C          -4.5386    9.5863    0.0558 C.ar    1  LIG1        0.0844
     31 C          -5.4969   10.3644    0.8020 C.ar    1  LIG1        0.0767
     32 C          -5.4971   10.0488    2.1397 C.ar    1  LIG1       -0.0050
     33 S          -4.3456    8.8304    2.5210 S.2     1  LIG1       -0.0935
     34 H          -6.1173   10.4823    2.9115 H       1  LIG1        0.0707
     35 N          -4.2736    9.7038   -2.5156 N.1     1  LIG1       -0.1908
     36 C          -4.3852    9.6641   -1.3589 C.1     1  LIG1        0.1016
     37 N          -7.0786   12.1299   -0.2390 N.1     1  LIG1       -0.1908
     38 C          -6.3639   11.3380    0.2231 C.1     1  LIG1        0.1010
@<TRIPOS>BOND
     1     6     1    1
     2     5     1   ar
     3     5     4   ar
     4    35    36    3
     5     1     2   ar
     6    25    26    3
     7    36    30    1
     8    26    21    1
     9     4    11    1
    10     4     3   ar
    11    27    28    3
    12     2     8    1
    13     2     3   ar
    14    15    11   ar
    15    15    14   ar
    16    28    22    1
    17    21    22   ar
    18    21    20   ar
    19    11    12   ar
    20    37    38    3
    21     8     7    3
    22    22    23   ar
    23     3    10    1
    24    14    20    1
    25    14    13   ar
    26    20    24   ar
    27    30    31   ar
    28    30    29   ar
    29    12    13   ar
    30    12    17    1
    31    38    31    1
    32    23    24   ar
    33    23    29    1
    34    13    19    1
    35    17    16    3
    36    31    32   ar
    37    29    33   ar
    38    19    18    3
    39    10     9    3
    40    32    33   ar
    41    32    34    1
