@<TRIPOS>MOLECULE
mol_data/opt/b3lyp/geoms/mol2/5dd5dd-5dd-5dd-.out
 38 41 0 0 0
SMALL
GASTEIGER

@<TRIPOS>ATOM
      1 C          -2.2499   -1.5849    0.9574 C.ar    1  LIG1       -0.0050
      2 C          -0.8923   -1.6169    1.1683 C.ar    1  LIG1        0.0767
      3 C          -0.2565   -0.3620    0.8483 C.ar    1  LIG1        0.0844
      4 C          -1.1574    0.5866    0.3905 C.ar    1  LIG1        0.0458
      5 S          -2.7798   -0.0618    0.3623 S.2     1  LIG1       -0.0935
      6 H          -2.9541   -2.3883    1.1210 H       1  LIG1        0.0707
      7 N           0.3476   -3.7005    2.0759 N.1     1  LIG1       -0.1908
      8 C          -0.2021   -2.7616    1.6664 C.1     1  LIG1        0.1010
      9 N           2.2584    0.0997    1.2440 N.1     1  LIG1       -0.1908
     10 C           1.1308   -0.1104    1.0529 C.1     1  LIG1        0.1016
     11 C          -0.8913    1.9546   -0.0290 C.ar    1  LIG1        0.0464
     12 C           0.0324    2.4059   -0.9587 C.ar    1  LIG1        0.0850
     13 C           0.0063    3.8350   -1.1261 C.ar    1  LIG1        0.0850
     14 C          -0.9367    4.4546   -0.3204 C.ar    1  LIG1        0.0464
     15 S          -1.7863    3.2847    0.6537 S.2     1  LIG1       -0.0845
     16 N           1.5027    0.8407   -2.4022 N.1     1  LIG1       -0.1908
     17 C           0.8541    1.5445   -1.7424 C.1     1  LIG1        0.1016
     18 N           1.4107    5.0833   -2.9051 N.1     1  LIG1       -0.1908
     19 C           0.7934    4.5222   -2.0952 C.1     1  LIG1        0.1016
     20 C          -1.2596    5.8697   -0.2356 C.ar    1  LIG1        0.0464
     21 C          -0.4036    6.9411   -0.0426 C.ar    1  LIG1        0.0850
     22 C          -1.0925    8.2016   -0.0024 C.ar    1  LIG1        0.0850
     23 C          -2.4737    8.0830   -0.1498 C.ar    1  LIG1        0.0464
     24 S          -2.9115    6.4039   -0.3604 S.2     1  LIG1       -0.0845
     25 N           2.1379    6.7156    0.3873 N.1     1  LIG1       -0.1908
     26 C           0.9982    6.8155    0.1801 C.1     1  LIG1        0.1016
     27 N           0.1810   10.4226    0.3735 N.1     1  LIG1       -0.1908
     28 C          -0.3976    9.4269    0.2062 C.1     1  LIG1        0.1016
     29 C          -3.4792    9.1300   -0.1738 C.ar    1  LIG1        0.0458
     30 C          -4.8527    9.0208    0.0414 C.ar    1  LIG1        0.0844
     31 C          -5.5433   10.2774   -0.0897 C.ar    1  LIG1        0.0767
     32 C          -4.6907   11.3079   -0.4026 C.ar    1  LIG1       -0.0050
     33 S          -3.0604   10.7914   -0.5390 S.2     1  LIG1       -0.0935
     34 H          -4.9486   12.3473   -0.5497 H       1  LIG1        0.0707
     35 N          -6.1023    6.8349    0.6368 N.1     1  LIG1       -0.1908
     36 C          -5.5348    7.8161    0.3723 C.1     1  LIG1        0.1016
     37 N          -8.0942   10.5790    0.2321 N.1     1  LIG1       -0.1908
     38 C          -6.9490   10.4391    0.0890 C.1     1  LIG1        0.1010
@<TRIPOS>BOND
     1    18    19    3
     2    16    17    3
     3    19    13    1
     4    17    12    1
     5    13    12   ar
     6    13    14   ar
     7    12    11   ar
     8    34    32    1
     9    33    32   ar
    10    33    29   ar
    11    32    31   ar
    12    24    20   ar
    13    24    23   ar
    14    14    20    1
    15    14    15   ar
    16    20    21   ar
    17    29    23    1
    18    29    30   ar
    19    23    22   ar
    20    31    30   ar
    21    31    38    1
    22    21    22   ar
    23    21    26    1
    24    11     4    1
    25    11    15   ar
    26    22    28    1
    27    30    36    1
    28    38    37    3
    29    26    25    3
    30    28    27    3
    31     5     4   ar
    32     5     1   ar
    33    36    35    3
    34     4     3   ar
    35     3    10    1
    36     3     2   ar
    37     1     6    1
    38     1     2   ar
    39    10     9    3
    40     2     8    1
    41     8     7    3
