@<TRIPOS>MOLECULE
mol_data/opt/b3lyp/geoms/mol2/5dd5dd5dd5dd.out
 38 41 0 0 0
SMALL
GASTEIGER

@<TRIPOS>ATOM
      1 C          -2.2273   -1.5686   -1.0877 C.ar    1  LIG1       -0.0050
      2 C          -0.8629   -1.6008   -1.2493 C.ar    1  LIG1        0.0767
      3 C          -0.2369   -0.3524   -0.8876 C.ar    1  LIG1        0.0844
      4 C          -1.1521    0.5915   -0.4487 C.ar    1  LIG1        0.0458
      5 S          -2.7756   -0.0532   -0.4895 S.2     1  LIG1       -0.0935
      6 H          -2.9266   -2.3677   -1.2889 H       1  LIG1        0.0707
      7 N           0.4053   -3.6737   -2.1423 N.1     1  LIG1       -0.1908
      8 C          -0.1572   -2.7396   -1.7391 C.1     1  LIG1        0.1010
      9 N           2.2916    0.1092   -1.1843 N.1     1  LIG1       -0.1908
     10 C           1.1574   -0.1011   -1.0377 C.1     1  LIG1        0.1016
     11 C          -0.8987    1.9523    0.0005 C.ar    1  LIG1        0.0464
     12 C          -0.0086    2.3874    0.9700 C.ar    1  LIG1        0.0850
     13 C          -0.0379    3.8138    1.1578 C.ar    1  LIG1        0.0850
     14 C          -0.9496    4.4479    0.3276 C.ar    1  LIG1        0.0464
     15 S          -1.7655    3.2948   -0.6942 S.2     1  LIG1       -0.0845
     16 N           1.4046    0.7967    2.4425 N.1     1  LIG1       -0.1908
     17 C           0.7820    1.5122    1.7701 C.1     1  LIG1        0.1016
     18 N           1.3033    5.0317    3.0053 N.1     1  LIG1       -0.1908
     19 C           0.7147    4.4844    2.1651 C.1     1  LIG1        0.1016
     20 C          -1.2663    5.8649    0.2524 C.ar    1  LIG1        0.0464
     21 C          -0.4017    6.9368    0.1071 C.ar    1  LIG1        0.0850
     22 C          -1.0860    8.1996    0.0609 C.ar    1  LIG1        0.0850
     23 C          -2.4719    8.0824    0.1558 C.ar    1  LIG1        0.0464
     24 S          -2.9206    6.4015    0.3248 S.2     1  LIG1       -0.0845
     25 N           2.1534    6.7113   -0.2329 N.1     1  LIG1       -0.1908
     26 C           1.0071    6.8110   -0.0660 C.1     1  LIG1        0.1016
     27 N           0.2048   10.4227   -0.2346 N.1     1  LIG1       -0.1908
     28 C          -0.3814    9.4261   -0.1037 C.1     1  LIG1        0.1016
     29 C          -3.4755    9.1315    0.1588 C.ar    1  LIG1        0.0458
     30 C          -4.8404    9.0292   -0.1083 C.ar    1  LIG1        0.0844
     31 C          -5.5327   10.2855    0.0162 C.ar    1  LIG1        0.0767
     32 C          -4.6901   11.3089    0.3755 C.ar    1  LIG1       -0.0050
     33 S          -3.0669   10.7862    0.5638 S.2     1  LIG1       -0.0935
     34 H          -4.9510   12.3467    0.5286 H       1  LIG1        0.0707
     35 N          -6.0718    6.8557   -0.7820 N.1     1  LIG1       -0.1908
     36 C          -5.5124    7.8314   -0.4820 C.1     1  LIG1        0.1016
     37 N          -8.0695   10.5986   -0.3944 N.1     1  LIG1       -0.1908
     38 C          -6.9306   10.4535   -0.2115 C.1     1  LIG1        0.1010
@<TRIPOS>BOND
     1     7     8    3
     2     8     2    1
     3     6     1    1
     4     2     1   ar
     5     2     3   ar
     6     9    10    3
     7     1     5   ar
     8    10     3    1
     9     3     4   ar
    10    35    36    3
    11    15    11   ar
    12    15    14   ar
    13     5     4   ar
    14    36    30    1
    15     4    11    1
    16    37    38    3
    17    27    28    3
    18    25    26    3
    19    38    31    1
    20    30    31   ar
    21    30    29   ar
    22    28    22    1
    23    26    21    1
    24    11    12   ar
    25    31    32   ar
    26    22    21   ar
    27    22    23   ar
    28    21    20   ar
    29    23    29    1
    30    23    24   ar
    31    29    33   ar
    32    20    24   ar
    33    20    14    1
    34    14    13   ar
    35    32    34    1
    36    32    33   ar
    37    12    13   ar
    38    12    17    1
    39    13    19    1
    40    17    16    3
    41    19    18    3
