@<TRIPOS>MOLECULE
mol_data/opt/b3lyp/geoms/mol2/5dd5dd-5dd.out
 29 31 0 0 0
SMALL
GASTEIGER

@<TRIPOS>ATOM
      1 C          -1.6412   -1.7333   -1.4218 C.ar    1  LIG1       -0.0050
      2 C          -0.8289   -1.8858   -0.3237 C.ar    1  LIG1        0.0767
      3 C          -0.4047   -0.6205    0.2244 C.ar    1  LIG1        0.0844
      4 C          -0.9041    0.4592   -0.4851 C.ar    1  LIG1        0.0458
      5 S          -1.8949   -0.0797   -1.8182 S.2     1  LIG1       -0.0935
      6 H          -2.0923   -2.5179   -2.0126 H       1  LIG1        0.0707
      7 N          -0.1863   -4.1962    0.6519 N.1     1  LIG1       -0.1908
      8 C          -0.4688   -3.1557    0.2173 C.1     1  LIG1        0.1010
      9 N           1.0012   -0.3891    2.3845 N.1     1  LIG1       -0.1908
     10 C           0.3819   -0.4954    1.4061 C.1     1  LIG1        0.1016
     11 C          -0.6865    1.8774   -0.2308 C.ar    1  LIG1        0.0464
     12 C           0.5181    2.5547   -0.1398 C.ar    1  LIG1        0.0850
     13 C           0.3520    3.9576    0.1386 C.ar    1  LIG1        0.0850
     14 C          -0.9773    4.3339    0.2353 C.ar    1  LIG1        0.0464
     15 S          -2.0284    2.9635    0.0049 S.2     1  LIG1       -0.0845
     16 N           2.8204    1.4398   -0.5314 N.1     1  LIG1       -0.1908
     17 C           1.7878    1.9402   -0.3443 C.1     1  LIG1        0.1016
     18 N           2.3307    5.5812    0.5204 N.1     1  LIG1       -0.1908
     19 C           1.4433    4.8527    0.3376 C.1     1  LIG1        0.1016
     20 C          -1.5198    5.6618    0.4913 C.ar    1  LIG1        0.0458
     21 C          -1.2906    6.8280   -0.2202 C.ar    1  LIG1        0.0844
     22 C          -1.9968    7.9591    0.3305 C.ar    1  LIG1        0.0767
     23 C          -2.7455    7.6214    1.4324 C.ar    1  LIG1       -0.0050
     24 S          -2.6030    5.9546    1.8292 S.2     1  LIG1       -0.0935
     25 H          -3.3650    8.2789    2.0257 H       1  LIG1        0.0707
     26 N           0.1203    6.9306   -2.3869 N.1     1  LIG1       -0.1908
     27 C          -0.5020    6.8897   -1.4055 C.1     1  LIG1        0.1016
     28 N          -1.9178   10.3550   -0.6471 N.1     1  LIG1       -0.1908
     29 C          -1.9467    9.2776   -0.2116 C.1     1  LIG1        0.1010
@<TRIPOS>BOND
     1    26    27    3
     2     6     1    1
     3     5     1   ar
     4     5     4   ar
     5     1     2   ar
     6    27    21    1
     7    28    29    3
     8    16    17    3
     9     4    11    1
    10     4     3   ar
    11    17    12    1
    12     2     8    1
    13     2     3   ar
    14    11    12   ar
    15    11    15   ar
    16    21    22   ar
    17    21    20   ar
    18    29    22    1
    19    12    13   ar
    20    15    14   ar
    21    13    14   ar
    22    13    19    1
    23     8     7    3
    24     3    10    1
    25    14    20    1
    26    22    23   ar
    27    19    18    3
    28    20    24   ar
    29    10     9    3
    30    23    24   ar
    31    23    25    1
