@<TRIPOS>MOLECULE
mol_data/opt/b3lyp/geoms/mol2/5dd5dd-5dd5dd-.out
 38 41 0 0 0
SMALL
GASTEIGER

@<TRIPOS>ATOM
      1 C          -1.9199   -1.9710    0.3783 C.ar    1  LIG1       -0.0050
      2 C          -0.6763   -1.9444   -0.2056 C.ar    1  LIG1        0.0767
      3 C          -0.1460   -0.6066   -0.3101 C.ar    1  LIG1        0.0844
      4 C          -1.0060    0.3466    0.2120 C.ar    1  LIG1        0.0458
      5 S          -2.4628   -0.4012    0.8220 S.2     1  LIG1       -0.0935
      6 H          -2.5316   -2.8411    0.5700 H       1  LIG1        0.0707
      7 N           0.5324   -4.0729   -1.0490 N.1     1  LIG1       -0.1908
      8 C          -0.0030   -3.1129   -0.6709 C.1     1  LIG1        0.1010
      9 N           2.0887   -0.0511   -1.4899 N.1     1  LIG1       -0.1908
     10 C           1.0909   -0.3003   -0.9472 C.1     1  LIG1        0.1016
     11 C          -0.8174    1.7877    0.2864 C.ar    1  LIG1        0.0464
     12 C           0.2523    2.4902    0.8179 C.ar    1  LIG1        0.0850
     13 C           0.0881    3.9175    0.7270 C.ar    1  LIG1        0.0850
     14 C          -1.1056    4.2850    0.1254 C.ar    1  LIG1        0.0464
     15 S          -2.0235    2.8777   -0.3419 S.2     1  LIG1       -0.0845
     16 N           2.2394    1.3666    2.0364 N.1     1  LIG1       -0.1908
     17 C           1.3555    1.8721    1.4753 C.1     1  LIG1        0.1016
     18 N           1.7537    5.5963    1.7768 N.1     1  LIG1       -0.1908
     19 C           1.0128    4.8437    1.2907 C.1     1  LIG1        0.1016
     20 C          -1.6206    5.6218   -0.1242 C.ar    1  LIG1        0.0464
     21 C          -0.9872    6.6906   -0.7392 C.ar    1  LIG1        0.0850
     22 C          -1.8214    7.8608   -0.8253 C.ar    1  LIG1        0.0850
     23 C          -3.0795    7.6697   -0.2768 C.ar    1  LIG1        0.0464
     24 S          -3.2384    6.0557    0.3615 S.2     1  LIG1       -0.0845
     25 N           1.3604    6.5526   -1.8182 N.1     1  LIG1       -0.1908
     26 C           0.3124    6.6184   -1.3191 C.1     1  LIG1        0.1016
     27 N          -1.1122   10.0195   -2.0632 N.1     1  LIG1       -0.1908
     28 C          -1.4237    9.0551   -1.4936 C.1     1  LIG1        0.1016
     29 C          -4.1830    8.6148   -0.1929 C.ar    1  LIG1        0.0458
     30 C          -4.1753    9.9010    0.3232 C.ar    1  LIG1        0.0844
     31 C          -5.4657   10.5400    0.2319 C.ar    1  LIG1        0.0767
     32 C          -6.4148    9.7250   -0.3367 C.ar    1  LIG1       -0.0050
     33 S          -5.7735    8.1930   -0.7814 S.2     1  LIG1       -0.0935
     34 H          -7.4539    9.9615   -0.5166 H       1  LIG1        0.0707
     35 N          -2.1283   10.9887    1.4726 N.1     1  LIG1       -0.1908
     36 C          -3.0432   10.5038    0.9435 C.1     1  LIG1        0.1016
     37 N          -5.9811   12.9344    1.0707 N.1     1  LIG1       -0.1908
     38 C          -5.7413   11.8609    0.6946 C.1     1  LIG1        0.1010
@<TRIPOS>BOND
     1    27    28    3
     2    25    26    3
     3    28    22    1
     4     9    10    3
     5    26    21    1
     6     7     8    3
     7    10     3    1
     8    22    21   ar
     9    22    23   ar
    10    33    32   ar
    11    33    29   ar
    12    21    20   ar
    13     8     2    1
    14    34    32    1
    15    15    14   ar
    16    15    11   ar
    17    32    31   ar
    18     3     2   ar
    19     3     4   ar
    20    23    29    1
    21    23    24   ar
    22     2     1   ar
    23    29    30   ar
    24    20    14    1
    25    20    24   ar
    26    14    13   ar
    27     4    11    1
    28     4     5   ar
    29    31    30   ar
    30    31    38    1
    31    11    12   ar
    32    30    36    1
    33     1     6    1
    34     1     5   ar
    35    38    37    3
    36    13    12   ar
    37    13    19    1
    38    12    17    1
    39    36    35    3
    40    19    18    3
    41    17    16    3
