@<TRIPOS>MOLECULE
mol_data/opt/b3lyp/geoms/mol2/5dd5dd-5dd-.out
 29 31 0 0 0
SMALL
GASTEIGER

@<TRIPOS>ATOM
      1 C          -0.0042   -1.7746   -1.3952 C.ar    1  LIG1       -0.0050
      2 C          -1.0824   -1.6083   -0.5594 C.ar    1  LIG1        0.0767
      3 C          -1.1678   -0.2674   -0.0400 C.ar    1  LIG1        0.0844
      4 C          -0.1421    0.5537   -0.4981 C.ar    1  LIG1        0.0458
      5 S           0.9149   -0.3361   -1.5695 S.2     1  LIG1       -0.0935
      6 H           0.2912   -2.6801   -1.9063 H       1  LIG1        0.0707
      7 N          -2.7426   -3.5094    0.0162 N.1     1  LIG1       -0.1908
      8 C          -2.0003   -2.6517   -0.2385 C.1     1  LIG1        0.1010
      9 N          -3.0141    0.4627    1.6201 N.1     1  LIG1       -0.1908
     10 C          -2.1830    0.1385    0.8731 C.1     1  LIG1        0.1016
     11 C           0.0854    1.9606   -0.2132 C.ar    1  LIG1        0.0464
     12 C           1.2948    2.6393   -0.1085 C.ar    1  LIG1        0.0850
     13 C           1.1320    4.0426    0.1487 C.ar    1  LIG1        0.0850
     14 C          -0.2010    4.4296    0.2352 C.ar    1  LIG1        0.0464
     15 S          -1.2502    3.0583    0.0026 S.2     1  LIG1       -0.0845
     16 N           3.6314    1.5457   -0.3163 N.1     1  LIG1       -0.1908
     17 C           2.5784    2.0316   -0.2224 C.1     1  LIG1        0.1016
     18 N           3.1571    5.6365    0.3874 N.1     1  LIG1       -0.1908
     19 C           2.2429    4.9250    0.2795 C.1     1  LIG1        0.1016
     20 C          -0.7452    5.7480    0.5147 C.ar    1  LIG1        0.0458
     21 C          -1.9236    6.3162    0.0410 C.ar    1  LIG1        0.0844
     22 C          -2.1514    7.6408    0.5593 C.ar    1  LIG1        0.0767
     23 C          -1.1507    8.0456    1.4100 C.ar    1  LIG1       -0.0050
     24 S           0.0677    6.8522    1.5995 S.2     1  LIG1       -0.0935
     25 H          -1.0752    8.9935    1.9239 H       1  LIG1        0.0707
     26 N          -3.5330    5.1898   -1.6439 N.1     1  LIG1       -0.1908
     27 C          -2.8075    5.6926   -0.8858 C.1     1  LIG1        0.1016
     28 N          -4.1907    9.1176   -0.0425 N.1     1  LIG1       -0.1908
     29 C          -3.2770    8.4498    0.2239 C.1     1  LIG1        0.1010
@<TRIPOS>BOND
     1     6     1    1
     2    26    27    3
     3     5     1   ar
     4     5     4   ar
     5     1     2   ar
     6    27    21    1
     7     2     8    1
     8     2     3   ar
     9     4    11    1
    10     4     3   ar
    11    16    17    3
    12     8     7    3
    13    17    12    1
    14    11    12   ar
    15    11    15   ar
    16    12    13   ar
    17    28    29    3
    18     3    10    1
    19    15    14   ar
    20    21    20   ar
    21    21    22   ar
    22    13    14   ar
    23    13    19    1
    24    29    22    1
    25    14    20    1
    26    19    18    3
    27    20    24   ar
    28    22    23   ar
    29    10     9    3
    30    23    24   ar
    31    23    25    1
