@<TRIPOS>MOLECULE
mol_data/opt/b3lyp/geoms/mol2/5de.out
 12 12 0 0 0
SMALL
GASTEIGER

@<TRIPOS>ATOM
      1 C          -2.1230   -1.7181    0.0002 C.ar    1  LIG1       -0.0057
      2 C          -0.7493   -1.6982   -0.0004 C.ar    1  LIG1        0.0741
      3 C          -0.2077   -0.3520   -0.0003 C.ar    1  LIG1        0.0490
      4 C          -1.2107    0.5889    0.0003 C.ar    1  LIG1       -0.0077
      5 S          -2.7845   -0.1263    0.0008 S.2     1  LIG1       -0.1025
      6 H          -2.7653   -2.5868    0.0003 H       1  LIG1        0.0707
      7 H          -1.0951    1.6628    0.0004 H       1  LIG1        0.0706
      8 N           0.6969   -3.8460   -0.0014 N.1     1  LIG1       -0.1908
      9 C           0.0507   -2.8787   -0.0009 C.1     1  LIG1        0.1009
     10 C           1.1809   -0.0507   -0.0008 C.1     1  LIG1       -0.0678
     11 C           2.3647    0.1953   -0.0012 C.1     1  LIG1       -0.1139
     12 H           3.4099    0.4030   -0.0015 H       1  LIG1        0.1232
@<TRIPOS>BOND
     1    12    11    1
     2     8     9    3
     3    11    10    3
     4     9     2    1
     5    10     3    1
     6     2     3   ar
     7     2     1   ar
     8     3     4   ar
     9     1     6    1
    10     1     5   ar
    11     4     7    1
    12     4     5   ar
