@<TRIPOS>MOLECULE
mol_data/opt/b3lyp/geoms/mol2/5de5de5de5de.out
 42 45 0 0 0
SMALL
GASTEIGER

@<TRIPOS>ATOM
      1 C          -2.0079   -1.9166   -0.3387 C.ar    1  LIG1       -0.0051
      2 C          -0.7310   -1.9284    0.1666 C.ar    1  LIG1        0.0747
      3 C          -0.1366   -0.6106    0.2391 C.ar    1  LIG1        0.0573
      4 C          -1.0002    0.3674   -0.2373 C.ar    1  LIG1        0.0438
      5 S          -2.5229   -0.3302   -0.7541 S.2     1  LIG1       -0.0935
      6 H          -2.6584   -2.7663   -0.4895 H       1  LIG1        0.0707
      7 N           0.4529   -4.0965    0.9425 N.1     1  LIG1       -0.1908
      8 C          -0.0719   -3.1190    0.5941 C.1     1  LIG1        0.1009
      9 C           1.1475   -0.3703    0.7876 C.1     1  LIG1       -0.0672
     10 C           2.2418   -0.1907    1.2691 C.1     1  LIG1       -0.1138
     11 H           3.2135   -0.0288    1.6770 H       1  LIG1        0.1232
     12 C          -0.7885    1.8024   -0.3154 C.ar    1  LIG1        0.0463
     13 C           0.2887    2.5012   -0.8368 C.ar    1  LIG1        0.0830
     14 C           0.1519    3.9361   -0.7399 C.ar    1  LIG1        0.0579
     15 C          -1.0438    4.3068   -0.1385 C.ar    1  LIG1        0.0444
     16 S          -1.9849    2.9047    0.3136 S.2     1  LIG1       -0.0846
     17 N           2.2839    1.4076   -2.0693 N.1     1  LIG1       -0.1908
     18 C           1.3902    1.8886   -1.5014 C.1     1  LIG1        0.1016
     19 C           1.1050    4.8369   -1.2766 C.1     1  LIG1       -0.0672
     20 C           1.9270    5.5860   -1.7505 C.1     1  LIG1       -0.1138
     21 H           2.6567    6.2509   -2.1534 H       1  LIG1        0.1232
     22 C          -1.5582    5.6416    0.1090 C.ar    1  LIG1        0.0463
     23 C          -0.9268    6.7284    0.6934 C.ar    1  LIG1        0.0830
     24 C          -1.7593    7.9062    0.7775 C.ar    1  LIG1        0.0579
     25 C          -3.0254    7.6906    0.2507 C.ar    1  LIG1        0.0444
     26 S          -3.1874    6.0592   -0.3548 S.2     1  LIG1       -0.0846
     27 N           1.4353    6.6567    1.7472 N.1     1  LIG1       -0.1908
     28 C           0.3804    6.6829    1.2582 C.1     1  LIG1        0.1016
     29 C          -1.3309    9.1055    1.3999 C.1     1  LIG1       -0.0672
     30 C          -0.9433   10.1132    1.9438 C.1     1  LIG1       -0.1138
     31 H          -0.5974   11.0087    2.4073 H       1  LIG1        0.1232
     32 C          -4.1467    8.6114    0.1728 C.ar    1  LIG1        0.0457
     33 C          -4.1778    9.9128   -0.3037 C.ar    1  LIG1        0.0824
     34 C          -5.4891   10.5213   -0.2185 C.ar    1  LIG1        0.0496
     35 C          -6.4173    9.6539    0.3077 C.ar    1  LIG1       -0.0070
     36 S          -5.7353    8.1256    0.7197 S.2     1  LIG1       -0.0935
     37 H          -7.4670    9.8487    0.4734 H       1  LIG1        0.0706
     38 N          -2.1760   11.1307   -1.4009 N.1     1  LIG1       -0.1908
     39 C          -3.0651   10.5771   -0.8946 C.1     1  LIG1        0.1015
     40 C          -5.7784   11.8455   -0.6442 C.1     1  LIG1       -0.0678
     41 C          -6.0173   12.9734   -1.0079 C.1     1  LIG1       -0.1139
     42 H          -6.2190   13.9685   -1.3323 H       1  LIG1        0.1232
@<TRIPOS>BOND
     1    21    20    1
     2    17    18    3
     3    20    19    3
     4    18    13    1
     5    38    39    3
     6    42    41    1
     7    19    14    1
     8    41    40    3
     9    39    33    1
    10    13    14   ar
    11    13    12   ar
    12     5     1   ar
    13     5     4   ar
    14    14    15   ar
    15    40    34    1
    16     6     1    1
    17    26    22   ar
    18    26    25   ar
    19     1     2   ar
    20    12     4    1
    21    12    16   ar
    22    33    34   ar
    23    33    32   ar
    24     4     3   ar
    25    34    35   ar
    26    15    22    1
    27    15    16   ar
    28    22    23   ar
    29     2     3   ar
    30     2     8    1
    31    32    25    1
    32    32    36   ar
    33     3     9    1
    34    25    24   ar
    35    35    37    1
    36    35    36   ar
    37     8     7    3
    38    23    24   ar
    39    23    28    1
    40    24    29    1
    41     9    10    3
    42    28    27    3
    43    10    11    1
    44    29    30    3
    45    30    31    1
