@<TRIPOS>MOLECULE
mol_data/opt/b3lyp/geoms/mol2/5de5de-5de.out
 32 34 0 0 0
SMALL
GASTEIGER

@<TRIPOS>ATOM
      1 C          -1.9567   -1.8884    0.5139 C.ar    1  LIG1       -0.0051
      2 C          -0.7910   -1.8667   -0.2118 C.ar    1  LIG1        0.0747
      3 C          -0.2225   -0.5412   -0.3341 C.ar    1  LIG1        0.0573
      4 C          -0.9890    0.4079    0.3295 C.ar    1  LIG1        0.0438
      5 S          -2.3926   -0.3253    1.0807 S.2     1  LIG1       -0.0935
      6 H          -2.5678   -2.7499    0.7423 H       1  LIG1        0.0707
      7 N           0.2401   -3.9894   -1.2774 N.1     1  LIG1       -0.1908
      8 C          -0.2162   -3.0322   -0.8000 C.1     1  LIG1        0.1009
      9 C           0.9426   -0.2656   -1.0919 C.1     1  LIG1       -0.0672
     10 C           1.9330   -0.0549   -1.7525 C.1     1  LIG1       -0.1138
     11 H           2.8157    0.1340   -2.3198 H       1  LIG1        0.1232
     12 C          -0.7686    1.8405    0.4302 C.ar    1  LIG1        0.0463
     13 C           0.3819    2.5251    0.7872 C.ar    1  LIG1        0.0830
     14 C           0.2284    3.9619    0.7783 C.ar    1  LIG1        0.0579
     15 C          -1.0531    4.3485    0.4113 C.ar    1  LIG1        0.0444
     16 S          -2.0560    2.9593    0.0664 S.2     1  LIG1       -0.0846
     17 N           2.5625    1.3971    1.6049 N.1     1  LIG1       -0.1908
     18 C           1.5829    1.8939    1.2225 C.1     1  LIG1        0.1016
     19 C           1.2621    4.8466    1.1764 C.1     1  LIG1       -0.0672
     20 C           2.1574    5.5784    1.5288 C.1     1  LIG1       -0.1138
     21 H           2.9515    6.2262    1.8223 H       1  LIG1        0.1232
     22 C          -1.6039    5.6894    0.3112 C.ar    1  LIG1        0.0457
     23 C          -1.0918    6.7986   -0.3438 C.ar    1  LIG1        0.0824
     24 C          -1.9280    7.9741   -0.2163 C.ar    1  LIG1        0.0496
     25 C          -3.0589    7.7143    0.5214 C.ar    1  LIG1       -0.0070
     26 S          -3.1240    6.0851    1.0801 S.2     1  LIG1       -0.0935
     27 H          -3.8510    8.4087    0.7616 H       1  LIG1        0.0706
     28 N           1.0470    6.7965   -1.7997 N.1     1  LIG1       -0.1908
     29 C           0.0940    6.7875   -1.1327 C.1     1  LIG1        0.1015
     30 C          -1.6210    9.2331   -0.7988 C.1     1  LIG1       -0.0678
     31 C          -1.3533   10.3016   -1.2969 C.1     1  LIG1       -0.1139
     32 H          -1.1096   11.2395   -1.7409 H       1  LIG1        0.1232
@<TRIPOS>BOND
     1    11    10    1
     2    28    29    3
     3    10     9    3
     4    32    31    1
     5    31    30    3
     6     7     8    3
     7    29    23    1
     8     9     3    1
     9     8     2    1
    10    30    24    1
    11    23    24   ar
    12    23    22   ar
    13     3     2   ar
    14     3     4   ar
    15    24    25   ar
    16     2     1   ar
    17    16    15   ar
    18    16    12   ar
    19    22    15    1
    20    22    26   ar
    21     4    12    1
    22     4     5   ar
    23    15    14   ar
    24    12    13   ar
    25     1     6    1
    26     1     5   ar
    27    25    27    1
    28    25    26   ar
    29    14    13   ar
    30    14    19    1
    31    13    18    1
    32    19    20    3
    33    18    17    3
    34    20    21    1
