@<TRIPOS>MOLECULE
mol_data/opt/b3lyp/geoms/mol2/5de5de5de-5de-.out
 42 45 0 0 0
SMALL
GASTEIGER

@<TRIPOS>ATOM
      1 C          -1.1505   -1.7749    1.8034 C.ar    1  LIG1       -0.0051
      2 C          -0.6702   -1.8791    0.5209 C.ar    1  LIG1        0.0747
      3 C          -0.3674   -0.5964   -0.0774 C.ar    1  LIG1        0.0573
      4 C          -0.6243    0.4504    0.7977 C.ar    1  LIG1        0.0438
      5 S          -1.2372   -0.1410    2.3291 S.2     1  LIG1       -0.0935
      6 H          -1.4470   -2.5827    2.4572 H       1  LIG1        0.0707
      7 N          -0.3869   -4.1470   -0.6959 N.1     1  LIG1       -0.1908
      8 C          -0.5092   -3.1253   -0.1541 C.1     1  LIG1        0.1009
      9 C           0.0821   -0.4536   -1.4139 C.1     1  LIG1       -0.0672
     10 C           0.4563   -0.3608   -2.5597 C.1     1  LIG1       -0.1138
     11 H           0.8057   -0.2783   -3.5636 H       1  LIG1        0.1232
     12 C          -0.4685    1.8781    0.5714 C.ar    1  LIG1        0.0463
     13 C           0.6309    2.5711    0.0916 C.ar    1  LIG1        0.0830
     14 C           0.4181    3.9964   -0.0139 C.ar    1  LIG1        0.0579
     15 C          -0.8463    4.3686    0.4228 C.ar    1  LIG1        0.0444
     16 S          -1.7765    2.9761    0.9251 S.2     1  LIG1       -0.0846
     17 N           2.9136    1.4888   -0.4689 N.1     1  LIG1       -0.1908
     18 C           1.8809    1.9645   -0.2242 C.1     1  LIG1        0.1016
     19 C           1.3899    4.8824   -0.5418 C.1     1  LIG1       -0.0672
     20 C           2.2304    5.6174   -1.0053 C.1     1  LIG1       -0.1138
     21 H           2.9755    6.2721   -1.3965 H       1  LIG1        0.1232
     22 C          -1.4353    5.6956    0.4656 C.ar    1  LIG1        0.0463
     23 C          -0.9126    6.8679    0.9882 C.ar    1  LIG1        0.0830
     24 C          -1.7919    8.0061    0.8523 C.ar    1  LIG1        0.0579
     25 C          -2.9834    7.6741    0.2219 C.ar    1  LIG1        0.0444
     26 S          -3.0173    5.9817   -0.2117 S.2     1  LIG1       -0.0846
     27 N           1.3197    7.0249    2.2873 N.1     1  LIG1       -0.1908
     28 C           0.3253    6.9468    1.6892 C.1     1  LIG1        0.1016
     29 C          -1.4791    9.2847    1.3786 C.1     1  LIG1       -0.0672
     30 C          -1.1912   10.3624    1.8443 C.1     1  LIG1       -0.1138
     31 H          -0.9314   11.3181    2.2388 H       1  LIG1        0.1232
     32 C          -4.1221    8.5266   -0.0748 C.ar    1  LIG1        0.0457
     33 C          -4.1478    9.7649   -0.6974 C.ar    1  LIG1        0.0824
     34 C          -5.4808   10.3182   -0.8140 C.ar    1  LIG1        0.0496
     35 C          -6.4286    9.4723   -0.2877 C.ar    1  LIG1       -0.0070
     36 S          -5.7414    8.0313    0.3619 S.2     1  LIG1       -0.0935
     37 H          -7.4960    9.6355   -0.2517 H       1  LIG1        0.0706
     38 N          -2.0835   10.9452   -1.7171 N.1     1  LIG1       -0.1908
     39 C          -3.0021   10.4106   -1.2442 C.1     1  LIG1        0.1015
     40 C          -5.7693   11.5728   -1.4152 C.1     1  LIG1       -0.0678
     41 C          -6.0075   12.6414   -1.9276 C.1     1  LIG1       -0.1139
     42 H          -6.2083   13.5844   -2.3823 H       1  LIG1        0.1232
@<TRIPOS>BOND
     1    11    10    1
     2    10     9    3
     3    42    41    1
     4    41    40    3
     5    38    39    3
     6    40    34    1
     7     9     3    1
     8    21    20    1
     9    39    33    1
    10    20    19    3
    11    34    33   ar
    12    34    35   ar
    13    33    32   ar
    14     7     8    3
    15    19    14    1
    16    17    18    3
    17    35    37    1
    18    35    36   ar
    19    18    13    1
    20    26    25   ar
    21    26    22   ar
    22     8     2    1
    23     3     2   ar
    24     3     4   ar
    25    32    25    1
    26    32    36   ar
    27    14    13   ar
    28    14    15   ar
    29    13    12   ar
    30    25    24   ar
    31    15    22    1
    32    15    16   ar
    33    22    23   ar
    34     2     1   ar
    35    12     4    1
    36    12    16   ar
    37     4     5   ar
    38    24    23   ar
    39    24    29    1
    40    23    28    1
    41    29    30    3
    42    28    27    3
    43     1     5   ar
    44     1     6    1
    45    30    31    1
