@<TRIPOS>MOLECULE
mol_data/opt/b3lyp/geoms/mol2/5de5de5de-5de.out
 42 45 0 0 0
SMALL
GASTEIGER

@<TRIPOS>ATOM
      1 C          -2.0124   -1.9173   -0.3219 C.ar    1  LIG1       -0.0051
      2 C          -0.7363   -1.9283    0.1855 C.ar    1  LIG1        0.0747
      3 C          -0.1411   -0.6108    0.2548 C.ar    1  LIG1        0.0573
      4 C          -1.0032    0.3663   -0.2261 C.ar    1  LIG1        0.0438
      5 S          -2.5255   -0.3318   -0.7433 S.2     1  LIG1       -0.0935
      6 H          -2.6633   -2.7669   -0.4710 H       1  LIG1        0.0707
      7 N           0.4448   -4.0948    0.9704 N.1     1  LIG1       -0.1908
      8 C          -0.0788   -3.1181    0.6178 C.1     1  LIG1        0.1009
      9 C           1.1425   -0.3698    0.8043 C.1     1  LIG1       -0.0672
     10 C           2.2363   -0.1897    1.2866 C.1     1  LIG1       -0.1138
     11 H           3.2077   -0.0274    1.6951 H       1  LIG1        0.1232
     12 C          -0.7904    1.8010   -0.3087 C.ar    1  LIG1        0.0463
     13 C           0.2878    2.4974   -0.8313 C.ar    1  LIG1        0.0830
     14 C           0.1518    3.9327   -0.7390 C.ar    1  LIG1        0.0579
     15 C          -1.0441    4.3061   -0.1398 C.ar    1  LIG1        0.0444
     16 S          -1.9866    2.9061    0.3158 S.2     1  LIG1       -0.0846
     17 N           2.2839    1.3988   -2.0577 N.1     1  LIG1       -0.1908
     18 C           1.3897    1.8820   -1.4926 C.1     1  LIG1        0.1016
     19 C           1.1060    4.8311   -1.2777 C.1     1  LIG1       -0.0672
     20 C           1.9289    5.5782   -1.7533 C.1     1  LIG1       -0.1138
     21 H           2.6593    6.2413   -2.1578 H       1  LIG1        0.1232
     22 C          -1.5578    5.6420    0.1028 C.ar    1  LIG1        0.0463
     23 C          -0.9262    6.7303    0.6843 C.ar    1  LIG1        0.0830
     24 C          -1.7580    7.9089    0.7638 C.ar    1  LIG1        0.0579
     25 C          -3.0239    7.6924    0.2368 C.ar    1  LIG1        0.0444
     26 S          -3.1865    6.0591   -0.3634 S.2     1  LIG1       -0.0846
     27 N           1.4350    6.6603    1.7403 N.1     1  LIG1       -0.1908
     28 C           0.3804    6.6857    1.2503 C.1     1  LIG1        0.1016
     29 C          -1.3293    9.1099    1.3828 C.1     1  LIG1       -0.0672
     30 C          -0.9416   10.1190    1.9238 C.1     1  LIG1       -0.1138
     31 H          -0.5954   11.0158    2.3847 H       1  LIG1        0.1232
     32 C          -4.1444    8.6137    0.1549 C.ar    1  LIG1        0.0457
     33 C          -4.1741    9.9137   -0.3257 C.ar    1  LIG1        0.0824
     34 C          -5.4850   10.5233   -0.2439 C.ar    1  LIG1        0.0496
     35 C          -6.4145    9.6582    0.2838 C.ar    1  LIG1       -0.0070
     36 S          -5.7339    8.1307    0.7013 S.2     1  LIG1       -0.0935
     37 H          -7.4643    9.8541    0.4475 H       1  LIG1        0.0706
     38 N          -2.1704   11.1270   -1.4244 N.1     1  LIG1       -0.1908
     39 C          -3.0603   10.5755   -0.9174 C.1     1  LIG1        0.1015
     40 C          -5.7729   11.8465   -0.6741 C.1     1  LIG1       -0.0678
     41 C          -6.0107   12.9733   -1.0414 C.1     1  LIG1       -0.1139
     42 H          -6.2114   13.9676   -1.3691 H       1  LIG1        0.1232
@<TRIPOS>BOND
     1    21    20    1
     2    17    18    3
     3    20    19    3
     4    18    13    1
     5    38    39    3
     6    42    41    1
     7    19    14    1
     8    41    40    3
     9    39    33    1
    10    13    14   ar
    11    13    12   ar
    12     5     1   ar
    13     5     4   ar
    14    14    15   ar
    15    40    34    1
    16     6     1    1
    17    26    22   ar
    18    26    25   ar
    19    33    34   ar
    20    33    32   ar
    21     1     2   ar
    22    12     4    1
    23    12    16   ar
    24    34    35   ar
    25     4     3   ar
    26    15    22    1
    27    15    16   ar
    28    22    23   ar
    29    32    25    1
    30    32    36   ar
    31     2     3   ar
    32     2     8    1
    33    25    24   ar
    34     3     9    1
    35    35    37    1
    36    35    36   ar
    37     8     7    3
    38    23    24   ar
    39    23    28    1
    40    24    29    1
    41     9    10    3
    42    28    27    3
    43    10    11    1
    44    29    30    3
    45    30    31    1
