@<TRIPOS>MOLECULE
mol_data/opt/b3lyp/geoms/mol2/5de5de.out
 22 23 0 0 0
SMALL
GASTEIGER

@<TRIPOS>ATOM
      1 C          -2.0474   -1.7373    0.6781 C.ar    1  LIG1       -0.0051
      2 C          -0.7548   -1.8416    0.2265 C.ar    1  LIG1        0.0747
      3 C          -0.1690   -0.5635   -0.1190 C.ar    1  LIG1        0.0573
      4 C          -1.0543    0.4829    0.1005 C.ar    1  LIG1        0.0438
      5 S          -2.5859   -0.1051    0.7159 S.2     1  LIG1       -0.0935
      6 H          -2.6965   -2.5421    0.9921 H       1  LIG1        0.0707
      7 N           0.4709   -4.1096   -0.0149 N.1     1  LIG1       -0.1908
      8 C          -0.0729   -3.0873    0.0932 C.1     1  LIG1        0.1009
      9 C           1.1333   -0.4317   -0.6629 C.1     1  LIG1       -0.0672
     10 C           2.2441   -0.3497   -1.1331 C.1     1  LIG1       -0.1138
     11 H           3.2305   -0.2734   -1.5299 H       1  LIG1        0.1232
     12 C          -0.8551    1.9046   -0.1323 C.ar    1  LIG1        0.0457
     13 C           0.1862    2.7204    0.2801 C.ar    1  LIG1        0.0824
     14 C           0.0421    4.0950   -0.1529 C.ar    1  LIG1        0.0496
     15 C          -1.1154    4.2816   -0.8709 C.ar    1  LIG1       -0.0070
     16 S          -2.0227    2.8269   -1.0502 S.2     1  LIG1       -0.0935
     17 H          -1.4700    5.2068   -1.3017 H       1  LIG1        0.0706
     18 N           2.1380    1.9657    1.8018 N.1     1  LIG1       -0.1908
     19 C           1.2618    2.2894    1.1086 C.1     1  LIG1        0.1015
     20 C           0.9763    5.1232    0.1454 C.1     1  LIG1       -0.0678
     21 C           1.7752    5.9934    0.4020 C.1     1  LIG1       -0.1139
     22 H           2.4846    6.7542    0.6342 H       1  LIG1        0.1232
@<TRIPOS>BOND
     1    11    10    1
     2    17    15    1
     3    10     9    3
     4    16    15   ar
     5    16    12   ar
     6    15    14   ar
     7     9     3    1
     8    14    20    1
     9    14    13   ar
    10    12     4    1
    11    12    13   ar
    12     3     4   ar
    13     3     2   ar
    14     7     8    3
    15     8     2    1
    16     4     5   ar
    17    20    21    3
    18     2     1   ar
    19    13    19    1
    20    21    22    1
    21     1     5   ar
    22     1     6    1
    23    19    18    3
