@<TRIPOS>MOLECULE
mol_data/opt/b3lyp/geoms/mol2/5de5de5de-.out
 32 34 0 0 0
SMALL
GASTEIGER

@<TRIPOS>ATOM
      1 C          -1.8150   -1.6739   -1.4390 C.ar    1  LIG1       -0.0051
      2 C          -0.8155   -1.8617   -0.5160 C.ar    1  LIG1        0.0747
      3 C          -0.2730   -0.6201   -0.0066 C.ar    1  LIG1        0.0573
      4 C          -0.8871    0.4827   -0.5846 C.ar    1  LIG1        0.0438
      5 S          -2.1186   -0.0075   -1.7306 S.2     1  LIG1       -0.0935
      6 H          -2.3748   -2.4376   -1.9598 H       1  LIG1        0.0707
      7 N          -0.0308   -4.2068    0.2513 N.1     1  LIG1       -0.1908
      8 C          -0.3768   -3.1507   -0.0910 C.1     1  LIG1        0.1009
      9 C           0.7243   -0.5675    0.9992 C.1     1  LIG1       -0.0672
     10 C           1.5690   -0.5530    1.8639 C.1     1  LIG1       -0.1138
     11 H           2.3286   -0.5383    2.6117 H       1  LIG1        0.1232
     12 C          -0.6416    1.8931   -0.3302 C.ar    1  LIG1        0.0463
     13 C           0.5589    2.5843   -0.3275 C.ar    1  LIG1        0.0830
     14 C           0.4186    3.9892   -0.0177 C.ar    1  LIG1        0.0579
     15 C          -0.9062    4.3503    0.1831 C.ar    1  LIG1        0.0444
     16 S          -1.9667    2.9704    0.0234 S.2     1  LIG1       -0.0846
     17 N           2.8514    1.5433   -0.9246 N.1     1  LIG1       -0.1908
     18 C           1.8179    1.9993   -0.6481 C.1     1  LIG1        0.1016
     19 C           1.5272    4.8653    0.0961 C.1     1  LIG1       -0.0672
     20 C           2.4904    5.5889    0.1963 C.1     1  LIG1       -0.1138
     21 H           3.3372    6.2329    0.2648 H       1  LIG1        0.1232
     22 C          -1.4512    5.6570    0.5142 C.ar    1  LIG1        0.0457
     23 C          -1.2267    6.8787   -0.1004 C.ar    1  LIG1        0.0824
     24 C          -1.9490    7.9710    0.5179 C.ar    1  LIG1        0.0496
     25 C          -2.7121    7.5387    1.5771 C.ar    1  LIG1       -0.0070
     26 S          -2.5603    5.8443    1.8529 S.2     1  LIG1       -0.0935
     27 H          -3.3509    8.1421    2.2057 H       1  LIG1        0.0706
     28 N           0.1940    7.2177   -2.2361 N.1     1  LIG1       -0.1908
     29 C          -0.4318    7.0541   -1.2693 C.1     1  LIG1        0.1015
     30 C          -1.8863    9.3180    0.0702 C.1     1  LIG1       -0.0678
     31 C          -1.8279   10.4621   -0.3157 C.1     1  LIG1       -0.1139
     32 H          -1.7711   11.4680   -0.6636 H       1  LIG1        0.1232
@<TRIPOS>BOND
     1    28    29    3
     2     6     1    1
     3     5     1   ar
     4     5     4   ar
     5     1     2   ar
     6    29    23    1
     7    17    18    3
     8    32    31    1
     9    18    13    1
    10     4    12    1
    11     4     3   ar
    12     2     8    1
    13     2     3   ar
    14    12    13   ar
    15    12    16   ar
    16    13    14   ar
    17    31    30    3
    18    23    22   ar
    19    23    24   ar
    20     8     7    3
    21    14    19    1
    22    14    15   ar
    23     3     9    1
    24    16    15   ar
    25    30    24    1
    26    19    20    3
    27    15    22    1
    28    20    21    1
    29    22    26   ar
    30    24    25   ar
    31     9    10    3
    32    25    26   ar
    33    25    27    1
    34    10    11    1
