@<TRIPOS>MOLECULE
mol_data/opt/b3lyp/geoms/mol2/5de5de-.out
 22 23 0 0 0
SMALL
GASTEIGER

@<TRIPOS>ATOM
      1 C          -2.0430   -1.7337    0.6981 C.ar    1  LIG1       -0.0051
      2 C          -0.7541   -1.8404    0.2366 C.ar    1  LIG1        0.0747
      3 C          -0.1705   -0.5640   -0.1185 C.ar    1  LIG1        0.0573
      4 C          -1.0536    0.4836    0.1035 C.ar    1  LIG1        0.0438
      5 S          -2.5806   -0.1012    0.7334 S.2     1  LIG1       -0.0935
      6 H          -2.6899   -2.5371    1.0205 H       1  LIG1        0.0707
      7 N           0.4688   -4.1100   -0.0053 N.1     1  LIG1       -0.1908
      8 C          -0.0737   -3.0870    0.1029 C.1     1  LIG1        0.1009
      9 C           1.1275   -0.4349   -0.6733 C.1     1  LIG1       -0.0672
     10 C           2.2345   -0.3552   -1.1526 C.1     1  LIG1       -0.1138
     11 H           3.2178   -0.2804   -1.5573 H       1  LIG1        0.1232
     12 C          -0.8557    1.9042   -0.1368 C.ar    1  LIG1        0.0457
     13 C           0.1890    2.7215    0.2640 C.ar    1  LIG1        0.0824
     14 C           0.0418    4.0943   -0.1735 C.ar    1  LIG1        0.0496
     15 C          -1.1211    4.2782   -0.8835 C.ar    1  LIG1       -0.0070
     16 S          -2.0299    2.8230   -1.0499 S.2     1  LIG1       -0.0935
     17 H          -1.4786    5.2017   -1.3153 H       1  LIG1        0.0706
     18 N           2.1520    1.9725    1.7742 N.1     1  LIG1       -0.1908
     19 C           1.2708    2.2936    1.0861 C.1     1  LIG1        0.1015
     20 C           0.9785    5.1236    0.1135 C.1     1  LIG1       -0.0678
     21 C           1.7796    5.9946    0.3604 C.1     1  LIG1       -0.1139
     22 H           2.4910    6.7560    0.5844 H       1  LIG1        0.1232
@<TRIPOS>BOND
     1    11    10    1
     2    17    15    1
     3    10     9    3
     4    16    15   ar
     5    16    12   ar
     6    15    14   ar
     7     9     3    1
     8    14    20    1
     9    14    13   ar
    10    12     4    1
    11    12    13   ar
    12     3     4   ar
    13     3     2   ar
    14     7     8    3
    15     8     2    1
    16     4     5   ar
    17    20    21    3
    18     2     1   ar
    19    13    19    1
    20    21    22    1
    21     1     5   ar
    22     1     6    1
    23    19    18    3
