@<TRIPOS>MOLECULE
mol_data/opt/b3lyp/geoms/mol2/5de5de-5de-5de-.out
 42 45 0 0 0
SMALL
GASTEIGER

@<TRIPOS>ATOM
      1 C          -2.0190   -1.9169    0.3036 C.ar    1  LIG1       -0.0051
      2 C          -0.7325   -1.9286   -0.1770 C.ar    1  LIG1        0.0747
      3 C          -0.1361   -0.6111   -0.2358 C.ar    1  LIG1        0.0573
      4 C          -1.0081    0.3666    0.2256 C.ar    1  LIG1        0.0438
      5 S          -2.5408   -0.3308    0.7118 S.2     1  LIG1       -0.0935
      6 H          -2.6728   -2.7664    0.4403 H       1  LIG1        0.0707
      7 N           0.4647   -4.0962   -0.9338 N.1     1  LIG1       -0.1908
      8 C          -0.0661   -3.1190   -0.5937 C.1     1  LIG1        0.1009
      9 C           1.1585   -0.3706   -0.7590 C.1     1  LIG1       -0.0672
     10 C           2.2620   -0.1908   -1.2190 C.1     1  LIG1       -0.1138
     11 H           3.2415   -0.0287   -1.6077 H       1  LIG1        0.1232
     12 C          -0.7970    1.8014    0.3101 C.ar    1  LIG1        0.0463
     13 C           0.2704    2.4984    0.8536 C.ar    1  LIG1        0.0830
     14 C           0.1366    3.9336    0.7566 C.ar    1  LIG1        0.0579
     15 C          -1.0470    4.3063    0.1328 C.ar    1  LIG1        0.0444
     16 S          -1.9802    2.9057   -0.3399 S.2     1  LIG1       -0.0846
     17 N           2.2406    1.4013    2.1226 N.1     1  LIG1       -0.1908
     18 C           1.3584    1.8839    1.5383 C.1     1  LIG1        0.1016
     19 C           1.0797    4.8327    1.3134 C.1     1  LIG1       -0.0672
     20 C           1.8926    5.5804    1.8050 C.1     1  LIG1       -0.1138
     21 H           2.6148    6.2438    2.2234 H       1  LIG1        0.1232
     22 C          -1.5555    5.6418   -0.1223 C.ar    1  LIG1        0.0463
     23 C          -0.9120    6.7294   -0.6919 C.ar    1  LIG1        0.0830
     24 C          -1.7419    7.9079   -0.7902 C.ar    1  LIG1        0.0579
     25 C          -3.0185    7.6920   -0.2892 C.ar    1  LIG1        0.0444
     26 S          -3.1936    6.0594    0.3095 S.2     1  LIG1       -0.0846
     27 N           1.4704    6.6580   -1.6990 N.1     1  LIG1       -0.1908
     28 C           0.4061    6.6841   -1.2308 C.1     1  LIG1        0.1016
     29 C          -1.3007    9.1083   -1.4015 C.1     1  LIG1       -0.0672
     30 C          -0.9018   10.1168   -1.9354 C.1     1  LIG1       -0.1138
     31 H          -0.5464   11.0132   -2.3900 H       1  LIG1        0.1232
     32 C          -4.1404    8.6135   -0.2320 C.ar    1  LIG1        0.0457
     33 C          -4.1800    9.9138    0.2471 C.ar    1  LIG1        0.0824
     34 C          -5.4888   10.5237    0.1369 C.ar    1  LIG1        0.0496
     35 C          -6.4069    9.6585   -0.4103 C.ar    1  LIG1       -0.0070
     36 S          -5.7180    8.1305   -0.8119 S.2     1  LIG1       -0.0935
     37 H          -7.4528    9.8547   -0.5968 H       1  LIG1        0.0706
     38 N          -2.1995   11.1267    1.3874 N.1     1  LIG1       -0.1908
     39 C          -3.0788   10.5755    0.8620 C.1     1  LIG1        0.1015
     40 C          -5.7855   11.8472    0.5599 C.1     1  LIG1       -0.0678
     41 C          -6.0305   12.9745    0.9210 C.1     1  LIG1       -0.1139
     42 H          -6.2377   13.9692    1.2434 H       1  LIG1        0.1232
@<TRIPOS>BOND
     1    31    30    1
     2    30    29    3
     3    27    28    3
     4    11    10    1
     5    29    24    1
     6    28    23    1
     7    10     9    3
     8     7     8    3
     9    36    35   ar
    10    36    32   ar
    11    24    23   ar
    12    24    25   ar
    13     9     3    1
    14    23    22   ar
    15    37    35    1
    16     8     2    1
    17    35    34   ar
    18    16    15   ar
    19    16    12   ar
    20    25    32    1
    21    25    26   ar
    22     3     2   ar
    23     3     4   ar
    24    32    33   ar
    25     2     1   ar
    26    22    15    1
    27    22    26   ar
    28    15    14   ar
    29    34    33   ar
    30    34    40    1
    31     4    12    1
    32     4     5   ar
    33    33    39    1
    34     1     6    1
    35     1     5   ar
    36    12    13   ar
    37    40    41    3
    38    14    13   ar
    39    14    19    1
    40    13    18    1
    41    39    38    3
    42    41    42    1
    43    19    20    3
    44    18    17    3
    45    20    21    1
