@<TRIPOS>MOLECULE
mol_data/opt/b3lyp/geoms/mol2/5de5de5de5de-.out
 42 45 0 0 0
SMALL
GASTEIGER

@<TRIPOS>ATOM
      1 C          -2.0121   -1.9170   -0.3231 C.ar    1  LIG1       -0.0051
      2 C          -0.7336   -1.9282    0.1783 C.ar    1  LIG1        0.0747
      3 C          -0.1381   -0.6107    0.2455 C.ar    1  LIG1        0.0573
      4 C          -1.0026    0.3666   -0.2307 C.ar    1  LIG1        0.0438
      5 S          -2.5274   -0.3314   -0.7409 S.2     1  LIG1       -0.0935
      6 H          -2.6636   -2.7667   -0.4695 H       1  LIG1        0.0707
      7 N           0.4514   -4.0950    0.9562 N.1     1  LIG1       -0.1908
      8 C          -0.0739   -3.1182    0.6068 C.1     1  LIG1        0.1009
      9 C           1.1479   -0.3700    0.7892 C.1     1  LIG1       -0.0672
     10 C           2.2439   -0.1902    1.2668 C.1     1  LIG1       -0.1138
     11 H           3.2170   -0.0280    1.6712 H       1  LIG1        0.1232
     12 C          -0.7905    1.8013   -0.3133 C.ar    1  LIG1        0.0463
     13 C           0.2854    2.4984   -0.8398 C.ar    1  LIG1        0.0830
     14 C           0.1492    3.9336   -0.7462 C.ar    1  LIG1        0.0579
     15 C          -1.0445    4.3063   -0.1422 C.ar    1  LIG1        0.0444
     16 S          -1.9847    2.9057    0.3164 S.2     1  LIG1       -0.0846
     17 N           2.2767    1.4013   -2.0754 N.1     1  LIG1       -0.1908
     18 C           1.3847    1.8839   -1.5061 C.1     1  LIG1        0.1016
     19 C           1.1010    4.8327   -1.2882 C.1     1  LIG1       -0.0672
     20 C           1.9217    5.5804   -1.7666 C.1     1  LIG1       -0.1138
     21 H           2.6503    6.2440   -2.1735 H       1  LIG1        0.1232
     22 C          -1.5577    5.6419    0.1031 C.ar    1  LIG1        0.0463
     23 C          -0.9242    6.7300    0.6829 C.ar    1  LIG1        0.0830
     24 C          -1.7559    7.9083    0.7662 C.ar    1  LIG1        0.0579
     25 C          -3.0236    7.6919    0.2435 C.ar    1  LIG1        0.0444
     26 S          -3.1881    6.0590   -0.3572 S.2     1  LIG1       -0.0846
     27 N           1.4408    6.6597    1.7303 N.1     1  LIG1       -0.1908
     28 C           0.3845    6.6853    1.2442 C.1     1  LIG1        0.1016
     29 C          -1.3254    9.1092    1.3843 C.1     1  LIG1       -0.0672
     30 C          -0.9360   10.1180    1.9245 C.1     1  LIG1       -0.1138
     31 H          -0.5885   11.0147    2.3848 H       1  LIG1        0.1232
     32 C          -4.1447    8.6131    0.1664 C.ar    1  LIG1        0.0457
     33 C          -4.1764    9.9132   -0.3137 C.ar    1  LIG1        0.0824
     34 C          -5.4871   10.5227   -0.2262 C.ar    1  LIG1        0.0496
     35 C          -6.4142    9.6573    0.3051 C.ar    1  LIG1       -0.0070
     36 S          -5.7319    8.1297    0.7193 S.2     1  LIG1       -0.0935
     37 H          -7.4634    9.8531    0.4733 H       1  LIG1        0.0706
     38 N          -2.1771   11.1265   -1.4202 N.1     1  LIG1       -0.1908
     39 C          -3.0651   10.5751   -0.9097 C.1     1  LIG1        0.1015
     40 C          -5.7769   11.8459   -0.6548 C.1     1  LIG1       -0.0678
     41 C          -6.0162   12.9729   -1.0208 C.1     1  LIG1       -0.1139
     42 H          -6.2183   13.9672   -1.3473 H       1  LIG1        0.1232
@<TRIPOS>BOND
     1    21    20    1
     2    17    18    3
     3    20    19    3
     4    18    13    1
     5    38    39    3
     6    42    41    1
     7    19    14    1
     8    41    40    3
     9    39    33    1
    10    13    14   ar
    11    13    12   ar
    12    14    15   ar
    13     5     1   ar
    14     5     4   ar
    15    40    34    1
    16     6     1    1
    17    26    22   ar
    18    26    25   ar
    19     1     2   ar
    20    33    34   ar
    21    33    32   ar
    22    12     4    1
    23    12    16   ar
    24     4     3   ar
    25    34    35   ar
    26    15    22    1
    27    15    16   ar
    28    22    23   ar
    29    32    25    1
    30    32    36   ar
    31     2     3   ar
    32     2     8    1
    33    25    24   ar
    34     3     9    1
    35    35    37    1
    36    35    36   ar
    37     8     7    3
    38    23    24   ar
    39    23    28    1
    40    24    29    1
    41     9    10    3
    42    28    27    3
    43    10    11    1
    44    29    30    3
    45    30    31    1
