@<TRIPOS>MOLECULE
mol_data/opt/b3lyp/geoms/mol2/5de5de-5de5de.out
 42 45 0 0 0
SMALL
GASTEIGER

@<TRIPOS>ATOM
      1 C          -2.0182   -1.9168   -0.2934 C.ar    1  LIG1       -0.0051
      2 C          -0.7332   -1.9284    0.1912 C.ar    1  LIG1        0.0747
      3 C          -0.1366   -0.6110    0.2509 C.ar    1  LIG1        0.0573
      4 C          -1.0070    0.3666   -0.2138 C.ar    1  LIG1        0.0438
      5 S          -2.5384   -0.3310   -0.7043 S.2     1  LIG1       -0.0935
      6 H          -2.6717   -2.7663   -0.4315 H       1  LIG1        0.0707
      7 N           0.4613   -4.0957    0.9533 N.1     1  LIG1       -0.1908
      8 C          -0.0683   -3.1186    0.6110 C.1     1  LIG1        0.1009
      9 C           1.1564   -0.3706    0.7780 C.1     1  LIG1       -0.0672
     10 C           2.2584   -0.1908    1.2414 C.1     1  LIG1       -0.1138
     11 H           3.2367   -0.0287    1.6331 H       1  LIG1        0.1232
     12 C          -0.7956    1.8012   -0.2989 C.ar    1  LIG1        0.0463
     13 C           0.2737    2.4979   -0.8393 C.ar    1  LIG1        0.0830
     14 C           0.1394    3.9331   -0.7438 C.ar    1  LIG1        0.0579
     15 C          -1.0462    4.3063   -0.1244 C.ar    1  LIG1        0.0444
     16 S          -1.9810    2.9060    0.3463 S.2     1  LIG1       -0.0846
     17 N           2.2481    1.3998   -2.1008 N.1     1  LIG1       -0.1908
     18 C           1.3639    1.8829   -1.5199 C.1     1  LIG1        0.1016
     19 C           1.0844    4.8320   -1.2980 C.1     1  LIG1       -0.0672
     20 C           1.8992    5.5793   -1.7870 C.1     1  LIG1       -0.1138
     21 H           2.6228    6.2426   -2.2031 H       1  LIG1        0.1232
     22 C          -1.5559    5.6420    0.1278 C.ar    1  LIG1        0.0463
     23 C          -0.9147    6.7298    0.6996 C.ar    1  LIG1        0.0830
     24 C          -1.7450    7.9084    0.7938 C.ar    1  LIG1        0.0579
     25 C          -3.0194    7.6923    0.2875 C.ar    1  LIG1        0.0444
     26 S          -3.1919    6.0594   -0.3113 S.2     1  LIG1       -0.0846
     27 N           1.4638    6.6592    1.7160 N.1     1  LIG1       -0.1908
     28 C           0.4012    6.6849    1.2437 C.1     1  LIG1        0.1016
     29 C          -1.3063    9.1089    1.4066 C.1     1  LIG1       -0.0672
     30 C          -0.9097   10.1176    1.9420 C.1     1  LIG1       -0.1138
     31 H          -0.5560   11.0140    2.3979 H       1  LIG1        0.1232
     32 C          -4.1412    8.6136    0.2251 C.ar    1  LIG1        0.0457
     33 C          -4.1791    9.9140   -0.2539 C.ar    1  LIG1        0.0824
     34 C          -5.4885   10.5234   -0.1494 C.ar    1  LIG1        0.0496
     35 C          -6.4088    9.6578    0.3933 C.ar    1  LIG1       -0.0070
     36 S          -5.7213    8.1301    0.7980 S.2     1  LIG1       -0.0935
     37 H          -7.4557    9.8536    0.5750 H       1  LIG1        0.0706
     38 N          -2.1941   11.1279   -1.3854 N.1     1  LIG1       -0.1908
     39 C          -3.0754   10.5761   -0.8639 C.1     1  LIG1        0.1015
     40 C          -5.7837   11.8469   -0.5735 C.1     1  LIG1       -0.0678
     41 C          -6.0278   12.9741   -0.9359 C.1     1  LIG1       -0.1139
     42 H          -6.2340   13.9686   -1.2593 H       1  LIG1        0.1232
@<TRIPOS>BOND
     1    21    20    1
     2    17    18    3
     3    20    19    3
     4    18    13    1
     5    38    39    3
     6    19    14    1
     7    42    41    1
     8    41    40    3
     9    39    33    1
    10    13    14   ar
    11    13    12   ar
    12    14    15   ar
    13     5     1   ar
    14     5     4   ar
    15    40    34    1
    16     6     1    1
    17    26    22   ar
    18    26    25   ar
    19    12     4    1
    20    12    16   ar
    21     1     2   ar
    22    33    34   ar
    23    33    32   ar
    24     4     3   ar
    25    34    35   ar
    26    15    22    1
    27    15    16   ar
    28    22    23   ar
    29     2     3   ar
    30     2     8    1
    31    32    25    1
    32    32    36   ar
    33     3     9    1
    34    25    24   ar
    35    35    37    1
    36    35    36   ar
    37     8     7    3
    38    23    24   ar
    39    23    28    1
    40     9    10    3
    41    24    29    1
    42    10    11    1
    43    28    27    3
    44    29    30    3
    45    30    31    1
