@<TRIPOS>MOLECULE
mol_data/opt/b3lyp/geoms/mol2/5de5de-5de5de-.out
 42 45 0 0 0
SMALL
GASTEIGER

@<TRIPOS>ATOM
      1 C          -2.0172   -1.9173   -0.2917 C.ar    1  LIG1       -0.0051
      2 C          -0.7316   -1.9281    0.1910 C.ar    1  LIG1        0.0747
      3 C          -0.1353   -0.6105    0.2484 C.ar    1  LIG1        0.0573
      4 C          -1.0066    0.3664   -0.2159 C.ar    1  LIG1        0.0438
      5 S          -2.5386   -0.3320   -0.7033 S.2     1  LIG1       -0.0935
      6 H          -2.6708   -2.7671   -0.4280 H       1  LIG1        0.0707
      7 N           0.4648   -4.0942    0.9533 N.1     1  LIG1       -0.1908
      8 C          -0.0656   -3.1177    0.6108 C.1     1  LIG1        0.1009
      9 C           1.1586   -0.3692    0.7732 C.1     1  LIG1       -0.0672
     10 C           2.2614   -0.1888    1.2345 C.1     1  LIG1       -0.1138
     11 H           3.2403   -0.0262    1.6245 H       1  LIG1        0.1232
     12 C          -0.7957    1.8010   -0.3027 C.ar    1  LIG1        0.0463
     13 C           0.2723    2.4975   -0.8458 C.ar    1  LIG1        0.0830
     14 C           0.1378    3.9328   -0.7512 C.ar    1  LIG1        0.0579
     15 C          -1.0466    4.3062   -0.1296 C.ar    1  LIG1        0.0444
     16 S          -1.9801    2.9061    0.3440 S.2     1  LIG1       -0.0846
     17 N           2.2445    1.3987   -2.1101 N.1     1  LIG1       -0.1908
     18 C           1.3613    1.8821   -1.5279 C.1     1  LIG1        0.1016
     19 C           1.0816    4.8313   -1.3081 C.1     1  LIG1       -0.0672
     20 C           1.8952    5.5784   -1.7993 C.1     1  LIG1       -0.1138
     21 H           2.6179    6.2414   -2.2176 H       1  LIG1        0.1232
     22 C          -1.5559    5.6420    0.1225 C.ar    1  LIG1        0.0463
     23 C          -0.9136    6.7304    0.6920 C.ar    1  LIG1        0.0830
     24 C          -1.7439    7.9089    0.7869 C.ar    1  LIG1        0.0579
     25 C          -3.0194    7.6923    0.2835 C.ar    1  LIG1        0.0444
     26 S          -3.1929    6.0589   -0.3135 S.2     1  LIG1       -0.0846
     27 N           1.4669    6.6608    1.7037 N.1     1  LIG1       -0.1908
     28 C           0.4034    6.6860    1.2334 C.1     1  LIG1        0.1016
     29 C          -1.3040    9.1100    1.3979 C.1     1  LIG1       -0.0672
     30 C          -0.9064   10.1191    1.9317 C.1     1  LIG1       -0.1138
     31 H          -0.5520   11.0160    2.3861 H       1  LIG1        0.1232
     32 C          -4.1414    8.6134    0.2226 C.ar    1  LIG1        0.0457
     33 C          -4.1803    9.9134   -0.2571 C.ar    1  LIG1        0.0824
     34 C          -5.4895   10.5228   -0.1506 C.ar    1  LIG1        0.0496
     35 C          -6.4088    9.6575    0.3944 C.ar    1  LIG1       -0.0070
     36 S          -5.7203    8.1301    0.7988 S.2     1  LIG1       -0.0935
     37 H          -7.4553    9.8533    0.5779 H       1  LIG1        0.0706
     38 N          -2.1977   11.1267   -1.3934 N.1     1  LIG1       -0.1908
     39 C          -3.0779   10.5753   -0.8697 C.1     1  LIG1        0.1015
     40 C          -5.7856   11.8460   -0.5750 C.1     1  LIG1       -0.0678
     41 C          -6.0304   12.9729   -0.9377 C.1     1  LIG1       -0.1139
     42 H          -6.2373   13.9672   -1.2614 H       1  LIG1        0.1232
@<TRIPOS>BOND
     1    21    20    1
     2    17    18    3
     3    20    19    3
     4    18    13    1
     5    38    39    3
     6    19    14    1
     7    42    41    1
     8    41    40    3
     9    39    33    1
    10    13    14   ar
    11    13    12   ar
    12    14    15   ar
    13     5     1   ar
    14     5     4   ar
    15    40    34    1
    16     6     1    1
    17    26    22   ar
    18    26    25   ar
    19    12     4    1
    20    12    16   ar
    21     1     2   ar
    22    33    34   ar
    23    33    32   ar
    24     4     3   ar
    25    34    35   ar
    26    15    22    1
    27    15    16   ar
    28    22    23   ar
    29     2     3   ar
    30     2     8    1
    31    32    25    1
    32    32    36   ar
    33     3     9    1
    34    25    24   ar
    35    35    37    1
    36    35    36   ar
    37     8     7    3
    38    23    24   ar
    39    23    28    1
    40     9    10    3
    41    24    29    1
    42    28    27    3
    43    10    11    1
    44    29    30    3
    45    30    31    1
