@<TRIPOS>MOLECULE
mol_data/opt/b3lyp/geoms/mol2/5de5de5de.out
 32 34 0 0 0
SMALL
GASTEIGER

@<TRIPOS>ATOM
      1 C          -1.8443   -1.6719    1.4157 C.ar    1  LIG1       -0.0051
      2 C          -0.8247   -1.8609    0.5151 C.ar    1  LIG1        0.0747
      3 C          -0.2717   -0.6200    0.0154 C.ar    1  LIG1        0.0573
      4 C          -0.8988    0.4835    0.5778 C.ar    1  LIG1        0.0438
      5 S          -2.1549   -0.0052    1.6974 S.2     1  LIG1       -0.0935
      6 H          -2.4151   -2.4349    1.9253 H       1  LIG1        0.0707
      7 N          -0.0224   -4.2071   -0.2306 N.1     1  LIG1       -0.1908
      8 C          -0.3763   -3.1505    0.1022 C.1     1  LIG1        0.1009
      9 C           0.7473   -0.5688   -0.9684 C.1     1  LIG1       -0.0672
     10 C           1.6107   -0.5555   -1.8145 C.1     1  LIG1       -0.1138
     11 H           2.3865   -0.5418   -2.5455 H       1  LIG1        0.1232
     12 C          -0.6483    1.8936    0.3265 C.ar    1  LIG1        0.0463
     13 C           0.5516    2.5853    0.3488 C.ar    1  LIG1        0.0830
     14 C           0.4178    3.9894    0.0333 C.ar    1  LIG1        0.0579
     15 C          -0.9024    4.3497   -0.1973 C.ar    1  LIG1        0.0444
     16 S          -1.9657    2.9696   -0.0584 S.2     1  LIG1       -0.0846
     17 N           2.8309    1.5465    0.9985 N.1     1  LIG1       -0.1908
     18 C           1.8035    2.0015    0.6983 C.1     1  LIG1        0.1016
     19 C           1.5282    4.8659   -0.0578 C.1     1  LIG1       -0.0672
     20 C           2.4930    5.5899   -0.1382 C.1     1  LIG1       -0.1138
     21 H           3.3407    6.2342   -0.1893 H       1  LIG1        0.1232
     22 C          -1.4406    5.6555   -0.5428 C.ar    1  LIG1        0.0457
     23 C          -1.2300    6.8786    0.0740 C.ar    1  LIG1        0.0824
     24 C          -1.9388    7.9693   -0.5623 C.ar    1  LIG1        0.0496
     25 C          -2.6782    7.5347   -1.6371 C.ar    1  LIG1       -0.0070
     26 S          -2.5199    5.8398   -1.9061 S.2     1  LIG1       -0.0935
     27 H          -3.3033    8.1366   -2.2808 H       1  LIG1        0.0706
     28 N           0.1432    7.2221    2.2399 N.1     1  LIG1       -0.1908
     29 C          -0.4611    7.0565    1.2599 C.1     1  LIG1        0.1015
     30 C          -1.8864    9.3172   -0.1160 C.1     1  LIG1       -0.0678
     31 C          -1.8368   10.4621    0.2688 C.1     1  LIG1       -0.1139
     32 H          -1.7878   11.4688    0.6158 H       1  LIG1        0.1232
@<TRIPOS>BOND
     1    11    10    1
     2    27    25    1
     3    26    25   ar
     4    26    22   ar
     5    10     9    3
     6    25    24   ar
     7     9     3    1
     8    24    30    1
     9    24    23   ar
    10    22    15    1
    11    22    23   ar
    12     7     8    3
    13    15    16   ar
    14    15    14   ar
    15    21    20    1
    16    20    19    3
    17    30    31    3
    18    16    12   ar
    19    19    14    1
    20     3     2   ar
    21     3     4   ar
    22    14    13   ar
    23    23    29    1
    24     8     2    1
    25    31    32    1
    26    12    13   ar
    27    12     4    1
    28    13    18    1
    29     2     1   ar
    30     4     5   ar
    31    18    17    3
    32    29    28    3
    33     1     5   ar
    34     1     6    1
