@<TRIPOS>MOLECULE
mol_data/opt/b3lyp/geoms/mol2/5de5de-5de-.out
 32 34 0 0 0
SMALL
GASTEIGER

@<TRIPOS>ATOM
      1 C          -1.9491   -1.8918    0.5098 C.ar    1  LIG1       -0.0051
      2 C          -0.7815   -1.8671   -0.2127 C.ar    1  LIG1        0.0747
      3 C          -0.2151   -0.5405   -0.3320 C.ar    1  LIG1        0.0573
      4 C          -0.9851    0.4065    0.3306 C.ar    1  LIG1        0.0438
      5 S          -2.3894   -0.3301    1.0772 S.2     1  LIG1       -0.0935
      6 H          -2.5593   -2.7546    0.7356 H       1  LIG1        0.0707
      7 N           0.2564   -3.9868   -1.2777 N.1     1  LIG1       -0.1908
      8 C          -0.2030   -3.0310   -0.8005 C.1     1  LIG1        0.1009
      9 C           0.9517   -0.2619   -1.0862 C.1     1  LIG1       -0.0672
     10 C           1.9436   -0.0484   -1.7435 C.1     1  LIG1       -0.1138
     11 H           2.8276    0.1428   -2.3080 H       1  LIG1        0.1232
     12 C          -0.7675    1.8393    0.4338 C.ar    1  LIG1        0.0463
     13 C           0.3809    2.5254    0.7948 C.ar    1  LIG1        0.0830
     14 C           0.2252    3.9620    0.7872 C.ar    1  LIG1        0.0579
     15 C          -1.0560    4.3470    0.4170 C.ar    1  LIG1        0.0444
     16 S          -2.0556    2.9566    0.0675 S.2     1  LIG1       -0.0846
     17 N           2.5612    1.4000    1.6169 N.1     1  LIG1       -0.1908
     18 C           1.5818    1.8957    1.2326 C.1     1  LIG1        0.1016
     19 C           1.2562    4.8480    1.1891 C.1     1  LIG1       -0.0672
     20 C           2.1493    5.5810    1.5447 C.1     1  LIG1       -0.1138
     21 H           2.9415    6.2298    1.8409 H       1  LIG1        0.1232
     22 C          -1.6086    5.6872    0.3170 C.ar    1  LIG1        0.0457
     23 C          -1.0967    6.7979   -0.3356 C.ar    1  LIG1        0.0824
     24 C          -1.9351    7.9719   -0.2089 C.ar    1  LIG1        0.0496
     25 C          -3.0674    7.7096    0.5257 C.ar    1  LIG1       -0.0070
     26 S          -3.1312    6.0797    1.0826 S.2     1  LIG1       -0.0935
     27 H          -3.8611    8.4026    0.7645 H       1  LIG1        0.0706
     28 N           1.0459    6.8002   -1.7859 N.1     1  LIG1       -0.1908
     29 C           0.0911    6.7893   -1.1214 C.1     1  LIG1        0.1015
     30 C          -1.6287    9.2320   -0.7896 C.1     1  LIG1       -0.0678
     31 C          -1.3614   10.3013   -1.2860 C.1     1  LIG1       -0.1139
     32 H          -1.1181   11.2401   -1.7283 H       1  LIG1        0.1232
@<TRIPOS>BOND
     1    11    10    1
     2    28    29    3
     3    10     9    3
     4    32    31    1
     5    31    30    3
     6     7     8    3
     7    29    23    1
     8     9     3    1
     9     8     2    1
    10    30    24    1
    11    23    24   ar
    12    23    22   ar
    13     3     2   ar
    14     3     4   ar
    15     2     1   ar
    16    24    25   ar
    17    16    15   ar
    18    16    12   ar
    19    22    15    1
    20    22    26   ar
    21     4    12    1
    22     4     5   ar
    23    15    14   ar
    24    12    13   ar
    25     1     6    1
    26     1     5   ar
    27    25    27    1
    28    25    26   ar
    29    14    13   ar
    30    14    19    1
    31    13    18    1
    32    19    20    3
    33    18    17    3
    34    20    21    1
