@<TRIPOS>MOLECULE
mol_data/opt/b3lyp/geoms/mol2/5de5de-5de-5de.out
 42 45 0 0 0
SMALL
GASTEIGER

@<TRIPOS>ATOM
      1 C          -2.0170   -1.9175    0.2980 C.ar    1  LIG1       -0.0051
      2 C          -0.7308   -1.9281   -0.1833 C.ar    1  LIG1        0.0747
      3 C          -0.1346   -0.6104   -0.2402 C.ar    1  LIG1        0.0573
      4 C          -1.0067    0.3664    0.2231 C.ar    1  LIG1        0.0438
      5 S          -2.5390   -0.3323    0.7090 S.2     1  LIG1       -0.0935
      6 H          -2.6705   -2.7674    0.4336 H       1  LIG1        0.0707
      7 N           0.4667   -4.0940   -0.9444 N.1     1  LIG1       -0.1908
      8 C          -0.0642   -3.1176   -0.6024 C.1     1  LIG1        0.1009
      9 C           1.1598   -0.3689   -0.7635 C.1     1  LIG1       -0.0672
     10 C           2.2631   -0.1883   -1.2235 C.1     1  LIG1       -0.1138
     11 H           3.2424   -0.0256   -1.6123 H       1  LIG1        0.1232
     12 C          -0.7959    1.8011    0.3101 C.ar    1  LIG1        0.0463
     13 C           0.2713    2.4976    0.8547 C.ar    1  LIG1        0.0830
     14 C           0.1369    3.9329    0.7599 C.ar    1  LIG1        0.0579
     15 C          -1.0468    4.3062    0.1368 C.ar    1  LIG1        0.0444
     16 S          -1.9795    2.9060   -0.3382 S.2     1  LIG1       -0.0846
     17 N           2.2421    1.3990    2.1214 N.1     1  LIG1       -0.1908
     18 C           1.3595    1.8823    1.5382 C.1     1  LIG1        0.1016
     19 C           1.0797    4.8315    1.3182 C.1     1  LIG1       -0.0672
     20 C           1.8926    5.5785    1.8107 C.1     1  LIG1       -0.1138
     21 H           2.6146    6.2415    2.2301 H       1  LIG1        0.1232
     22 C          -1.5557    5.6420   -0.1160 C.ar    1  LIG1        0.0463
     23 C          -0.9127    6.7304   -0.6847 C.ar    1  LIG1        0.0830
     24 C          -1.7429    7.9089   -0.7810 C.ar    1  LIG1        0.0579
     25 C          -3.0191    7.6922   -0.2795 C.ar    1  LIG1        0.0444
     26 S          -3.1934    6.0589    0.3175 S.2     1  LIG1       -0.0846
     27 N           1.4692    6.6607   -1.6930 N.1     1  LIG1       -0.1908
     28 C           0.4051    6.6860   -1.2243 C.1     1  LIG1        0.1016
     29 C          -1.3021    9.1099   -1.3914 C.1     1  LIG1       -0.0672
     30 C          -0.9036   10.1189   -1.9247 C.1     1  LIG1       -0.1138
     31 H          -0.5483   11.0156   -2.3788 H       1  LIG1        0.1232
     32 C          -4.1413    8.6132   -0.2203 C.ar    1  LIG1        0.0457
     33 C          -4.1810    9.9134    0.2590 C.ar    1  LIG1        0.0824
     34 C          -5.4902   10.5226    0.1506 C.ar    1  LIG1        0.0496
     35 C          -6.4086    9.6570   -0.3952 C.ar    1  LIG1       -0.0070
     36 S          -5.7194    8.1295   -0.7983 S.2     1  LIG1       -0.0935
     37 H          -7.4549    9.8525   -0.5801 H       1  LIG1        0.0706
     38 N          -2.2001   11.1277    1.3973 N.1     1  LIG1       -0.1908
     39 C          -3.0795   10.5757    0.8727 C.1     1  LIG1        0.1015
     40 C          -5.7871   11.8458    0.5743 C.1     1  LIG1       -0.0678
     41 C          -6.0325   12.9728    0.9363 C.1     1  LIG1       -0.1139
     42 H          -6.2400   13.9671    1.2594 H       1  LIG1        0.1232
@<TRIPOS>BOND
     1    31    30    1
     2    30    29    3
     3    27    28    3
     4    11    10    1
     5    29    24    1
     6    28    23    1
     7    10     9    3
     8     7     8    3
     9    36    35   ar
    10    36    32   ar
    11    24    23   ar
    12    24    25   ar
    13     9     3    1
    14    23    22   ar
    15     8     2    1
    16    37    35    1
    17    35    34   ar
    18    16    15   ar
    19    16    12   ar
    20    25    32    1
    21    25    26   ar
    22     3     2   ar
    23     3     4   ar
    24    32    33   ar
    25     2     1   ar
    26    22    15    1
    27    22    26   ar
    28    15    14   ar
    29    34    33   ar
    30    34    40    1
    31     4    12    1
    32     4     5   ar
    33    33    39    1
    34     1     6    1
    35     1     5   ar
    36    12    13   ar
    37    40    41    3
    38    14    13   ar
    39    14    19    1
    40    13    18    1
    41    39    38    3
    42    41    42    1
    43    19    20    3
    44    18    17    3
    45    20    21    1
