@<TRIPOS>MOLECULE
mol_data/opt/b3lyp/geoms/mol2/5df.out
 11 11 0 0 0
SMALL
GASTEIGER

@<TRIPOS>ATOM
      1 C          -2.1043   -1.7071   -0.0000 C.ar    1  LIG1       -0.0033
      2 C          -0.7286   -1.6735   -0.0003 C.ar    1  LIG1        0.1001
      3 C          -0.2173   -0.3246   -0.0002 C.ar    1  LIG1        0.1411
      4 C          -1.2121    0.6148    0.0003 C.ar    1  LIG1        0.0185
      5 S          -2.7858   -0.1277    0.0007 S.2     1  LIG1       -0.1000
      6 H          -2.7344   -2.5839   -0.0001 H       1  LIG1        0.0707
      7 H          -1.1152    1.6914    0.0005 H       1  LIG1        0.0730
      8 N           0.7635   -3.7884   -0.0011 N.1     1  LIG1       -0.1907
      9 C           0.0969   -2.8348   -0.0007 C.1     1  LIG1        0.1034
     10 O           1.1245   -0.1266   -0.0005 O.3     1  LIG1       -0.5049
     11 H           1.3139    0.8207   -0.0004 H       1  LIG1        0.2922
@<TRIPOS>BOND
     1     8     9    3
     2     9     2    1
     3    10    11    1
     4    10     3    1
     5     2     3   ar
     6     2     1   ar
     7     3     4   ar
     8     6     1    1
     9     1     5   ar
    10     4     7    1
    11     4     5   ar
