@<TRIPOS>MOLECULE
mol_data/opt/b3lyp/geoms/mol2/5df5df-5df5df.out
 38 41 0 0 0
SMALL
GASTEIGER

@<TRIPOS>ATOM
      1 C          -2.3287   -1.7188    0.1683 C.ar    1  LIG1       -0.0027
      2 C          -1.0058   -1.8877   -0.1600 C.ar    1  LIG1        0.1007
      3 C          -0.2618   -0.6532   -0.1544 C.ar    1  LIG1        0.1494
      4 C          -1.0548    0.4435    0.1807 C.ar    1  LIG1        0.0699
      5 S          -2.7089   -0.0818    0.5117 S.2     1  LIG1       -0.0910
      6 H          -3.0818   -2.4891    0.2531 H       1  LIG1        0.0708
      7 N           0.0363   -4.1892   -0.7226 N.1     1  LIG1       -0.1907
      8 C          -0.4213   -3.1500   -0.4719 C.1     1  LIG1        0.1034
      9 O           1.0218   -0.6918   -0.5380 O.3     1  LIG1       -0.5043
     10 H           1.5719   -0.0194   -0.0980 H       1  LIG1        0.2922
     11 C          -0.7574    1.8563    0.1890 C.ar    1  LIG1        0.0511
     12 C           0.4248    2.5258    0.4901 C.ar    1  LIG1        0.1090
     13 C           0.3492    3.9549    0.3627 C.ar    1  LIG1        0.1501
     14 C          -0.9139    4.3936   -0.0226 C.ar    1  LIG1        0.0705
     15 S          -1.9765    3.0085   -0.2921 S.2     1  LIG1       -0.0820
     16 N           2.5281    1.2464    1.2698 N.1     1  LIG1       -0.1907
     17 C           1.5979    1.8652    0.9353 C.1     1  LIG1        0.1040
     18 O           1.4274    4.6650    0.7229 O.3     1  LIG1       -0.5043
     19 H           1.5169    5.5006    0.2291 H       1  LIG1        0.2922
     20 C          -1.4650    5.7225   -0.1251 C.ar    1  LIG1        0.0511
     21 C          -0.8582    6.9243   -0.4791 C.ar    1  LIG1        0.1090
     22 C          -1.7320    8.0646   -0.4438 C.ar    1  LIG1        0.1501
     23 C          -3.0315    7.7345   -0.0814 C.ar    1  LIG1        0.0705
     24 S          -3.1373    6.0118    0.2865 S.2     1  LIG1       -0.0820
     25 N           1.6227    7.0053   -1.1894 N.1     1  LIG1       -0.1907
     26 C           0.4956    7.0159   -0.8891 C.1     1  LIG1        0.1040
     27 O          -1.2352    9.2425   -0.8555 O.3     1  LIG1       -0.5043
     28 H          -1.6271   10.0012   -0.3866 H       1  LIG1        0.2922
     29 C          -4.2382    8.5305   -0.0633 C.ar    1  LIG1        0.0505
     30 C          -4.4136    9.8772    0.2480 C.ar    1  LIG1        0.1084
     31 C          -5.7778   10.3190    0.1287 C.ar    1  LIG1        0.1418
     32 C          -6.6271    9.3167   -0.2454 C.ar    1  LIG1        0.0191
     33 S          -5.7755    7.8211   -0.4980 S.2     1  LIG1       -0.0910
     34 H          -7.6973    9.3628   -0.3872 H       1  LIG1        0.0731
     35 N          -2.4307   11.3503    0.9968 N.1     1  LIG1       -0.1907
     36 C          -3.3568   10.7167    0.6771 C.1     1  LIG1        0.1040
     37 O          -6.0684   11.6123    0.4054 O.3     1  LIG1       -0.5049
     38 H          -7.0160   11.7683    0.2985 H       1  LIG1        0.2922
@<TRIPOS>BOND
     1    25    26    3
     2    26    21    1
     3    27    22    1
     4    27    28    1
     5     7     8    3
     6     9     3    1
     7     9    10    1
     8    33    32   ar
     9    33    29   ar
    10    21    22   ar
    11    21    20   ar
    12     8     2    1
    13    22    23   ar
    14    34    32    1
    15    15    14   ar
    16    15    11   ar
    17    32    31   ar
    18     2     3   ar
    19     2     1   ar
    20     3     4   ar
    21    20    14    1
    22    20    24   ar
    23    23    29    1
    24    23    24   ar
    25    29    30   ar
    26    14    13   ar
    27    31    30   ar
    28    31    37    1
    29     1     6    1
    30     1     5   ar
    31     4    11    1
    32     4     5   ar
    33    11    12   ar
    34    19    18    1
    35    30    36    1
    36    38    37    1
    37    13    12   ar
    38    13    18    1
    39    12    17    1
    40    36    35    3
    41    17    16    3
