@<TRIPOS>MOLECULE
mol_data/opt/b3lyp/geoms/mol2/5df5df-5df-.out
 29 31 0 0 0
SMALL
GASTEIGER

@<TRIPOS>ATOM
      1 C          -2.1765   -1.7923   -0.1304 C.ar    1  LIG1       -0.0027
      2 C          -0.8626   -1.8762    0.2611 C.ar    1  LIG1        0.1007
      3 C          -0.1881   -0.6023    0.2471 C.ar    1  LIG1        0.1494
      4 C          -1.0229    0.4367   -0.1593 C.ar    1  LIG1        0.0699
      5 S          -2.6285   -0.1902   -0.5456 S.2     1  LIG1       -0.0910
      6 H          -2.8822   -2.6056   -0.2213 H       1  LIG1        0.0708
      7 N           0.2769   -4.0970    0.9457 N.1     1  LIG1       -0.1907
      8 C          -0.2249   -3.0933    0.6406 C.1     1  LIG1        0.1034
      9 O           1.0775   -0.5551    0.6883 O.3     1  LIG1       -0.5043
     10 H           1.6091    0.1290    0.2439 H       1  LIG1        0.2922
     11 C          -0.8010    1.8635   -0.2047 C.ar    1  LIG1        0.0511
     12 C           0.3543    2.5863   -0.4838 C.ar    1  LIG1        0.1090
     13 C           0.1958    4.0131   -0.4094 C.ar    1  LIG1        0.1501
     14 C          -1.1012    4.3931   -0.0899 C.ar    1  LIG1        0.0705
     15 S          -2.0972    2.9638    0.1902 S.2     1  LIG1       -0.0820
     16 N           2.5544    1.3994   -1.1319 N.1     1  LIG1       -0.1907
     17 C           1.5787    1.9765   -0.8577 C.1     1  LIG1        0.1040
     18 O           1.2471    4.7760   -0.7518 O.3     1  LIG1       -0.5043
     19 H           1.2861    5.6099   -0.2499 H       1  LIG1        0.2922
     20 C          -1.7218    5.6985   -0.0550 C.ar    1  LIG1        0.0505
     21 C          -1.1890    6.9301    0.3202 C.ar    1  LIG1        0.1084
     22 C          -2.1224    8.0184    0.1974 C.ar    1  LIG1        0.1418
     23 C          -3.3506    7.6144   -0.2426 C.ar    1  LIG1        0.0191
     24 S          -3.3843    5.9032   -0.5541 S.2     1  LIG1       -0.0910
     25 H          -4.2359    8.2131   -0.4024 H       1  LIG1        0.0731
     26 N           1.2356    7.1381    1.1810 N.1     1  LIG1       -0.1907
     27 C           0.1300    7.0860    0.8116 C.1     1  LIG1        0.1040
     28 O          -1.7143    9.2655    0.5330 O.3     1  LIG1       -0.5049
     29 H          -2.4403    9.8926    0.4169 H       1  LIG1        0.2922
@<TRIPOS>BOND
     1    16    17    3
     2    17    12    1
     3    18    13    1
     4    18    19    1
     5    24    23   ar
     6    24    20   ar
     7     5     4   ar
     8     5     1   ar
     9    12    13   ar
    10    12    11   ar
    11    13    14   ar
    12    25    23    1
    13    23    22   ar
    14     6     1    1
    15    11     4    1
    16    11    15   ar
    17     4     3   ar
    18     1     2   ar
    19    14    20    1
    20    14    15   ar
    21    20    21   ar
    22    22    21   ar
    23    22    28    1
    24    10     9    1
    25     3     2   ar
    26     3     9    1
    27     2     8    1
    28    21    27    1
    29    29    28    1
    30     8     7    3
    31    27    26    3
