@<TRIPOS>MOLECULE
mol_data/opt/b3lyp/geoms/mol2/5df5df.out
 20 21 0 0 0
SMALL
GASTEIGER

@<TRIPOS>ATOM
      1 C          -2.0850   -1.7751    0.3935 C.ar    1  LIG1       -0.0027
      2 C          -0.7859   -1.8224   -0.0500 C.ar    1  LIG1        0.1007
      3 C          -0.1938   -0.5162   -0.1988 C.ar    1  LIG1        0.1494
      4 C          -1.0733    0.5076    0.1365 C.ar    1  LIG1        0.0699
      5 S          -2.6164   -0.1655    0.6644 S.2     1  LIG1       -0.0911
      6 H          -2.7350   -2.6133    0.5998 H       1  LIG1        0.0708
      7 N           0.4628   -4.0318   -0.5588 N.1     1  LIG1       -0.1907
      8 C          -0.0889   -3.0331   -0.3337 C.1     1  LIG1        0.1034
      9 O           1.0498   -0.4349   -0.7028 O.3     1  LIG1       -0.5043
     10 H           1.5627    0.2958   -0.3151 H       1  LIG1        0.2922
     11 C          -0.9320    1.9440    0.0218 C.ar    1  LIG1        0.0504
     12 C           0.1892    2.7475    0.2108 C.ar    1  LIG1        0.1084
     13 C          -0.0633    4.1458   -0.0188 C.ar    1  LIG1        0.1418
     14 C          -1.3617    4.4000   -0.3569 C.ar    1  LIG1        0.0191
     15 S          -2.2948    2.9341   -0.4420 S.2     1  LIG1       -0.0910
     16 H          -1.8270    5.3538   -0.5609 H       1  LIG1        0.0731
     17 N           2.4573    1.7525    0.9400 N.1     1  LIG1       -0.1907
     18 C           1.4458    2.2414    0.6253 C.1     1  LIG1        0.1040
     19 O           0.9560    5.0250    0.1358 O.3     1  LIG1       -0.5049
     20 H           0.6455    5.9227   -0.0409 H       1  LIG1        0.2922
@<TRIPOS>BOND
     1     9    10    1
     2     9     3    1
     3    16    14    1
     4     7     8    3
     5    15    14   ar
     6    15    11   ar
     7    14    13   ar
     8     8     2    1
     9     3     2   ar
    10     3     4   ar
    11     2     1   ar
    12    20    19    1
    13    13    19    1
    14    13    12   ar
    15    11     4    1
    16    11    12   ar
    17     4     5   ar
    18    12    18    1
    19     1     6    1
    20     1     5   ar
    21    18    17    3
