@<TRIPOS>MOLECULE
mol_data/opt/b3lyp/geoms/mol2/5df5df5df5df-.out
 38 41 0 0 0
SMALL
GASTEIGER

@<TRIPOS>ATOM
      1 C          -2.3199   -1.7188    0.1797 C.ar    1  LIG1       -0.0027
      2 C          -0.9964   -1.8878   -0.1462 C.ar    1  LIG1        0.1007
      3 C          -0.2541   -0.6522   -0.1468 C.ar    1  LIG1        0.1494
      4 C          -1.0490    0.4453    0.1812 C.ar    1  LIG1        0.0699
      5 S          -2.7028   -0.0804    0.5133 S.2     1  LIG1       -0.0910
      6 H          -3.0720   -2.4897    0.2679 H       1  LIG1        0.0708
      7 N           0.0496   -4.1909   -0.6946 N.1     1  LIG1       -0.1907
      8 C          -0.4097   -3.1509   -0.4503 C.1     1  LIG1        0.1034
      9 O           1.0300   -0.6912   -0.5288 O.3     1  LIG1       -0.5043
     10 H           1.5788   -0.0158   -0.0919 H       1  LIG1        0.2922
     11 C          -0.7535    1.8586    0.1824 C.ar    1  LIG1        0.0511
     12 C           0.4274    2.5314    0.4811 C.ar    1  LIG1        0.1090
     13 C           0.3498    3.9597    0.3463 C.ar    1  LIG1        0.1501
     14 C          -0.9136    4.3945   -0.0423 C.ar    1  LIG1        0.0705
     15 S          -1.9739    3.0065   -0.3057 S.2     1  LIG1       -0.0820
     16 N           2.5323    1.2597    1.2692 N.1     1  LIG1       -0.1907
     17 C           1.6013    1.8750    0.9307 C.1     1  LIG1        0.1040
     18 O           1.4265    4.6734    0.7041 O.3     1  LIG1       -0.5043
     19 H           1.5158    5.5059    0.2051 H       1  LIG1        0.2922
     20 C          -1.4663    5.7221   -0.1525 C.ar    1  LIG1        0.0511
     21 C          -0.8607    6.9227   -0.5126 C.ar    1  LIG1        0.1090
     22 C          -1.7359    8.0620   -0.4845 C.ar    1  LIG1        0.1501
     23 C          -3.0354    7.7324   -0.1215 C.ar    1  LIG1        0.0705
     24 S          -3.1394    6.0116    0.2559 S.2     1  LIG1       -0.0820
     25 N           1.6207    7.0028   -1.2212 N.1     1  LIG1       -0.1907
     26 C           0.4933    7.0136   -0.9220 C.1     1  LIG1        0.1040
     27 O          -1.2403    9.2383   -0.9025 O.3     1  LIG1       -0.5043
     28 H          -1.6328    9.9991   -0.4375 H       1  LIG1        0.2922
     29 C          -4.2430    8.5271   -0.1084 C.ar    1  LIG1        0.0505
     30 C          -4.4201    9.8754    0.1951 C.ar    1  LIG1        0.1084
     31 C          -5.7848   10.3148    0.0727 C.ar    1  LIG1        0.1418
     32 C          -6.6328    9.3094   -0.2958 C.ar    1  LIG1        0.0191
     33 S          -5.7793    7.8134   -0.5393 S.2     1  LIG1       -0.0910
     34 H          -7.7030    9.3534   -0.4382 H       1  LIG1        0.0731
     35 N          -2.4395   11.3554    0.9365 N.1     1  LIG1       -0.1907
     36 C          -3.3646   10.7187    0.6199 C.1     1  LIG1        0.1040
     37 O          -6.0769   11.6094    0.3418 O.3     1  LIG1       -0.5049
     38 H          -7.0248   11.7635    0.2344 H       1  LIG1        0.2922
@<TRIPOS>BOND
     1    25    26    3
     2    26    21    1
     3    27    22    1
     4    27    28    1
     5     7     8    3
     6    33    32   ar
     7    33    29   ar
     8     9     3    1
     9     9    10    1
    10    21    22   ar
    11    21    20   ar
    12    22    23   ar
    13     8     2    1
    14    34    32    1
    15    15    14   ar
    16    15    11   ar
    17    32    31   ar
    18    20    14    1
    19    20    24   ar
    20     3     2   ar
    21     3     4   ar
    22     2     1   ar
    23    23    29    1
    24    23    24   ar
    25    29    30   ar
    26    14    13   ar
    27    31    30   ar
    28    31    37    1
    29     1     6    1
    30     1     5   ar
    31     4    11    1
    32     4     5   ar
    33    11    12   ar
    34    30    36    1
    35    19    18    1
    36    38    37    1
    37    13    12   ar
    38    13    18    1
    39    12    17    1
    40    36    35    3
    41    17    16    3
