@<TRIPOS>MOLECULE
mol_data/opt/b3lyp/geoms/mol2/5df5df-5df5df-.out
 38 41 0 0 0
SMALL
GASTEIGER

@<TRIPOS>ATOM
      1 C          -2.5829   -1.5334    0.0002 C.ar    1  LIG1       -0.0027
      2 C          -1.2546   -1.8719   -0.0003 C.ar    1  LIG1        0.1007
      3 C          -0.3759   -0.7272   -0.0000 C.ar    1  LIG1        0.1494
      4 C          -1.0728    0.4879    0.0007 C.ar    1  LIG1        0.0699
      5 S          -2.8197    0.1619    0.0011 S.2     1  LIG1       -0.0910
      6 H          -3.4278   -2.2074    0.0002 H       1  LIG1        0.0708
      7 N          -0.4157   -4.3201   -0.0016 N.1     1  LIG1       -0.1907
      8 C          -0.7792   -3.2155   -0.0010 C.1     1  LIG1        0.1034
      9 O           0.9286   -0.9990   -0.0005 O.3     1  LIG1       -0.5043
     10 H           1.5127   -0.2196   -0.0003 H       1  LIG1        0.2922
     11 C          -0.6551    1.8714    0.0012 C.ar    1  LIG1        0.0511
     12 C           0.5967    2.4886    0.0012 C.ar    1  LIG1        0.1090
     13 C           0.5634    3.9272    0.0018 C.ar    1  LIG1        0.1501
     14 C          -0.7295    4.4514    0.0024 C.ar    1  LIG1        0.0705
     15 S          -1.8887    3.1095    0.0021 S.2     1  LIG1       -0.0820
     16 N           2.8713    1.2621   -0.0000 N.1     1  LIG1       -0.1907
     17 C           1.8500    1.8254    0.0005 C.1     1  LIG1        0.1040
     18 O           1.7565    4.5231    0.0018 O.3     1  LIG1       -0.5043
     19 H           1.7318    5.4975    0.0021 H       1  LIG1        0.2922
     20 C          -1.2638    5.7905    0.0032 C.ar    1  LIG1        0.0511
     21 C          -0.6687    7.0535    0.0035 C.ar    1  LIG1        0.1090
     22 C          -1.5926    8.1572    0.0044 C.ar    1  LIG1        0.1501
     23 C          -2.9279    7.7635    0.0049 C.ar    1  LIG1        0.0705
     24 S          -3.0003    5.9923    0.0041 S.2     1  LIG1       -0.0820
     25 N           1.8770    7.4941    0.0023 N.1     1  LIG1       -0.1907
     26 C           0.7248    7.3105    0.0029 C.1     1  LIG1        0.1040
     27 O          -1.0301    9.3696    0.0047 O.3     1  LIG1       -0.5043
     28 H          -1.6591   10.1129    0.0050 H       1  LIG1        0.2922
     29 C          -4.1842    8.4815    0.0059 C.ar    1  LIG1        0.0505
     30 C          -4.4967    9.8457    0.0062 C.ar    1  LIG1        0.1084
     31 C          -5.9128   10.1126    0.0073 C.ar    1  LIG1        0.1418
     32 C          -6.6736    8.9815    0.0079 C.ar    1  LIG1        0.0191
     33 S          -5.6766    7.5587    0.0071 S.2     1  LIG1       -0.0910
     34 H          -7.7501    8.8906    0.0087 H       1  LIG1        0.0731
     35 N          -2.7967   11.7902    0.0046 N.1     1  LIG1       -0.1907
     36 C          -3.5697   10.9157    0.0053 C.1     1  LIG1        0.1040
     37 O          -6.3239   11.4035    0.0077 O.3     1  LIG1       -0.5049
     38 H          -7.2894   11.4415    0.0083 H       1  LIG1        0.2922
@<TRIPOS>BOND
     1     7     8    3
     2     8     2    1
     3     9    10    1
     4     9     3    1
     5     2     3   ar
     6     2     1   ar
     7    16    17    3
     8     3     4   ar
     9     6     1    1
    10     1     5   ar
    11    17    12    1
    12     4     5   ar
    13     4    11    1
    14    12    11   ar
    15    12    13   ar
    16    11    15   ar
    17    18    13    1
    18    18    19    1
    19    13    14   ar
    20    15    14   ar
    21    25    26    3
    22    14    20    1
    23    26    21    1
    24    20    21   ar
    25    20    24   ar
    26    21    22   ar
    27    24    23   ar
    28    22    27    1
    29    22    23   ar
    30    35    36    3
    31    27    28    1
    32    23    29    1
    33    36    30    1
    34    29    30   ar
    35    29    33   ar
    36    30    31   ar
    37    33    32   ar
    38    31    37    1
    39    31    32   ar
    40    37    38    1
    41    32    34    1
