@<TRIPOS>MOLECULE
mol_data/opt/b3lyp/geoms/mol2/5df5df-5df.out
 29 31 0 0 0
SMALL
GASTEIGER

@<TRIPOS>ATOM
      1 C          -2.3210   -1.7193   -0.0000 C.ar    1  LIG1       -0.0027
      2 C          -0.9678   -1.9375   -0.0004 C.ar    1  LIG1        0.1007
      3 C          -0.1947   -0.7189   -0.0000 C.ar    1  LIG1        0.1494
      4 C          -0.9963    0.4286    0.0006 C.ar    1  LIG1        0.0699
      5 S          -2.7071   -0.0516    0.0008 S.2     1  LIG1       -0.0910
      6 H          -3.1022   -2.4656   -0.0002 H       1  LIG1        0.0708
      7 N           0.0852   -4.3018   -0.0015 N.1     1  LIG1       -0.1907
      8 C          -0.3748   -3.2338   -0.0010 C.1     1  LIG1        0.1034
      9 O           1.1299   -0.8736   -0.0004 O.3     1  LIG1       -0.5043
     10 H           1.6414   -0.0450   -0.0001 H       1  LIG1        0.2922
     11 C          -0.7031    1.8453    0.0012 C.ar    1  LIG1        0.0511
     12 C           0.4871    2.5723    0.0011 C.ar    1  LIG1        0.1090
     13 C           0.3230    4.0034    0.0018 C.ar    1  LIG1        0.1501
     14 C          -1.0083    4.4085    0.0024 C.ar    1  LIG1        0.0705
     15 S          -2.0420    2.9691    0.0021 S.2     1  LIG1       -0.0820
     16 N           2.8631    1.5560    0.0000 N.1     1  LIG1       -0.1907
     17 C           1.7950    2.0248    0.0005 C.1     1  LIG1        0.1040
     18 O           1.4599    4.7061    0.0018 O.3     1  LIG1       -0.5043
     19 H           1.3433    5.6727    0.0022 H       1  LIG1        0.2922
     20 C          -1.6628    5.6996    0.0033 C.ar    1  LIG1        0.0505
     21 C          -1.1733    7.0107    0.0035 C.ar    1  LIG1        0.1084
     22 C          -2.2090    8.0125    0.0044 C.ar    1  LIG1        0.1418
     23 C          -3.4666    7.4868    0.0049 C.ar    1  LIG1        0.0191
     24 S          -3.4167    5.7499    0.0043 S.2     1  LIG1       -0.0910
     25 H          -4.4153    8.0032    0.0057 H       1  LIG1        0.0731
     26 N           1.3156    7.7018    0.0023 N.1     1  LIG1       -0.1907
     27 C           0.1896    7.3946    0.0028 C.1     1  LIG1        0.1040
     28 O          -1.8419    9.3170    0.0047 O.3     1  LIG1       -0.5049
     29 H          -2.6274    9.8797    0.0052 H       1  LIG1        0.2922
@<TRIPOS>BOND
     1     7     8    3
     2     8     2    1
     3     2     3   ar
     4     2     1   ar
     5     9    10    1
     6     9     3    1
     7     6     1    1
     8     3     4   ar
     9     1     5   ar
    10    16    17    3
    11    17    12    1
    12     4     5   ar
    13     4    11    1
    14    12    11   ar
    15    12    13   ar
    16    11    15   ar
    17    13    18    1
    18    13    14   ar
    19    18    19    1
    20    15    14   ar
    21    26    27    3
    22    14    20    1
    23    27    21    1
    24    20    21   ar
    25    20    24   ar
    26    21    22   ar
    27    24    23   ar
    28    22    28    1
    29    22    23   ar
    30    28    29    1
    31    23    25    1
