@<TRIPOS>MOLECULE
mol_data/opt/b3lyp/geoms/mol2/5df5df-5df-5df.out
 38 41 0 0 0
SMALL
GASTEIGER

@<TRIPOS>ATOM
      1 C          -2.5831   -1.5315    0.0479 C.ar    1  LIG1       -0.0027
      2 C          -1.2554   -1.8707    0.0147 C.ar    1  LIG1        0.1007
      3 C          -0.3765   -0.7264   -0.0051 C.ar    1  LIG1        0.1494
      4 C          -1.0727    0.4889    0.0141 C.ar    1  LIG1        0.0699
      5 S          -2.8191    0.1638    0.0562 S.2     1  LIG1       -0.0910
      6 H          -3.4279   -2.2050    0.0678 H       1  LIG1        0.0708
      7 N          -0.4166   -4.3188   -0.0100 N.1     1  LIG1       -0.1907
      8 C          -0.7807   -3.2144    0.0008 C.1     1  LIG1        0.1034
      9 O           0.9276   -0.9985   -0.0375 O.3     1  LIG1       -0.5043
     10 H           1.5123   -0.2198   -0.0511 H       1  LIG1        0.2922
     11 C          -0.6548    1.8723    0.0061 C.ar    1  LIG1        0.0511
     12 C           0.5968    2.4892   -0.0246 C.ar    1  LIG1        0.1090
     13 C           0.5636    3.9278   -0.0204 C.ar    1  LIG1        0.1501
     14 C          -0.7290    4.4516    0.0139 C.ar    1  LIG1        0.0705
     15 S          -1.8879    3.1102    0.0453 S.2     1  LIG1       -0.0820
     16 N           2.8703    1.2626   -0.0896 N.1     1  LIG1       -0.1907
     17 C           1.8496    1.8264   -0.0604 C.1     1  LIG1        0.1040
     18 O           1.7562    4.5238   -0.0596 O.3     1  LIG1       -0.5043
     19 H           1.7333    5.4975   -0.0271 H       1  LIG1        0.2922
     20 C          -1.2635    5.7905    0.0191 C.ar    1  LIG1        0.0511
     21 C          -0.6685    7.0531    0.0488 C.ar    1  LIG1        0.1090
     22 C          -1.5922    8.1570    0.0369 C.ar    1  LIG1        0.1501
     23 C          -2.9270    7.7629    0.0009 C.ar    1  LIG1        0.0705
     24 S          -2.9993    5.9919   -0.0236 S.2     1  LIG1       -0.0820
     25 N           1.8760    7.4888    0.1464 N.1     1  LIG1       -0.1907
     26 C           0.7240    7.3095    0.1021 C.1     1  LIG1        0.1040
     27 O          -1.0303    9.3694    0.0624 O.3     1  LIG1       -0.5043
     28 H          -1.6589   10.1130    0.0660 H       1  LIG1        0.2922
     29 C          -4.1832    8.4808   -0.0227 C.ar    1  LIG1        0.0505
     30 C          -4.4965    9.8446    0.0015 C.ar    1  LIG1        0.1084
     31 C          -5.9121   10.1115   -0.0402 C.ar    1  LIG1        0.1418
     32 C          -6.6716    8.9808   -0.0942 C.ar    1  LIG1        0.0191
     33 S          -5.6740    7.5587   -0.0976 S.2     1  LIG1       -0.0910
     34 H          -7.7473    8.8898   -0.1325 H       1  LIG1        0.0731
     35 N          -2.8022   11.7904    0.1178 N.1     1  LIG1       -0.1907
     36 C          -3.5710   10.9139    0.0652 C.1     1  LIG1        0.1040
     37 O          -6.3243   11.4019   -0.0212 O.3     1  LIG1       -0.5049
     38 H          -7.2893   11.4400   -0.0504 H       1  LIG1        0.2922
@<TRIPOS>BOND
     1    34    32    1
     2    33    32   ar
     3    33    29   ar
     4    32    31   ar
     5    16    17    3
     6    17    12    1
     7    18    19    1
     8    18    13    1
     9    10     9    1
    10    38    37    1
    11    31    37    1
    12    31    30   ar
    13     9     3    1
    14    12    13   ar
    15    12    11   ar
    16    24    23   ar
    17    24    20   ar
    18    29    23    1
    19    29    30   ar
    20    13    14   ar
    21     7     8    3
    22     3     4   ar
    23     3     2   ar
    24     8     2    1
    25    23    22   ar
    26    30    36    1
    27    11     4    1
    28    11    15   ar
    29    14    20    1
    30    14    15   ar
    31     4     5   ar
    32     2     1   ar
    33    20    21   ar
    34    22    21   ar
    35    22    27    1
    36     1     5   ar
    37     1     6    1
    38    21    26    1
    39    27    28    1
    40    36    35    3
    41    26    25    3
