@<TRIPOS>MOLECULE
mol_data/opt/b3lyp/geoms/mol2/5df5df-.out
 20 21 0 0 0
SMALL
GASTEIGER

@<TRIPOS>ATOM
      1 C          -2.0821   -1.7749    0.4000 C.ar    1  LIG1       -0.0027
      2 C          -0.7867   -1.8223   -0.0542 C.ar    1  LIG1        0.1007
      3 C          -0.1956   -0.5162   -0.2079 C.ar    1  LIG1        0.1494
      4 C          -1.0723    0.5077    0.1346 C.ar    1  LIG1        0.0699
      5 S          -2.6110   -0.1653    0.6756 S.2     1  LIG1       -0.0911
      6 H          -2.7304   -2.6131    0.6113 H       1  LIG1        0.0708
      7 N           0.4573   -4.0321   -0.5738 N.1     1  LIG1       -0.1907
      8 C          -0.0923   -3.0333   -0.3440 C.1     1  LIG1        0.1034
      9 O           1.0439   -0.4352   -0.7221 O.3     1  LIG1       -0.5043
     10 H           1.5602    0.2953   -0.3386 H       1  LIG1        0.2922
     11 C          -0.9318    1.9442    0.0198 C.ar    1  LIG1        0.0504
     12 C           0.1911    2.7476    0.1999 C.ar    1  LIG1        0.1084
     13 C          -0.0631    4.1460   -0.0267 C.ar    1  LIG1        0.1418
     14 C          -1.3643    4.4006   -0.3539 C.ar    1  LIG1        0.0191
     15 S          -2.2982    2.9348   -0.4324 S.2     1  LIG1       -0.0910
     16 H          -1.8310    5.3546   -0.5533 H       1  LIG1        0.0731
     17 N           2.4648    1.7510    0.9098 N.1     1  LIG1       -0.1907
     18 C           1.4511    2.2407    0.6036 C.1     1  LIG1        0.1040
     19 O           0.9575    5.0251    0.1200 O.3     1  LIG1       -0.5049
     20 H           0.6455    5.9230   -0.0533 H       1  LIG1        0.2922
@<TRIPOS>BOND
     1     9    10    1
     2     9     3    1
     3     7     8    3
     4    16    14    1
     5    15    14   ar
     6    15    11   ar
     7    14    13   ar
     8     8     2    1
     9     3     2   ar
    10     3     4   ar
    11     2     1   ar
    12    20    19    1
    13    13    19    1
    14    13    12   ar
    15    11     4    1
    16    11    12   ar
    17     4     5   ar
    18    12    18    1
    19     1     6    1
    20     1     5   ar
    21    18    17    3
