@<TRIPOS>MOLECULE
mol_data/opt/b3lyp/geoms/mol2/5df5df5df-5df-.out
 38 41 0 0 0
SMALL
GASTEIGER

@<TRIPOS>ATOM
      1 C          -2.0678   -1.7213    0.8895 C.ar    1  LIG1       -0.0027
      2 C          -1.0761   -1.8652   -0.0495 C.ar    1  LIG1        0.1007
      3 C          -0.4159   -0.6235   -0.3666 C.ar    1  LIG1        0.1494
      4 C          -0.9367    0.4529    0.3495 C.ar    1  LIG1        0.0699
      5 S          -2.2198   -0.0998    1.4299 S.2     1  LIG1       -0.0910
      6 H          -2.6877   -2.5016    1.3074 H       1  LIG1        0.0708
      7 N          -0.4577   -4.1349   -1.1288 N.1     1  LIG1       -0.1907
      8 C          -0.7271   -3.1099   -0.6504 C.1     1  LIG1        0.1034
      9 O           0.5150   -0.6345   -1.3317 O.3     1  LIG1       -0.5043
     10 H           1.2234    0.0173   -1.1842 H       1  LIG1        0.2922
     11 C          -0.6639    1.8680    0.2509 C.ar    1  LIG1        0.0511
     12 C           0.5252    2.5356   -0.0261 C.ar    1  LIG1        0.1090
     13 C           0.4145    3.9679   -0.0416 C.ar    1  LIG1        0.1501
     14 C          -0.8715    4.4111    0.2498 C.ar    1  LIG1        0.0705
     15 S          -1.9375    3.0280    0.5249 S.2     1  LIG1       -0.0820
     16 N           2.7294    1.2456   -0.4075 N.1     1  LIG1       -0.1907
     17 C           1.7599    1.8688   -0.2297 C.1     1  LIG1        0.1040
     18 O           1.5044    4.6682   -0.3865 O.3     1  LIG1       -0.5043
     19 H           1.5551    5.5373    0.0514 H       1  LIG1        0.2922
     20 C          -1.4412    5.7364    0.2510 C.ar    1  LIG1        0.0511
     21 C          -0.8656    6.9644    0.5649 C.ar    1  LIG1        0.1090
     22 C          -1.7501    8.0885    0.4272 C.ar    1  LIG1        0.1501
     23 C          -3.0274    7.7206    0.0242 C.ar    1  LIG1        0.0705
     24 S          -3.0945    5.9801   -0.2553 S.2     1  LIG1       -0.0820
     25 N           1.5767    7.1238    1.3875 N.1     1  LIG1       -0.1907
     26 C           0.4656    7.0988    1.0332 C.1     1  LIG1        0.1040
     27 O          -1.2883    9.2942    0.7976 O.3     1  LIG1       -0.5043
     28 H          -1.6604   10.0200    0.2647 H       1  LIG1        0.2922
     29 C          -4.2407    8.4976   -0.0959 C.ar    1  LIG1        0.0505
     30 C          -4.4157    9.8223   -0.4908 C.ar    1  LIG1        0.1084
     31 C          -5.7890   10.2506   -0.4634 C.ar    1  LIG1        0.1418
     32 C          -6.6443    9.2588   -0.0752 C.ar    1  LIG1        0.0191
     33 S          -5.7892    7.7920    0.3028 S.2     1  LIG1       -0.0910
     34 H          -7.7205    9.2976    0.0114 H       1  LIG1        0.0731
     35 N          -2.4146   11.2780   -1.2251 N.1     1  LIG1       -0.1907
     36 C          -3.3485   10.6510   -0.9151 C.1     1  LIG1        0.1040
     37 O          -6.0804   11.5222   -0.8266 O.3     1  LIG1       -0.5049
     38 H          -7.0341   11.6696   -0.7776 H       1  LIG1        0.2922
@<TRIPOS>BOND
     1     9    10    1
     2     9     3    1
     3    35    36    3
     4     7     8    3
     5    36    30    1
     6    37    38    1
     7    37    31    1
     8     8     2    1
     9    30    31   ar
    10    30    29   ar
    11    31    32   ar
    12    16    17    3
    13    18    13    1
    14    18    19    1
    15     3     2   ar
    16     3     4   ar
    17    24    23   ar
    18    24    20   ar
    19    17    12    1
    20    29    23    1
    21    29    33   ar
    22    32    34    1
    23    32    33   ar
    24     2     1   ar
    25    13    12   ar
    26    13    14   ar
    27    12    11   ar
    28    23    22   ar
    29    14    20    1
    30    14    15   ar
    31    11     4    1
    32    11    15   ar
    33    20    21   ar
    34    28    27    1
    35     4     5   ar
    36    22    21   ar
    37    22    27    1
    38    21    26    1
    39     1     6    1
    40     1     5   ar
    41    26    25    3
