@<TRIPOS>MOLECULE
mol_data/opt/b3lyp/geoms/mol2/5df5df5df5df.out
 38 41 0 0 0
SMALL
GASTEIGER

@<TRIPOS>ATOM
      1 C          -2.3227   -1.7188    0.1715 C.ar    1  LIG1       -0.0027
      2 C          -0.9987   -1.8877   -0.1524 C.ar    1  LIG1        0.1007
      3 C          -0.2560   -0.6524   -0.1496 C.ar    1  LIG1        0.1494
      4 C          -1.0510    0.4448    0.1787 C.ar    1  LIG1        0.0699
      5 S          -2.7056   -0.0807    0.5072 S.2     1  LIG1       -0.0910
      6 H          -3.0753   -2.4895    0.2571 H       1  LIG1        0.0708
      7 N           0.0473   -4.1903   -0.7026 N.1     1  LIG1       -0.1907
      8 C          -0.4120   -3.1506   -0.4574 C.1     1  LIG1        0.1034
      9 O           1.0288   -0.6913   -0.5295 O.3     1  LIG1       -0.5043
     10 H           1.5772   -0.0171   -0.0901 H       1  LIG1        0.2922
     11 C          -0.7549    1.8580    0.1829 C.ar    1  LIG1        0.0511
     12 C           0.4258    2.5297    0.4848 C.ar    1  LIG1        0.1090
     13 C           0.3491    3.9583    0.3523 C.ar    1  LIG1        0.1501
     14 C          -0.9134    4.3944   -0.0379 C.ar    1  LIG1        0.0705
     15 S          -1.9738    3.0073   -0.3056 S.2     1  LIG1       -0.0820
     16 N           2.5286    1.2557    1.2747 N.1     1  LIG1       -0.1907
     17 C           1.5985    1.8720    0.9354 C.1     1  LIG1        0.1040
     18 O           1.4256    4.6708    0.7133 O.3     1  LIG1       -0.5043
     19 H           1.5160    5.5045    0.2164 H       1  LIG1        0.2922
     20 C          -1.4654    5.7224   -0.1468 C.ar    1  LIG1        0.0511
     21 C          -0.8586    6.9235   -0.5032 C.ar    1  LIG1        0.1090
     22 C          -1.7336    8.0630   -0.4746 C.ar    1  LIG1        0.1501
     23 C          -3.0340    7.7330   -0.1151 C.ar    1  LIG1        0.0705
     24 S          -3.1392    6.0116    0.2587 S.2     1  LIG1       -0.0820
     25 N           1.6242    7.0045   -1.2065 N.1     1  LIG1       -0.1907
     26 C           0.4962    7.0149   -0.9095 C.1     1  LIG1        0.1040
     27 O          -1.2367    9.2400   -0.8890 O.3     1  LIG1       -0.5043
     28 H          -1.6307   10.0000   -0.4240 H       1  LIG1        0.2922
     29 C          -4.2415    8.5279   -0.1035 C.ar    1  LIG1        0.0505
     30 C          -4.4191    9.8756    0.2023 C.ar    1  LIG1        0.1084
     31 C          -5.7834   10.3156    0.0774 C.ar    1  LIG1        0.1418
     32 C          -6.6306    9.3111   -0.2954 C.ar    1  LIG1        0.0191
     33 S          -5.7768    7.8155   -0.5400 S.2     1  LIG1       -0.0910
     34 H          -7.7004    9.3557   -0.4406 H       1  LIG1        0.0731
     35 N          -2.4401   11.3540    0.9512 N.1     1  LIG1       -0.1907
     36 C          -3.3645   10.7179    0.6313 C.1     1  LIG1        0.1040
     37 O          -6.0760   11.6097    0.3484 O.3     1  LIG1       -0.5049
     38 H          -7.0236   11.7641    0.2391 H       1  LIG1        0.2922
@<TRIPOS>BOND
     1    25    26    3
     2    26    21    1
     3    27    22    1
     4    27    28    1
     5     7     8    3
     6    33    32   ar
     7    33    29   ar
     8     9     3    1
     9     9    10    1
    10    21    22   ar
    11    21    20   ar
    12    22    23   ar
    13     8     2    1
    14    34    32    1
    15    15    14   ar
    16    15    11   ar
    17    32    31   ar
    18     2     3   ar
    19     2     1   ar
    20     3     4   ar
    21    20    14    1
    22    20    24   ar
    23    23    29    1
    24    23    24   ar
    25    29    30   ar
    26    14    13   ar
    27    31    30   ar
    28    31    37    1
    29     1     6    1
    30     1     5   ar
    31     4    11    1
    32     4     5   ar
    33    11    12   ar
    34    30    36    1
    35    19    18    1
    36    38    37    1
    37    13    12   ar
    38    13    18    1
    39    12    17    1
    40    36    35    3
    41    17    16    3
