@<TRIPOS>MOLECULE
mol_data/opt/b3lyp/geoms/mol2/5df5df5df-5df.out
 38 41 0 0 0
SMALL
GASTEIGER

@<TRIPOS>ATOM
      1 C          -1.9650   -1.6323    1.3316 C.ar    1  LIG1       -0.0027
      2 C          -1.0886   -1.8530    0.2975 C.ar    1  LIG1        0.1007
      3 C          -0.4651   -0.6443   -0.1802 C.ar    1  LIG1        0.1494
      4 C          -0.8960    0.4854    0.5131 C.ar    1  LIG1        0.0699
      5 S          -2.0481    0.0246    1.7698 S.2     1  LIG1       -0.0910
      6 H          -2.5351   -2.3742    1.8722 H       1  LIG1        0.0708
      7 N          -0.6083   -4.1996   -0.6833 N.1     1  LIG1       -0.1907
      8 C          -0.8163   -3.1406   -0.2502 C.1     1  LIG1        0.1034
      9 O           0.3483   -0.7330   -1.2426 O.3     1  LIG1       -0.5043
     10 H           1.0694   -0.0788   -1.2250 H       1  LIG1        0.2922
     11 C          -0.6329    1.8867    0.2811 C.ar    1  LIG1        0.0511
     12 C           0.5180    2.5200   -0.1768 C.ar    1  LIG1        0.1090
     13 C           0.4083    3.9485   -0.2859 C.ar    1  LIG1        0.1501
     14 C          -0.8364    4.4241    0.1123 C.ar    1  LIG1        0.0705
     15 S          -1.8660    3.0765    0.6093 S.2     1  LIG1       -0.0820
     16 N           2.6613    1.1830   -0.7132 N.1     1  LIG1       -0.1907
     17 C           1.7199    1.8272   -0.4707 C.1     1  LIG1        0.1040
     18 O           1.4528    4.6118   -0.8032 O.3     1  LIG1       -0.5043
     19 H           1.5587    5.5064   -0.4314 H       1  LIG1        0.2922
     20 C          -1.3999    5.7518    0.0648 C.ar    1  LIG1        0.0511
     21 C          -0.7911    6.9927    0.2322 C.ar    1  LIG1        0.1090
     22 C          -1.6818    8.1133    0.1082 C.ar    1  LIG1        0.1501
     23 C          -2.9949    7.7326   -0.1341 C.ar    1  LIG1        0.0705
     24 S          -3.1082    5.9727   -0.2168 S.2     1  LIG1       -0.0820
     25 N           1.7247    7.1826    0.7806 N.1     1  LIG1       -0.1907
     26 C           0.5828    7.1453    0.5458 C.1     1  LIG1        0.1040
     27 O          -1.1481    9.3445    0.1721 O.3     1  LIG1       -0.5043
     28 H          -1.7410    9.9903    0.5967 H       1  LIG1        0.2922
     29 C          -4.1728    8.5238   -0.4135 C.ar    1  LIG1        0.0505
     30 C          -4.5465    9.7715    0.0813 C.ar    1  LIG1        0.1084
     31 C          -5.7940   10.2487   -0.4534 C.ar    1  LIG1        0.1418
     32 C          -6.3682    9.3658   -1.3235 C.ar    1  LIG1        0.0191
     33 S          -5.3791    7.9521   -1.5411 S.2     1  LIG1       -0.0910
     34 H          -7.3074    9.4580   -1.8499 H       1  LIG1        0.0731
     35 N          -3.1007   11.0148    1.8212 N.1     1  LIG1       -0.1907
     36 C          -3.7906   10.4802    1.0470 C.1     1  LIG1        0.1040
     37 O          -6.2580   11.4534   -0.0446 O.3     1  LIG1       -0.5049
     38 H          -7.1033   11.6445   -0.4721 H       1  LIG1        0.2922
@<TRIPOS>BOND
     1    34    32    1
     2    33    32   ar
     3    33    29   ar
     4    32    31   ar
     5     9    10    1
     6     9     3    1
     7    18    19    1
     8    18    13    1
     9    16    17    3
    10     7     8    3
    11    38    37    1
    12    17    12    1
    13    31    37    1
    14    31    30   ar
    15    29    23    1
    16    29    30   ar
    17    13    12   ar
    18    13    14   ar
    19     8     2    1
    20    24    23   ar
    21    24    20   ar
    22     3     2   ar
    23     3     4   ar
    24    12    11   ar
    25    23    22   ar
    26    20    14    1
    27    20    21   ar
    28    30    36    1
    29    22    27    1
    30    22    21   ar
    31    14    15   ar
    32    27    28    1
    33    21    26    1
    34    11     4    1
    35    11    15   ar
    36     2     1   ar
    37     4     5   ar
    38    26    25    3
    39    36    35    3
    40     1     5   ar
    41     1     6    1
