@<TRIPOS>MOLECULE
mol_data/opt/b3lyp/geoms/mol2/5df5df5df-.out
 29 31 0 0 0
SMALL
GASTEIGER

@<TRIPOS>ATOM
      1 C          -2.0394   -1.7581    0.8157 C.ar    1  LIG1       -0.0027
      2 C          -0.9110   -1.8882    0.0437 C.ar    1  LIG1        0.1007
      3 C          -0.2762   -0.6260   -0.2435 C.ar    1  LIG1        0.1494
      4 C          -0.9538    0.4508    0.3241 C.ar    1  LIG1        0.0699
      5 S          -2.3542   -0.1236    1.2334 S.2     1  LIG1       -0.0910
      6 H          -2.6746   -2.5524    1.1807 H       1  LIG1        0.0708
      7 N          -0.0198   -4.1672   -0.7996 N.1     1  LIG1       -0.1907
      8 C          -0.4114   -3.1379   -0.4262 C.1     1  LIG1        0.1034
      9 O           0.7900   -0.6269   -1.0581 O.3     1  LIG1       -0.5043
     10 H           1.4342    0.0696   -0.8390 H       1  LIG1        0.2922
     11 C          -0.7400    1.8735    0.1873 C.ar    1  LIG1        0.0511
     12 C           0.4424    2.5952    0.0600 C.ar    1  LIG1        0.1090
     13 C           0.2617    4.0162   -0.0592 C.ar    1  LIG1        0.1501
     14 C          -1.0727    4.3950   -0.0024 C.ar    1  LIG1        0.0705
     15 S          -2.0973    2.9700    0.1896 S.2     1  LIG1       -0.0820
     16 N           2.7407    1.4182    0.0955 N.1     1  LIG1       -0.1907
     17 C           1.7254    1.9919    0.0872 C.1     1  LIG1        0.1040
     18 O           1.3544    4.7692   -0.2706 O.3     1  LIG1       -0.5043
     19 H           1.2988    5.6416    0.1589 H       1  LIG1        0.2922
     20 C          -1.6965    5.6886   -0.1728 C.ar    1  LIG1        0.0505
     21 C          -1.2433    6.9533    0.1965 C.ar    1  LIG1        0.1084
     22 C          -2.1469    8.0130   -0.1648 C.ar    1  LIG1        0.1418
     23 C          -3.2784    7.5566   -0.7790 C.ar    1  LIG1        0.0191
     24 S          -3.2468    5.8279   -0.9674 S.2     1  LIG1       -0.0910
     25 H          -4.1257    8.1264   -1.1328 H       1  LIG1        0.0731
     26 N           0.9925    7.2699    1.4475 N.1     1  LIG1       -0.1907
     27 C          -0.0311    7.1689    0.8966 C.1     1  LIG1        0.1040
     28 O          -1.8101    9.2881    0.1438 O.3     1  LIG1       -0.5049
     29 H          -2.5080    9.8922   -0.1420 H       1  LIG1        0.2922
@<TRIPOS>BOND
     1    25    23    1
     2     9    10    1
     3     9     3    1
     4    24    23   ar
     5    24    20   ar
     6     7     8    3
     7    23    22   ar
     8     8     2    1
     9    18    13    1
    10    18    19    1
    11     3     2   ar
    12     3     4   ar
    13    20    14    1
    14    20    21   ar
    15    22    28    1
    16    22    21   ar
    17    29    28    1
    18    13    14   ar
    19    13    12   ar
    20    14    15   ar
    21     2     1   ar
    22    12    17    1
    23    12    11   ar
    24    17    16    3
    25    11    15   ar
    26    11     4    1
    27    21    27    1
    28     4     5   ar
    29     1     6    1
    30     1     5   ar
    31    27    26    3
