@<TRIPOS>MOLECULE
mol_data/opt/b3lyp/geoms/mol2/5df5df5df.out
 29 31 0 0 0
SMALL
GASTEIGER

@<TRIPOS>ATOM
      1 C          -2.1754   -1.7928    0.1251 C.ar    1  LIG1       -0.0027
      2 C          -0.8579   -1.8764   -0.2543 C.ar    1  LIG1        0.1007
      3 C          -0.1841   -0.6021   -0.2352 C.ar    1  LIG1        0.1494
      4 C          -1.0232    0.4368    0.1626 C.ar    1  LIG1        0.0699
      5 S          -2.6320   -0.1906    0.5345 S.2     1  LIG1       -0.0910
      6 H          -2.8815   -2.6063    0.2103 H       1  LIG1        0.0708
      7 N           0.2890   -4.0973   -0.9261 N.1     1  LIG1       -0.1907
      8 C          -0.2161   -3.0936   -0.6267 C.1     1  LIG1        0.1034
      9 O           1.0854   -0.5547   -0.6648 O.3     1  LIG1       -0.5043
     10 H           1.6126    0.1300   -0.2161 H       1  LIG1        0.2922
     11 C          -0.8024    1.8638    0.2082 C.ar    1  LIG1        0.0511
     12 C           0.3500    2.5874    0.4973 C.ar    1  LIG1        0.1090
     13 C           0.1915    4.0140    0.4199 C.ar    1  LIG1        0.1501
     14 C          -1.1027    4.3931    0.0881 C.ar    1  LIG1        0.0705
     15 S          -2.0954    2.9630   -0.1996 S.2     1  LIG1       -0.0820
     16 N           2.5445    1.4020    1.1668 N.1     1  LIG1       -0.1907
     17 C           1.5711    1.9785    0.8831 C.1     1  LIG1        0.1040
     18 O           1.2392    4.7778    0.7715 O.3     1  LIG1       -0.5043
     19 H           1.2831    5.6108    0.2684 H       1  LIG1        0.2922
     20 C          -1.7234    5.6982    0.0454 C.ar    1  LIG1        0.0505
     21 C          -1.1876    6.9295   -0.3264 C.ar    1  LIG1        0.1084
     22 C          -2.1226    8.0175   -0.2143 C.ar    1  LIG1        0.1418
     23 C          -3.3549    7.6136    0.2142 C.ar    1  LIG1        0.0191
     24 S          -3.3908    5.9029    0.5280 S.2     1  LIG1       -0.0910
     25 H          -4.2421    8.2120    0.3641 H       1  LIG1        0.0731
     26 N           1.2451    7.1373   -1.1640 N.1     1  LIG1       -0.1907
     27 C           0.1361    7.0854   -0.8051 C.1     1  LIG1        0.1040
     28 O          -1.7120    9.2643   -0.5480 O.3     1  LIG1       -0.5049
     29 H          -2.4390    9.8914   -0.4387 H       1  LIG1        0.2922
@<TRIPOS>BOND
     1    26    27    3
     2     7     8    3
     3    27    21    1
     4     9     3    1
     5     9    10    1
     6     8     2    1
     7    28    29    1
     8    28    22    1
     9    21    22   ar
    10    21    20   ar
    11     2     3   ar
    12     2     1   ar
    13     3     4   ar
    14    22    23   ar
    15    15    14   ar
    16    15    11   ar
    17    20    14    1
    18    20    24   ar
    19    14    13   ar
    20     1     6    1
    21     1     5   ar
    22     4    11    1
    23     4     5   ar
    24    11    12   ar
    25    23    25    1
    26    23    24   ar
    27    19    18    1
    28    13    12   ar
    29    13    18    1
    30    12    17    1
    31    17    16    3
