@<TRIPOS>MOLECULE
mol_data/opt/b3lyp/geoms/mol2/5df5df-5df-5df-.out
 38 41 0 0 0
SMALL
GASTEIGER

@<TRIPOS>ATOM
      1 C          -2.3230   -1.7187   -0.1738 C.ar    1  LIG1       -0.0027
      2 C          -1.0024   -1.8873    0.1640 C.ar    1  LIG1        0.1007
      3 C          -0.2591   -0.6524    0.1656 C.ar    1  LIG1        0.1494
      4 C          -1.0502    0.4443   -0.1737 C.ar    1  LIG1        0.0699
      5 S          -2.7016   -0.0814   -0.5177 S.2     1  LIG1       -0.0910
      6 H          -3.0751   -2.4893   -0.2650 H       1  LIG1        0.0708
      7 N           0.0368   -4.1890    0.7310 N.1     1  LIG1       -0.1907
      8 C          -0.4195   -3.1497    0.4784 C.1     1  LIG1        0.1034
      9 O           1.0217   -0.6909    0.5588 O.3     1  LIG1       -0.5043
     10 H           1.5749   -0.0181    0.1235 H       1  LIG1        0.2922
     11 C          -0.7535    1.8573   -0.1788 C.ar    1  LIG1        0.0511
     12 C           0.4305    2.5279   -0.4702 C.ar    1  LIG1        0.1090
     13 C           0.3528    3.9569   -0.3426 C.ar    1  LIG1        0.1501
     14 C          -0.9135    4.3945    0.0332 C.ar    1  LIG1        0.0705
     15 S          -1.9771    3.0084    0.2937 S.2     1  LIG1       -0.0820
     16 N           2.5408    1.2510   -1.2349 N.1     1  LIG1       -0.1907
     17 C           1.6076    1.8686   -0.9069 C.1     1  LIG1        0.1040
     18 O           1.4333    4.6680   -0.6942 O.3     1  LIG1       -0.5043
     19 H           1.5184    5.5034   -0.1993 H       1  LIG1        0.2922
     20 C          -1.4663    5.7228    0.1328 C.ar    1  LIG1        0.0511
     21 C          -0.8630    6.9249    0.4921 C.ar    1  LIG1        0.1090
     22 C          -1.7375    8.0645    0.4514 C.ar    1  LIG1        0.1501
     23 C          -3.0341    7.7336    0.0794 C.ar    1  LIG1        0.0705
     24 S          -3.1359    6.0112   -0.2908 S.2     1  LIG1       -0.0820
     25 N           1.6125    7.0074    1.2204 N.1     1  LIG1       -0.1907
     26 C           0.4876    7.0171    0.9119 C.1     1  LIG1        0.1040
     27 O          -1.2446    9.2424    0.8677 O.3     1  LIG1       -0.5043
     28 H          -1.6337   10.0012    0.3966 H       1  LIG1        0.2922
     29 C          -4.2414    8.5286    0.0535 C.ar    1  LIG1        0.0505
     30 C          -4.4157    9.8755   -0.2577 C.ar    1  LIG1        0.1084
     31 C          -5.7811   10.3160   -0.1475 C.ar    1  LIG1        0.1418
     32 C          -6.6321    9.3126    0.2196 C.ar    1  LIG1        0.0191
     33 S          -5.7810    7.8175    0.4766 S.2     1  LIG1       -0.0910
     34 H          -7.7033    9.3577    0.3542 H       1  LIG1        0.0731
     35 N          -2.4289   11.3511   -0.9911 N.1     1  LIG1       -0.1907
     36 C          -3.3567   10.7163   -0.6785 C.1     1  LIG1        0.1040
     37 O          -6.0708   11.6094   -0.4248 O.3     1  LIG1       -0.5049
     38 H          -7.0194   11.7642   -0.3254 H       1  LIG1        0.2922
@<TRIPOS>BOND
     1    16    17    3
     2    35    36    3
     3    17    12    1
     4    18    13    1
     5    18    19    1
     6    36    30    1
     7     5     1   ar
     8     5     4   ar
     9    12    13   ar
    10    12    11   ar
    11    37    38    1
    12    37    31    1
    13    13    14   ar
    14    24    23   ar
    15    24    20   ar
    16     6     1    1
    17    30    31   ar
    18    30    29   ar
    19    11     4    1
    20    11    15   ar
    21     1     2   ar
    22     4     3   ar
    23    31    32   ar
    24    14    20    1
    25    14    15   ar
    26    29    23    1
    27    29    33   ar
    28    23    22   ar
    29    10     9    1
    30    20    21   ar
    31     2     3   ar
    32     2     8    1
    33     3     9    1
    34    32    34    1
    35    32    33   ar
    36    28    27    1
    37    22    21   ar
    38    22    27    1
    39     8     7    3
    40    21    26    1
    41    26    25    3
