@<TRIPOS>MOLECULE
mol_data/opt/b3lyp/geoms/mol2/5dg.out
 11 11 0 0 0
SMALL
GASTEIGER

@<TRIPOS>ATOM
      1 C          -2.1485   -1.7302    0.0001 C.ar    1  LIG1       -0.0059
      2 C          -0.7727   -1.6921   -0.0003 C.ar    1  LIG1        0.0719
      3 C          -0.2534   -0.3428   -0.0002 C.ar    1  LIG1        0.0292
      4 C          -1.2567    0.5866    0.0003 C.ar    1  LIG1       -0.0099
      5 S          -2.8303   -0.1525    0.0006 S.2     1  LIG1       -0.1027
      6 H          -2.7756   -2.6099    0.0001 H       1  LIG1        0.0706
      7 H          -1.1689    1.6634    0.0005 H       1  LIG1        0.0705
      8 N           0.7128   -3.8132   -0.0011 N.1     1  LIG1       -0.1908
      9 C           0.0409   -2.8629   -0.0008 C.1     1  LIG1        0.1008
     10 S           1.4982   -0.0416   -0.0006 S.3     1  LIG1       -0.1409
     11 H           1.4034    1.3021   -0.0005 H       1  LIG1        0.1072
@<TRIPOS>BOND
     1     8     9    3
     2     9     2    1
     3    10    11    1
     4    10     3    1
     5     2     3   ar
     6     2     1   ar
     7     3     4   ar
     8     1     6    1
     9     1     5   ar
    10     4     7    1
    11     4     5   ar
