@<TRIPOS>MOLECULE
mol_data/opt/b3lyp/geoms/mol2/5dg5dg-5dg.out
 29 31 0 0 0
SMALL
GASTEIGER

@<TRIPOS>ATOM
      1 C          -1.6302   -1.7116    1.4683 C.ar    1  LIG1       -0.0052
      2 C          -0.9190   -1.8897    0.3047 C.ar    1  LIG1        0.0725
      3 C          -0.4837   -0.6468   -0.2875 C.ar    1  LIG1        0.0375
      4 C          -0.8763    0.4459    0.4605 C.ar    1  LIG1        0.0416
      5 S          -1.7860   -0.0563    1.8829 S.2     1  LIG1       -0.0937
      6 H          -2.0554   -2.4846    2.0927 H       1  LIG1        0.0707
      7 N          -0.4504   -4.2190   -0.7253 N.1     1  LIG1       -0.1908
      8 C          -0.6592   -3.1736   -0.2594 C.1     1  LIG1        0.1008
      9 S           0.3819   -0.6719   -1.8293 S.3     1  LIG1       -0.1403
     10 H           0.5256    0.6628   -1.9319 H       1  LIG1        0.1072
     11 C          -0.6622    1.8656    0.2093 C.ar    1  LIG1        0.0460
     12 C           0.5367    2.5594    0.1171 C.ar    1  LIG1        0.0808
     13 C           0.3753    3.9693   -0.1373 C.ar    1  LIG1        0.0381
     14 C          -0.9533    4.3379   -0.2088 C.ar    1  LIG1        0.0422
     15 S          -2.0057    2.9475    0.0021 S.2     1  LIG1       -0.0847
     16 N           2.8604    1.4618    0.4313 N.1     1  LIG1       -0.1908
     17 C           1.8106    1.9449    0.2945 C.1     1  LIG1        0.1014
     18 S           1.8051    4.9881   -0.3534 S.3     1  LIG1       -0.1402
     19 H           1.1243    6.1271   -0.5837 H       1  LIG1        0.1072
     20 C          -1.5360    5.6542   -0.4424 C.ar    1  LIG1        0.0454
     21 C          -1.4349    6.7973    0.3405 C.ar    1  LIG1        0.0802
     22 C          -2.1564    7.9249   -0.1968 C.ar    1  LIG1        0.0298
     23 C          -2.7994    7.6098   -1.3629 C.ar    1  LIG1       -0.0093
     24 S          -2.5299    5.9654   -1.8380 S.2     1  LIG1       -0.0937
     25 H          -3.4182    8.2506   -1.9748 H       1  LIG1        0.0705
     26 N          -0.1640    6.8968    2.5938 N.1     1  LIG1       -0.1908
     27 C          -0.7315    6.8391    1.5794 C.1     1  LIG1        0.1014
     28 S          -2.1565    9.4873    0.6482 S.3     1  LIG1       -0.1408
     29 H          -2.9465   10.1188   -0.2416 H       1  LIG1        0.1072
@<TRIPOS>BOND
     1    25    23    1
     2    10     9    1
     3    24    23   ar
     4    24    20   ar
     5     9     3    1
     6    23    22   ar
     7     7     8    3
     8    19    18    1
     9    20    14    1
    10    20    21   ar
    11    18    13    1
    12     3     2   ar
    13     3     4   ar
    14     8     2    1
    15    29    28    1
    16    14    13   ar
    17    14    15   ar
    18    22    21   ar
    19    22    28    1
    20    13    12   ar
    21    15    11   ar
    22    12    11   ar
    23    12    17    1
    24    11     4    1
    25    17    16    3
    26     2     1   ar
    27    21    27    1
    28     4     5   ar
    29     1     5   ar
    30     1     6    1
    31    27    26    3
