@<TRIPOS>MOLECULE
mol_data/opt/b3lyp/geoms/mol2/5dg5dg5dg-.out
 29 31 0 0 0
SMALL
GASTEIGER

@<TRIPOS>ATOM
      1 C          -1.9093   -1.9281    0.4402 C.ar    1  LIG1       -0.0052
      2 C          -0.7936   -1.8633   -0.3610 C.ar    1  LIG1        0.0725
      3 C          -0.2651   -0.5253   -0.4896 C.ar    1  LIG1        0.0375
      4 C          -1.0009    0.3904    0.2380 C.ar    1  LIG1        0.0416
      5 S          -2.3461   -0.3928    1.0640 S.2     1  LIG1       -0.0937
      6 H          -2.4790   -2.8126    0.6876 H       1  LIG1        0.0707
      7 N           0.2191   -3.9355   -1.5387 N.1     1  LIG1       -0.1908
      8 C          -0.2352   -3.0055   -1.0075 C.1     1  LIG1        0.1008
      9 S           1.1215   -0.2361   -1.5466 S.3     1  LIG1       -0.1403
     10 H           1.1570    1.0988   -1.3740 H       1  LIG1        0.1072
     11 C          -0.8191    1.8291    0.3716 C.ar    1  LIG1        0.0460
     12 C           0.2793    2.5234    0.8612 C.ar    1  LIG1        0.0808
     13 C           0.1115    3.9550    0.8593 C.ar    1  LIG1        0.0381
     14 C          -1.1236    4.3352    0.3726 C.ar    1  LIG1        0.0422
     15 S          -2.0738    2.9353   -0.0993 S.2     1  LIG1       -0.0847
     16 N           2.3882    1.3767    1.8309 N.1     1  LIG1       -0.1908
     17 C           1.4366    1.8812    1.3902 C.1     1  LIG1        0.1014
     18 S           1.3919    4.9837    1.5163 S.3     1  LIG1       -0.1402
     19 H           0.7421    6.1472    1.3239 H       1  LIG1        0.1072
     20 C          -1.6893    5.6710    0.2295 C.ar    1  LIG1        0.0454
     21 C          -1.2345    6.7228   -0.5562 C.ar    1  LIG1        0.0802
     22 C          -2.0527    7.9068   -0.4573 C.ar    1  LIG1        0.0298
     23 C          -3.1155    7.7229    0.3845 C.ar    1  LIG1       -0.0093
     24 S          -3.1337    6.1369    1.0834 S.2     1  LIG1       -0.0937
     25 H          -3.8932    8.4294    0.6375 H       1  LIG1        0.0705
     26 N           0.8190    6.5617   -2.1244 N.1     1  LIG1       -0.1908
     27 C          -0.1025    6.6237   -1.4162 C.1     1  LIG1        0.1014
     28 S          -1.6460    9.3693   -1.3798 S.3     1  LIG1       -0.1408
     29 H          -2.6872   10.0995   -0.9355 H       1  LIG1        0.1072
@<TRIPOS>BOND
     1    26    27    3
     2     9    10    1
     3     9     3    1
     4     7     8    3
     5    27    21    1
     6    28    29    1
     7    28    22    1
     8     8     2    1
     9    21    22   ar
    10    21    20   ar
    11     3     2   ar
    12     3     4   ar
    13    22    23   ar
    14     2     1   ar
    15    15    11   ar
    16    15    14   ar
    17    20    14    1
    18    20    24   ar
    19     4    11    1
    20     4     5   ar
    21    11    12   ar
    22    14    13   ar
    23    23    25    1
    24    23    24   ar
    25     1     6    1
    26     1     5   ar
    27    13    12   ar
    28    13    18    1
    29    12    17    1
    30    19    18    1
    31    17    16    3
