@<TRIPOS>MOLECULE
mol_data/opt/b3lyp/geoms/mol2/5dg5dg5dg-5dg-.out
 38 41 0 0 0
SMALL
GASTEIGER

@<TRIPOS>ATOM
      1 C          -0.9372   -1.8255    1.6411 C.ar    1  LIG1       -0.0052
      2 C          -0.8401   -1.9305    0.2733 C.ar    1  LIG1        0.0725
      3 C          -0.6981   -0.6522   -0.3833 C.ar    1  LIG1        0.0375
      4 C          -0.6832    0.3922    0.5207 C.ar    1  LIG1        0.0416
      5 S          -0.8533   -0.1983    2.1717 S.2     1  LIG1       -0.0937
      6 H          -1.0457   -2.6365    2.3473 H       1  LIG1        0.0707
      7 N          -0.9409   -4.1928   -0.9830 N.1     1  LIG1       -0.1908
      8 C          -0.8926   -3.1777   -0.4166 C.1     1  LIG1        0.1008
      9 S          -0.6333   -0.5829   -2.1487 S.3     1  LIG1       -0.1403
     10 H          -0.5294    0.7568   -2.2339 H       1  LIG1        0.1072
     11 C          -0.5753    1.8253    0.2792 C.ar    1  LIG1        0.0460
     12 C           0.4612    2.5296   -0.3179 C.ar    1  LIG1        0.0808
     13 C           0.2374    3.9524   -0.3858 C.ar    1  LIG1        0.0381
     14 C          -0.9627    4.3176    0.1926 C.ar    1  LIG1        0.0422
     15 S          -1.8352    2.9111    0.7828 S.2     1  LIG1       -0.0847
     16 N           2.6373    1.4226   -1.1792 N.1     1  LIG1       -0.1908
     17 C           1.6564    1.9105   -0.7869 C.1     1  LIG1        0.1014
     18 S           1.4289    4.9825   -1.1891 S.3     1  LIG1       -0.1402
     19 H           0.7441    6.1321   -1.0373 H       1  LIG1        0.1072
     20 C          -1.5539    5.6417    0.3372 C.ar    1  LIG1        0.0460
     21 C          -1.0531    6.7426    1.0189 C.ar    1  LIG1        0.0808
     22 C          -1.9120    7.8987    0.9679 C.ar    1  LIG1        0.0381
     23 C          -3.0663    7.6592    0.2480 C.ar    1  LIG1        0.0422
     24 S          -3.0921    6.0182   -0.3769 S.2     1  LIG1       -0.0847
     25 N           1.1497    6.7037    2.3788 N.1     1  LIG1       -0.1908
     26 C           0.1625    6.7118    1.7628 C.1     1  LIG1        0.1014
     27 S          -1.4539    9.3652    1.8439 S.3     1  LIG1       -0.1402
     28 H          -2.5604   10.0632    1.5250 H       1  LIG1        0.1072
     29 C          -4.1867    8.5509   -0.0251 C.ar    1  LIG1        0.0454
     30 C          -4.1838    9.7511   -0.7252 C.ar    1  LIG1        0.0802
     31 C          -5.4854   10.3665   -0.8116 C.ar    1  LIG1        0.0298
     32 C          -6.4464    9.6142   -0.1927 C.ar    1  LIG1       -0.0093
     33 S          -5.7975    8.1727    0.5175 S.2     1  LIG1       -0.0937
     34 H          -7.5035    9.8235   -0.1099 H       1  LIG1        0.0705
     35 N          -2.0782   10.7469   -1.8553 N.1     1  LIG1       -0.1908
     36 C          -3.0192   10.2917   -1.3436 C.1     1  LIG1        0.1014
     37 S          -5.7024   11.9111   -1.6610 S.3     1  LIG1       -0.1408
     38 H          -7.0311   11.9905   -1.4547 H       1  LIG1        0.1072
@<TRIPOS>BOND
     1    10     9    1
     2     9     3    1
     3    35    36    3
     4    37    38    1
     5    37    31    1
     6    36    30    1
     7    18    19    1
     8    18    13    1
     9    16    17    3
    10     7     8    3
    11    31    30   ar
    12    31    32   ar
    13    17    12    1
    14    30    29   ar
    15     8     2    1
    16    13    12   ar
    17    13    14   ar
    18     3     2   ar
    19     3     4   ar
    20    24    23   ar
    21    24    20   ar
    22    12    11   ar
    23    32    34    1
    24    32    33   ar
    25    29    23    1
    26    29    33   ar
    27    14    20    1
    28    14    15   ar
    29    23    22   ar
    30     2     1   ar
    31    11     4    1
    32    11    15   ar
    33    20    21   ar
    34     4     5   ar
    35    22    21   ar
    36    22    27    1
    37    21    26    1
    38    28    27    1
    39     1     5   ar
    40     1     6    1
    41    26    25    3
