@<TRIPOS>MOLECULE
mol_data/opt/b3lyp/geoms/mol2/5dg5dg5dg.out
 29 31 0 0 0
SMALL
GASTEIGER

@<TRIPOS>ATOM
      1 C          -1.9375   -1.9226    0.4252 C.ar    1  LIG1       -0.0052
      2 C          -0.8294   -1.8616   -0.3866 C.ar    1  LIG1        0.0725
      3 C          -0.2933   -0.5267   -0.5148 C.ar    1  LIG1        0.0375
      4 C          -1.0158    0.3908    0.2239 C.ar    1  LIG1        0.0416
      5 S          -2.3579   -0.3870    1.0598 S.2     1  LIG1       -0.0937
      6 H          -2.5106   -2.8043    0.6745 H       1  LIG1        0.0707
      7 N           0.1580   -3.9354   -1.5829 N.1     1  LIG1       -0.1908
      8 C          -0.2849   -3.0047   -1.0434 C.1     1  LIG1        0.1008
      9 S           1.0848   -0.2420   -1.5844 S.3     1  LIG1       -0.1403
     10 H           1.1308    1.0919   -1.4065 H       1  LIG1        0.1072
     11 C          -0.8234    1.8278    0.3616 C.ar    1  LIG1        0.0460
     12 C           0.2843    2.5132    0.8428 C.ar    1  LIG1        0.0808
     13 C           0.1256    3.9458    0.8483 C.ar    1  LIG1        0.0381
     14 C          -1.1120    4.3356    0.3756 C.ar    1  LIG1        0.0422
     15 S          -2.0758    2.9436   -0.0921 S.2     1  LIG1       -0.0847
     16 N           2.3956    1.3494    1.7866 N.1     1  LIG1       -0.1908
     17 C           1.4428    1.8615    1.3575 C.1     1  LIG1        0.1014
     18 S           1.4188    4.9637    1.4965 S.3     1  LIG1       -0.1402
     19 H           0.7741    6.1320    1.3157 H       1  LIG1        0.1072
     20 C          -1.6709    5.6754    0.2439 C.ar    1  LIG1        0.0454
     21 C          -1.2173    6.7282   -0.5413 C.ar    1  LIG1        0.0802
     22 C          -2.0275    7.9164   -0.4292 C.ar    1  LIG1        0.0298
     23 C          -3.0835    7.7348    0.4216 C.ar    1  LIG1       -0.0093
     24 S          -3.1045    6.1458    1.1135 S.2     1  LIG1       -0.0937
     25 H          -3.8546    8.4446    0.6852 H       1  LIG1        0.0705
     26 N           0.8202    6.5621   -2.1297 N.1     1  LIG1       -0.1908
     27 C          -0.0941    6.6263   -1.4124 C.1     1  LIG1        0.1014
     28 S          -1.6209    9.3808   -1.3487 S.3     1  LIG1       -0.1408
     29 H          -2.6538   10.1148   -0.8917 H       1  LIG1        0.1072
@<TRIPOS>BOND
     1    26    27    3
     2     9    10    1
     3     9     3    1
     4     7     8    3
     5    27    21    1
     6    28    29    1
     7    28    22    1
     8     8     2    1
     9    21    22   ar
    10    21    20   ar
    11     3     2   ar
    12     3     4   ar
    13    22    23   ar
    14     2     1   ar
    15    15    11   ar
    16    15    14   ar
    17     4    11    1
    18     4     5   ar
    19    20    14    1
    20    20    24   ar
    21    11    12   ar
    22    14    13   ar
    23    23    25    1
    24    23    24   ar
    25     1     6    1
    26     1     5   ar
    27    12    13   ar
    28    12    17    1
    29    13    18    1
    30    19    18    1
    31    17    16    3
