@<TRIPOS>MOLECULE
mol_data/opt/b3lyp/geoms/mol2/5dg5dg5dg5dg.out
 38 41 0 0 0
SMALL
GASTEIGER

@<TRIPOS>ATOM
      1 C          -1.9493   -1.9764    0.3485 C.ar    1  LIG1       -0.0052
      2 C          -0.7164   -1.9473   -0.2596 C.ar    1  LIG1        0.0725
      3 C          -0.1627   -0.6169   -0.3554 C.ar    1  LIG1        0.0375
      4 C          -1.0009    0.3301    0.2021 C.ar    1  LIG1        0.0416
      5 S          -2.4703   -0.4154    0.8269 S.2     1  LIG1       -0.0937
      6 H          -2.5590   -2.8488    0.5361 H       1  LIG1        0.0707
      7 N           0.4586   -4.0691   -1.1674 N.1     1  LIG1       -0.1908
      8 C          -0.0689   -3.1168   -0.7573 C.1     1  LIG1        0.1008
      9 S           1.3809   -0.3752   -1.1814 S.3     1  LIG1       -0.1403
     10 H           1.3980    0.9659   -1.0635 H       1  LIG1        0.1072
     11 C          -0.8342    1.7731    0.3004 C.ar    1  LIG1        0.0460
     12 C           0.1756    2.4910    0.9273 C.ar    1  LIG1        0.0808
     13 C           0.0200    3.9212    0.8340 C.ar    1  LIG1        0.0381
     14 C          -1.1190    4.2755    0.1365 C.ar    1  LIG1        0.0422
     15 S          -1.9923    2.8538   -0.4145 S.2     1  LIG1       -0.0847
     16 N           2.0944    1.3899    2.2721 N.1     1  LIG1       -0.1908
     17 C           1.2290    1.8743    1.6634 C.1     1  LIG1        0.1014
     18 S           1.1826    4.9749    1.6486 S.3     1  LIG1       -0.1402
     19 H           0.5663    6.1307    1.3367 H       1  LIG1        0.1072
     20 C          -1.6490    5.5998   -0.1574 C.ar    1  LIG1        0.0460
     21 C          -1.0537    6.6292   -0.8746 C.ar    1  LIG1        0.0808
     22 C          -1.8717    7.8105   -0.9848 C.ar    1  LIG1        0.0381
     23 C          -3.0907    7.6612   -0.3529 C.ar    1  LIG1        0.0422
     24 S          -3.2278    6.0754    0.3902 S.2     1  LIG1       -0.0847
     25 N           1.2507    6.4103   -2.0342 N.1     1  LIG1       -0.1908
     26 C           0.2168    6.5019   -1.5080 C.1     1  LIG1        0.1014
     27 S          -1.2892    9.1909   -1.9246 S.3     1  LIG1       -0.1402
     28 H          -2.3902    9.9463   -1.7504 H       1  LIG1        0.1072
     29 C          -4.1986    8.6026   -0.2475 C.ar    1  LIG1        0.0454
     30 C          -4.2147    9.8521    0.3601 C.ar    1  LIG1        0.0802
     31 C          -5.4967   10.5087    0.2848 C.ar    1  LIG1        0.0298
     32 C          -6.4259    9.7390   -0.3607 C.ar    1  LIG1       -0.0093
     33 S          -5.7680    8.2301   -0.9031 S.2     1  LIG1       -0.0937
     34 H          -7.4640    9.9709   -0.5523 H       1  LIG1        0.0705
     35 N          -2.1817   10.8715    1.5970 N.1     1  LIG1       -0.1908
     36 C          -3.0899   10.4051    1.0384 C.1     1  LIG1        0.1014
     37 S          -5.7335   12.1186    0.9966 S.3     1  LIG1       -0.1408
     38 H          -7.0338   12.2220    0.6607 H       1  LIG1        0.1072
@<TRIPOS>BOND
     1    25    26    3
     2    27    28    1
     3    27    22    1
     4    26    21    1
     5     9    10    1
     6     9     3    1
     7     7     8    3
     8    22    21   ar
     9    22    23   ar
    10    33    32   ar
    11    33    29   ar
    12    21    20   ar
    13     8     2    1
    14    34    32    1
    15    15    14   ar
    16    15    11   ar
    17    32    31   ar
    18     3     2   ar
    19     3     4   ar
    20    23    29    1
    21    23    24   ar
    22     2     1   ar
    23    29    30   ar
    24    20    14    1
    25    20    24   ar
    26    14    13   ar
    27     4    11    1
    28     4     5   ar
    29    31    30   ar
    30    31    37    1
    31    11    12   ar
    32     1     6    1
    33     1     5   ar
    34    30    36    1
    35    38    37    1
    36    13    12   ar
    37    13    18    1
    38    12    17    1
    39    36    35    3
    40    19    18    1
    41    17    16    3
