@<TRIPOS>MOLECULE
mol_data/opt/b3lyp/geoms/mol2/5dg5dg5dg5dg-.out
 38 41 0 0 0
SMALL
GASTEIGER

@<TRIPOS>ATOM
      1 C          -1.9224   -1.9765    0.3342 C.ar    1  LIG1       -0.0052
      2 C          -0.6975   -1.9432   -0.2899 C.ar    1  LIG1        0.0725
      3 C          -0.1489   -0.6111   -0.3916 C.ar    1  LIG1        0.0375
      4 C          -0.9825    0.3329    0.1779 C.ar    1  LIG1        0.0416
      5 S          -2.4415   -0.4174    0.8211 S.2     1  LIG1       -0.0937
      6 H          -2.5271   -2.8508    0.5289 H       1  LIG1        0.0707
      7 N           0.4714   -4.0608   -1.2152 N.1     1  LIG1       -0.1908
      8 C          -0.0533   -3.1103   -0.7972 C.1     1  LIG1        0.1008
      9 S           1.3825   -0.3644   -1.2383 S.3     1  LIG1       -0.1403
     10 H           1.3964    0.9769   -1.1216 H       1  LIG1        0.1072
     11 C          -0.8188    1.7763    0.2757 C.ar    1  LIG1        0.0460
     12 C           0.1986    2.4966    0.8872 C.ar    1  LIG1        0.0808
     13 C           0.0367    3.9264    0.7987 C.ar    1  LIG1        0.0381
     14 C          -1.1146    4.2780    0.1202 C.ar    1  LIG1        0.0422
     15 S          -1.9920    2.8541   -0.4188 S.2     1  LIG1       -0.0847
     16 N           2.1418    1.4000    2.2003 N.1     1  LIG1       -0.1908
     17 C           1.2655    1.8824    1.6059 C.1     1  LIG1        0.1014
     18 S           1.2088    4.9827    1.5959 S.3     1  LIG1       -0.1402
     19 H           0.5825    6.1368    1.2977 H       1  LIG1        0.1072
     20 C          -1.6536    5.6008   -0.1630 C.ar    1  LIG1        0.0460
     21 C          -1.0729    6.6337   -0.8872 C.ar    1  LIG1        0.0808
     22 C          -1.8966    7.8123   -0.9826 C.ar    1  LIG1        0.0381
     23 C          -3.1054    7.6574   -0.3326 C.ar    1  LIG1        0.0422
     24 S          -3.2257    6.0698    0.4093 S.2     1  LIG1       -0.0847
     25 N           1.2141    6.4247   -2.0824 N.1     1  LIG1       -0.1908
     26 C           0.1882    6.5119   -1.5402 C.1     1  LIG1        0.1014
     27 S          -1.3333    9.1967   -1.9284 S.3     1  LIG1       -0.1402
     28 H          -2.4342    9.9479   -1.7357 H       1  LIG1        0.1072
     29 C          -4.2147    8.5948   -0.2085 C.ar    1  LIG1        0.0454
     30 C          -4.2261    9.8427    0.4025 C.ar    1  LIG1        0.0802
     31 C          -5.5113   10.4952    0.3476 C.ar    1  LIG1        0.0298
     32 C          -6.4473    9.7240   -0.2862 C.ar    1  LIG1       -0.0093
     33 S          -5.7923    8.2187   -0.8420 S.2     1  LIG1       -0.0937
     34 H          -7.4888    9.9528   -0.4620 H       1  LIG1        0.0705
     35 N          -2.1784   10.8658    1.6118 N.1     1  LIG1       -0.1908
     36 C          -3.0933   10.3979    1.0655 C.1     1  LIG1        0.1014
     37 S          -5.7430   12.1026    1.0669 S.3     1  LIG1       -0.1408
     38 H          -7.0486   12.2021    0.7509 H       1  LIG1        0.1072
@<TRIPOS>BOND
     1    25    26    3
     2    27    28    1
     3    27    22    1
     4    26    21    1
     5     9    10    1
     6     9     3    1
     7     7     8    3
     8    22    21   ar
     9    22    23   ar
    10    21    20   ar
    11    33    32   ar
    12    33    29   ar
    13     8     2    1
    14    34    32    1
    15    15    14   ar
    16    15    11   ar
    17     3     2   ar
    18     3     4   ar
    19    23    29    1
    20    23    24   ar
    21     2     1   ar
    22    32    31   ar
    23    29    30   ar
    24    20    14    1
    25    20    24   ar
    26    14    13   ar
    27     4    11    1
    28     4     5   ar
    29    11    12   ar
    30     1     6    1
    31     1     5   ar
    32    31    30   ar
    33    31    37    1
    34    30    36    1
    35    38    37    1
    36    13    12   ar
    37    13    18    1
    38    12    17    1
    39    36    35    3
    40    19    18    1
    41    17    16    3
