@<TRIPOS>MOLECULE
mol_data/opt/b3lyp/geoms/mol2/5dg5dg-5dg-5dg-.out
 38 41 0 0 0
SMALL
GASTEIGER

@<TRIPOS>ATOM
      1 C          -1.9771   -1.9845   -0.1305 C.ar    1  LIG1       -0.0052
      2 C          -0.7235   -1.9393    0.4328 C.ar    1  LIG1        0.0725
      3 C          -0.1639   -0.6082    0.4648 C.ar    1  LIG1        0.0375
      4 C          -1.0192    0.3225   -0.0942 C.ar    1  LIG1        0.0416
      5 S          -2.5113   -0.4384   -0.6421 S.2     1  LIG1       -0.0937
      6 H          -2.5949   -2.8606   -0.2675 H       1  LIG1        0.0707
      7 N           0.4781   -4.0336    1.3689 N.1     1  LIG1       -0.1908
      8 C          -0.0615   -3.0937    0.9460 C.1     1  LIG1        0.1008
      9 S           1.4082   -0.3445    1.2276 S.3     1  LIG1       -0.1403
     10 H           1.4242    0.9920    1.0646 H       1  LIG1        0.1072
     11 C          -0.8529    1.7609   -0.2463 C.ar    1  LIG1        0.0460
     12 C           0.1356    2.4542   -0.9320 C.ar    1  LIG1        0.0808
     13 C          -0.0135    3.8872   -0.8810 C.ar    1  LIG1        0.0381
     14 C          -1.1263    4.2684   -0.1559 C.ar    1  LIG1        0.0422
     15 S          -1.9826    2.8686    0.4727 S.2     1  LIG1       -0.0847
     16 N           2.0032    1.3025   -2.3061 N.1     1  LIG1       -0.1908
     17 C           1.1610    1.8098   -1.6838 C.1     1  LIG1        0.1014
     18 S           1.1223    4.9093   -1.7701 S.3     1  LIG1       -0.1402
     19 H           0.5194    6.0769   -1.4762 H       1  LIG1        0.1072
     20 C          -1.6427    5.6035    0.1121 C.ar    1  LIG1        0.0460
     21 C          -1.0208    6.6539    0.7740 C.ar    1  LIG1        0.0808
     22 C          -1.8318    7.8411    0.8728 C.ar    1  LIG1        0.0381
     23 C          -3.0720    7.6753    0.2881 C.ar    1  LIG1        0.0422
     24 S          -3.2382    6.0663   -0.3968 S.2     1  LIG1       -0.0847
     25 N           1.3217    6.4658    1.8604 N.1     1  LIG1       -0.1908
     26 C           0.2705    6.5433    1.3673 C.1     1  LIG1        0.1014
     27 S          -1.2141    9.2497    1.7458 S.3     1  LIG1       -0.1402
     28 H          -2.3190   10.0025    1.5850 H       1  LIG1        0.1072
     29 C          -4.1804    8.6167    0.1895 C.ar    1  LIG1        0.0454
     30 C          -4.2141    9.8454   -0.4585 C.ar    1  LIG1        0.0802
     31 C          -5.4911   10.5090   -0.3611 C.ar    1  LIG1        0.0298
     32 C          -6.3996    9.7647    0.3411 C.ar    1  LIG1       -0.0093
     33 S          -5.7274    8.2721    0.9106 S.2     1  LIG1       -0.0937
     34 H          -7.4298   10.0068    0.5606 H       1  LIG1        0.0705
     35 N          -2.2222   10.8155   -1.7975 N.1     1  LIG1       -0.1908
     36 C          -3.1119   10.3714   -1.1929 C.1     1  LIG1        0.1014
     37 S          -5.7479   12.0954   -1.1175 S.3     1  LIG1       -0.1408
     38 H          -7.0365   12.2135   -0.7431 H       1  LIG1        0.1072
@<TRIPOS>BOND
     1    16    17    3
     2    35    36    3
     3    18    19    1
     4    18    13    1
     5    17    12    1
     6    36    30    1
     7    37    38    1
     8    37    31    1
     9    12    13   ar
    10    12    11   ar
    11    13    14   ar
    12     5     1   ar
    13     5     4   ar
    14    30    31   ar
    15    30    29   ar
    16    24    20   ar
    17    24    23   ar
    18    31    32   ar
    19     6     1    1
    20    11     4    1
    21    11    15   ar
    22    14    20    1
    23    14    15   ar
    24     1     2   ar
    25     4     3   ar
    26    20    21   ar
    27    29    23    1
    28    29    33   ar
    29    23    22   ar
    30    32    34    1
    31    32    33   ar
    32     2     3   ar
    33     2     8    1
    34     3     9    1
    35    21    22   ar
    36    21    26    1
    37    22    27    1
    38     8     7    3
    39    10     9    1
    40    26    25    3
    41    28    27    1
