@<TRIPOS>MOLECULE
mol_data/opt/b3lyp/geoms/mol2/5dg5dg-5dg5dg.out
 38 41 0 0 0
SMALL
GASTEIGER

@<TRIPOS>ATOM
      1 C          -2.0008   -1.9785    0.2970 C.ar    1  LIG1       -0.0052
      2 C          -0.7485   -1.9513   -0.2702 C.ar    1  LIG1        0.0725
      3 C          -0.1842   -0.6234   -0.3352 C.ar    1  LIG1        0.0375
      4 C          -1.0347    0.3234    0.2035 C.ar    1  LIG1        0.0416
      5 S          -2.5281   -0.4188    0.7730 S.2     1  LIG1       -0.0937
      6 H          -2.6214   -2.8489    0.4563 H       1  LIG1        0.0707
      7 N           0.4432   -4.0716   -1.1594 N.1     1  LIG1       -0.1908
      8 C          -0.0919   -3.1200   -0.7576 C.1     1  LIG1        0.1008
      9 S           1.3868   -0.3835   -1.1083 S.3     1  LIG1       -0.1403
     10 H           1.4084    0.9563   -0.9761 H       1  LIG1        0.1072
     11 C          -0.8628    1.7644    0.3213 C.ar    1  LIG1        0.0460
     12 C           0.1302    2.4699    0.9876 C.ar    1  LIG1        0.0808
     13 C          -0.0139    3.9019    0.9034 C.ar    1  LIG1        0.0381
     14 C          -1.1274    4.2700    0.1728 C.ar    1  LIG1        0.0422
     15 S          -1.9907    2.8591   -0.4202 S.2     1  LIG1       -0.0847
     16 N           1.9975    1.3437    2.3832 N.1     1  LIG1       -0.1908
     17 C           1.1554    1.8395    1.7515 C.1     1  LIG1        0.1014
     18 S           1.1281    4.9404    1.7652 S.3     1  LIG1       -0.1402
     19 H           0.5272    6.1028    1.4475 H       1  LIG1        0.1072
     20 C          -1.6398    5.6002   -0.1252 C.ar    1  LIG1        0.0460
     21 C          -1.0155    6.6330   -0.8123 C.ar    1  LIG1        0.0808
     22 C          -1.8228    7.8203   -0.9374 C.ar    1  LIG1        0.0381
     23 C          -3.0625    7.6722   -0.3470 C.ar    1  LIG1        0.0422
     24 S          -3.2330    6.0800    0.3753 S.2     1  LIG1       -0.0847
     25 N           1.3242    6.4116   -1.8984 N.1     1  LIG1       -0.1908
     26 C           0.2742    6.5042   -1.4052 C.1     1  LIG1        0.1014
     27 S          -1.2020    9.2061   -1.8436 S.3     1  LIG1       -0.1402
     28 H          -2.3040    9.9662   -1.6986 H       1  LIG1        0.1072
     29 C          -4.1678    8.6192   -0.2687 C.ar    1  LIG1        0.0454
     30 C          -4.1968    9.8627    0.3506 C.ar    1  LIG1        0.0802
     31 C          -5.4719   10.5278    0.2398 C.ar    1  LIG1        0.0298
     32 C          -6.3838    9.7702   -0.4436 C.ar    1  LIG1       -0.0093
     33 S          -5.7170    8.2627   -0.9794 S.2     1  LIG1       -0.0937
     34 H          -7.4136   10.0102   -0.6670 H       1  LIG1        0.0705
     35 N          -2.1996   10.8570    1.6639 N.1     1  LIG1       -0.1908
     36 C          -3.0918   10.4020    1.0711 C.1     1  LIG1        0.1014
     37 S          -5.7227   12.1320    0.9598 S.3     1  LIG1       -0.1408
     38 H          -7.0106   12.2467    0.5821 H       1  LIG1        0.1072
@<TRIPOS>BOND
     1    25    26    3
     2    27    28    1
     3    27    22    1
     4    26    21    1
     5     7     8    3
     6     9    10    1
     7     9     3    1
     8    33    32   ar
     9    33    29   ar
    10    22    21   ar
    11    22    23   ar
    12    21    20   ar
    13     8     2    1
    14    34    32    1
    15    32    31   ar
    16    15    14   ar
    17    15    11   ar
    18    23    29    1
    19    23    24   ar
    20     3     2   ar
    21     3     4   ar
    22     2     1   ar
    23    29    30   ar
    24    20    14    1
    25    20    24   ar
    26    14    13   ar
    27     4    11    1
    28     4     5   ar
    29    31    30   ar
    30    31    37    1
    31     1     6    1
    32     1     5   ar
    33    11    12   ar
    34    30    36    1
    35    38    37    1
    36    13    12   ar
    37    13    18    1
    38    12    17    1
    39    36    35    3
    40    19    18    1
    41    17    16    3
