@<TRIPOS>MOLECULE
mol_data/opt/b3lyp/geoms/mol2/5dg5dg-5dg-.out
 29 31 0 0 0
SMALL
GASTEIGER

@<TRIPOS>ATOM
      1 C          -1.6257   -1.7260    1.4275 C.ar    1  LIG1       -0.0052
      2 C          -0.8898   -1.8923    0.2776 C.ar    1  LIG1        0.0725
      3 C          -0.4511   -0.6429   -0.2983 C.ar    1  LIG1        0.0375
      4 C          -0.8665    0.4426    0.4479 C.ar    1  LIG1        0.0416
      5 S          -1.8013   -0.0742    1.8485 S.2     1  LIG1       -0.0937
      6 H          -2.0582   -2.5055    2.0385 H       1  LIG1        0.0707
      7 N          -0.3841   -4.2122   -0.7560 N.1     1  LIG1       -0.1908
      8 C          -0.6096   -3.1710   -0.2884 C.1     1  LIG1        0.1008
      9 S           0.4461   -0.6531   -1.8222 S.3     1  LIG1       -0.1403
     10 H           0.5828    0.6832   -1.9140 H       1  LIG1        0.1072
     11 C          -0.6572    1.8652    0.2094 C.ar    1  LIG1        0.0460
     12 C           0.5384    2.5680    0.1459 C.ar    1  LIG1        0.0808
     13 C           0.3723    3.9782   -0.1037 C.ar    1  LIG1        0.0381
     14 C          -0.9572    4.3379   -0.2003 C.ar    1  LIG1        0.0422
     15 S          -2.0038    2.9389   -0.0193 S.2     1  LIG1       -0.0847
     16 N           2.8631    1.4852    0.5013 N.1     1  LIG1       -0.1908
     17 C           1.8128    1.9615    0.3458 C.1     1  LIG1        0.1014
     18 S           1.7989    5.0080   -0.2845 S.3     1  LIG1       -0.1402
     19 H           1.1150    6.1436   -0.5220 H       1  LIG1        0.1072
     20 C          -1.5442    5.6515   -0.4387 C.ar    1  LIG1        0.0454
     21 C          -1.4672    6.7908    0.3525 C.ar    1  LIG1        0.0802
     22 C          -2.1854    7.9164   -0.1933 C.ar    1  LIG1        0.0298
     23 C          -2.8023    7.6035   -1.3740 C.ar    1  LIG1       -0.0093
     24 S          -2.5116    5.9637   -1.8526 S.2     1  LIG1       -0.0937
     25 H          -3.4129    8.2435   -1.9950 H       1  LIG1        0.0705
     26 N          -0.2438    6.8864    2.6320 N.1     1  LIG1       -0.1908
     27 C          -0.7897    6.8305    1.6058 C.1     1  LIG1        0.1014
     28 S          -2.2137    9.4740    0.6600 S.3     1  LIG1       -0.1408
     29 H          -2.9897   10.1050   -0.2424 H       1  LIG1        0.1072
@<TRIPOS>BOND
     1    25    23    1
     2    10     9    1
     3    24    23   ar
     4    24    20   ar
     5     9     3    1
     6    23    22   ar
     7     7     8    3
     8    19    18    1
     9    20    14    1
    10    20    21   ar
    11     3     2   ar
    12     3     4   ar
    13     8     2    1
    14    18    13    1
    15    29    28    1
    16    14    13   ar
    17    14    15   ar
    18    22    21   ar
    19    22    28    1
    20    13    12   ar
    21    15    11   ar
    22    12    11   ar
    23    12    17    1
    24    11     4    1
    25     2     1   ar
    26    17    16    3
    27    21    27    1
    28     4     5   ar
    29     1     5   ar
    30     1     6    1
    31    27    26    3
