@<TRIPOS>MOLECULE
mol_data/opt/b3lyp/geoms/mol2/5dg5dg-.out
 20 21 0 0 0
SMALL
GASTEIGER

@<TRIPOS>ATOM
      1 C          -1.9658   -1.7875    0.7372 C.ar    1  LIG1       -0.0052
      2 C          -0.7950   -1.8666    0.0199 C.ar    1  LIG1        0.0725
      3 C          -0.2739   -0.5733   -0.3555 C.ar    1  LIG1        0.0375
      4 C          -1.0702    0.4576    0.1020 C.ar    1  LIG1        0.0416
      5 S          -2.4613   -0.1655    0.9848 S.2     1  LIG1       -0.0937
      6 H          -2.5435   -2.6130    1.1279 H       1  LIG1        0.0707
      7 N           0.3252   -4.1139   -0.6134 N.1     1  LIG1       -0.1908
      8 C          -0.1779   -3.1050   -0.3261 C.1     1  LIG1        0.1008
      9 S           1.1893   -0.4714   -1.3436 S.3     1  LIG1       -0.1403
     10 H           1.2061    0.8726   -1.4258 H       1  LIG1        0.1072
     11 C          -0.9103    1.8965   -0.0686 C.ar    1  LIG1        0.0454
     12 C           0.1198    2.7148    0.3775 C.ar    1  LIG1        0.0802
     13 C          -0.0579    4.1029    0.0265 C.ar    1  LIG1        0.0298
     14 C          -1.2221    4.3106   -0.6612 C.ar    1  LIG1       -0.0093
     15 S          -2.1048    2.8406   -0.9149 S.2     1  LIG1       -0.0937
     16 H          -1.6153    5.2450   -1.0358 H       1  LIG1        0.0705
     17 N           2.1265    1.8815    1.7849 N.1     1  LIG1       -0.1908
     18 C           1.2190    2.2415    1.1516 C.1     1  LIG1        0.1014
     19 S           1.1479    5.3197    0.4993 S.3     1  LIG1       -0.1408
     20 H           0.5026    6.3655   -0.0523 H       1  LIG1        0.1072
@<TRIPOS>BOND
     1    10     9    1
     2     9     3    1
     3    16    14    1
     4    15    14   ar
     5    15    11   ar
     6    14    13   ar
     7     7     8    3
     8     3     2   ar
     9     3     4   ar
    10     8     2    1
    11    11     4    1
    12    11    12   ar
    13    20    19    1
    14     2     1   ar
    15    13    12   ar
    16    13    19    1
    17     4     5   ar
    18    12    18    1
    19     1     5   ar
    20     1     6    1
    21    18    17    3
