@<TRIPOS>MOLECULE
mol_data/opt/b3lyp/geoms/mol2/5dg5dg5dg-5dg.out
 38 41 0 0 0
SMALL
GASTEIGER

@<TRIPOS>ATOM
      1 C          -1.0790   -1.5282    2.1961 C.ar    1  LIG1       -0.0052
      2 C          -0.9896   -1.8130    0.8536 C.ar    1  LIG1        0.0725
      3 C          -0.7905   -0.6380    0.0385 C.ar    1  LIG1        0.0375
      4 C          -0.7254    0.5125    0.8005 C.ar    1  LIG1        0.0416
      5 S          -0.9187    0.1481    2.5129 S.2     1  LIG1       -0.0937
      6 H          -1.2234   -2.2354    3.0006 H       1  LIG1        0.0707
      7 N          -1.1957   -4.2108   -0.1029 N.1     1  LIG1       -0.1908
      8 C          -1.1005   -3.1349    0.3294 C.1     1  LIG1        0.1008
      9 S          -0.7281   -0.7998   -1.7212 S.3     1  LIG1       -0.1403
     10 H          -0.5534    0.5102   -1.9778 H       1  LIG1        0.1072
     11 C          -0.5534    1.8963    0.3768 C.ar    1  LIG1        0.0460
     12 C           0.5118    2.4698   -0.3043 C.ar    1  LIG1        0.0808
     13 C           0.3521    3.8806   -0.5537 C.ar    1  LIG1        0.0381
     14 C          -0.8281    4.3713   -0.0308 C.ar    1  LIG1        0.0422
     15 S          -1.7600    3.0939    0.7348 S.2     1  LIG1       -0.0847
     16 N           2.6335    1.1677   -1.0157 N.1     1  LIG1       -0.1908
     17 C           1.6765    1.7433   -0.6883 C.1     1  LIG1        0.1014
     18 S           1.5876    4.7461   -1.4770 S.3     1  LIG1       -0.1402
     19 H           0.9740    5.9440   -1.4376 H       1  LIG1        0.1072
     20 C          -1.3576    5.7298   -0.0598 C.ar    1  LIG1        0.0460
     21 C          -0.8157    6.8799    0.4975 C.ar    1  LIG1        0.0808
     22 C          -1.6145    8.0607    0.2855 C.ar    1  LIG1        0.0381
     23 C          -2.7746    7.7871   -0.4117 C.ar    1  LIG1        0.0422
     24 S          -2.8712    6.0854   -0.8345 S.2     1  LIG1       -0.0847
     25 N           1.3910    6.9130    1.8511 N.1     1  LIG1       -0.1908
     26 C           0.3992    6.8876    1.2431 C.1     1  LIG1        0.1014
     27 S          -1.0348    9.6260    0.8706 S.3     1  LIG1       -0.1402
     28 H          -2.0836   10.3362    0.4131 H       1  LIG1        0.1072
     29 C          -3.8426    8.6943   -0.8172 C.ar    1  LIG1        0.0454
     30 C          -4.7023    9.4298   -0.0111 C.ar    1  LIG1        0.0802
     31 C          -5.6496   10.2210   -0.7573 C.ar    1  LIG1        0.0298
     32 C          -5.4978   10.0574   -2.1076 C.ar    1  LIG1       -0.0093
     33 S          -4.2071    8.9689   -2.4971 S.2     1  LIG1       -0.0937
     34 H          -6.0707   10.5157   -2.9012 H       1  LIG1        0.0705
     35 N          -4.6837    9.3346    2.5760 N.1     1  LIG1       -0.1908
     36 C          -4.6826    9.3696    1.4128 C.1     1  LIG1        0.1014
     37 S          -6.8394   11.2393    0.0804 S.3     1  LIG1       -0.1408
     38 H          -7.4300   11.7003   -1.0391 H       1  LIG1        0.1072
@<TRIPOS>BOND
     1    34    32    1
     2    33    32   ar
     3    33    29   ar
     4    32    31   ar
     5    10     9    1
     6     9     3    1
     7    18    19    1
     8    18    13    1
     9    38    37    1
    10    16    17    3
    11    24    23   ar
    12    24    20   ar
    13    29    23    1
    14    29    30   ar
    15    31    30   ar
    16    31    37    1
    17    17    12    1
    18    13    12   ar
    19    13    14   ar
    20    23    22   ar
    21    12    11   ar
    22     7     8    3
    23    20    14    1
    24    20    21   ar
    25    14    15   ar
    26    30    36    1
    27     3     4   ar
    28     3     2   ar
    29    22    21   ar
    30    22    27    1
    31     8     2    1
    32    11    15   ar
    33    11     4    1
    34    28    27    1
    35    21    26    1
    36     4     5   ar
    37     2     1   ar
    38    26    25    3
    39    36    35    3
    40     1     5   ar
    41     1     6    1
