@<TRIPOS>MOLECULE
mol_data/opt/b3lyp/geoms/mol2/5dg5dg-5dg5dg-.out
 38 41 0 0 0
SMALL
GASTEIGER

@<TRIPOS>ATOM
      1 C          -1.0437   -1.5302    2.1977 C.ar    1  LIG1       -0.0052
      2 C          -0.9815   -1.8146    0.8535 C.ar    1  LIG1        0.0725
      3 C          -0.7970   -0.6394    0.0351 C.ar    1  LIG1        0.0375
      4 C          -0.7153    0.5106    0.7961 C.ar    1  LIG1        0.0416
      5 S          -0.8750    0.1457    2.5119 S.2     1  LIG1       -0.0937
      6 H          -1.1730   -2.2376    3.0045 H       1  LIG1        0.0707
      7 N          -1.2097   -4.2117   -0.0996 N.1     1  LIG1       -0.1908
      8 C          -1.1044   -3.1360    0.3311 C.1     1  LIG1        0.1008
      9 S          -0.7701   -0.8007   -1.7255 S.3     1  LIG1       -0.1403
     10 H          -0.5983    0.5090   -1.9853 H       1  LIG1        0.1072
     11 C          -0.5500    1.8944    0.3697 C.ar    1  LIG1        0.0460
     12 C           0.5018    2.4667   -0.3329 C.ar    1  LIG1        0.0808
     13 C           0.3391    3.8779   -0.5783 C.ar    1  LIG1        0.0381
     14 C          -0.8293    4.3701   -0.0310 C.ar    1  LIG1        0.0422
     15 S          -1.7472    3.0936    0.7531 S.2     1  LIG1       -0.0847
     16 N           2.6066    1.1621   -1.0885 N.1     1  LIG1       -0.1908
     17 C           1.6574    1.7387   -0.7412 C.1     1  LIG1        0.1014
     18 S           1.5567    4.7422   -1.5262 S.3     1  LIG1       -0.1402
     19 H           0.9449    5.9406   -1.4748 H       1  LIG1        0.1072
     20 C          -1.3574    5.7293   -0.0482 C.ar    1  LIG1        0.0460
     21 C          -0.8024    6.8784    0.4983 C.ar    1  LIG1        0.0808
     22 C          -1.6038    8.0603    0.3036 C.ar    1  LIG1        0.0381
     23 C          -2.7784    7.7887   -0.3696 C.ar    1  LIG1        0.0422
     24 S          -2.8861    6.0875   -0.7913 S.2     1  LIG1       -0.0847
     25 N           1.4319    6.9078    1.8060 N.1     1  LIG1       -0.1908
     26 C           0.4277    6.8840    1.2186 C.1     1  LIG1        0.1014
     27 S          -1.0101    9.6245    0.8775 S.3     1  LIG1       -0.1402
     28 H          -2.0678   10.3362    0.4432 H       1  LIG1        0.1072
     29 C          -3.8533    8.6977   -0.7524 C.ar    1  LIG1        0.0454
     30 C          -4.6956    9.4332    0.0718 C.ar    1  LIG1        0.0802
     31 C          -5.6567   10.2266   -0.6542 C.ar    1  LIG1        0.0298
     32 C          -5.5324   10.0645   -2.0075 C.ar    1  LIG1       -0.0093
     33 S          -4.2513    8.9749   -2.4243 S.2     1  LIG1       -0.0937
     34 H          -6.1208   10.5244   -2.7888 H       1  LIG1        0.0705
     35 N          -4.6246    9.3348    2.6578 N.1     1  LIG1       -0.1908
     36 C          -4.6471    9.3714    1.4949 C.1     1  LIG1        0.1014
     37 S          -6.8282   11.2453    0.2087 S.3     1  LIG1       -0.1408
     38 H          -7.4395   11.7099   -0.8982 H       1  LIG1        0.1072
@<TRIPOS>BOND
     1    34    32    1
     2    33    32   ar
     3    33    29   ar
     4    32    31   ar
     5    10     9    1
     6     9     3    1
     7    18    19    1
     8    18    13    1
     9    16    17    3
    10    38    37    1
    11    24    23   ar
    12    24    20   ar
    13    29    23    1
    14    29    30   ar
    15    17    12    1
    16    31    30   ar
    17    31    37    1
    18    13    12   ar
    19    13    14   ar
    20    23    22   ar
    21    12    11   ar
    22     7     8    3
    23    20    14    1
    24    20    21   ar
    25    14    15   ar
    26     3     4   ar
    27     3     2   ar
    28    30    36    1
    29    22    21   ar
    30    22    27    1
    31     8     2    1
    32    11    15   ar
    33    11     4    1
    34    28    27    1
    35    21    26    1
    36     4     5   ar
    37     2     1   ar
    38    26    25    3
    39    36    35    3
    40     1     5   ar
    41     1     6    1
