@<TRIPOS>MOLECULE
mol_data/opt/b3lyp/geoms/mol2/5dg5dg-5dg-5dg.out
 38 41 0 0 0
SMALL
GASTEIGER

@<TRIPOS>ATOM
      1 C          -1.9260   -1.9826   -0.2282 C.ar    1  LIG1       -0.0052
      2 C          -0.7112   -1.9388    0.4146 C.ar    1  LIG1        0.0725
      3 C          -0.1628   -0.6054    0.5003 C.ar    1  LIG1        0.0375
      4 C          -0.9862    0.3285   -0.0995 C.ar    1  LIG1        0.0416
      5 S          -2.4357   -0.4323   -0.7518 S.2     1  LIG1       -0.0937
      6 H          -2.5285   -2.8599   -0.4162 H       1  LIG1        0.0707
      7 N           0.4409   -4.0397    1.3972 N.1     1  LIG1       -0.1908
      8 C          -0.0763   -3.0968    0.9535 C.1     1  LIG1        0.1008
      9 S           1.3559   -0.3443    1.3653 S.3     1  LIG1       -0.1403
     10 H           1.3734    0.9945    1.2232 H       1  LIG1        0.1072
     11 C          -0.8195    1.7699   -0.2211 C.ar    1  LIG1        0.0460
     12 C           0.2068    2.4781   -0.8320 C.ar    1  LIG1        0.0808
     13 C           0.0454    3.9094   -0.7715 C.ar    1  LIG1        0.0381
     14 C          -1.1144    4.2743   -0.1148 C.ar    1  LIG1        0.0422
     15 S          -2.0004    2.8612    0.4381 S.2     1  LIG1       -0.0847
     16 N           2.1667    1.3563   -2.0980 N.1     1  LIG1       -0.1908
     17 C           1.2827    1.8500   -1.5247 C.1     1  LIG1        0.1014
     18 S           1.2296    4.9501   -1.5713 S.3     1  LIG1       -0.1402
     19 H           0.6016    6.1101   -1.3010 H       1  LIG1        0.1072
     20 C          -1.6555    5.6026    0.1372 C.ar    1  LIG1        0.0460
     21 C          -1.0843    6.6472    0.8520 C.ar    1  LIG1        0.0808
     22 C          -1.9074    7.8284    0.9142 C.ar    1  LIG1        0.0381
     23 C          -3.1062    7.6640    0.2482 C.ar    1  LIG1        0.0422
     24 S          -3.2177    6.0639   -0.4677 S.2     1  LIG1       -0.0847
     25 N           1.1843    6.4565    2.0849 N.1     1  LIG1       -0.1908
     26 C           0.1666    6.5353    1.5260 C.1     1  LIG1        0.1014
     27 S          -1.3566    9.2284    1.8440 S.3     1  LIG1       -0.1402
     28 H          -2.4537    9.9770    1.6222 H       1  LIG1        0.1072
     29 C          -4.2119    8.6009    0.0909 C.ar    1  LIG1        0.0454
     30 C          -4.2113    9.8379   -0.5419 C.ar    1  LIG1        0.0802
     31 C          -5.4959   10.4935   -0.5181 C.ar    1  LIG1        0.0298
     32 C          -6.4430    9.7352    0.1146 C.ar    1  LIG1       -0.0093
     33 S          -5.7997    8.2387    0.7067 S.2     1  LIG1       -0.0937
     34 H          -7.4866    9.9690    0.2704 H       1  LIG1        0.0705
     35 N          -2.1430   10.8355   -1.7372 N.1     1  LIG1       -0.1908
     36 C          -3.0673   10.3791   -1.1970 C.1     1  LIG1        0.1014
     37 S          -5.7132   12.0884   -1.2691 S.3     1  LIG1       -0.1408
     38 H          -7.0231   12.1963   -0.9742 H       1  LIG1        0.1072
@<TRIPOS>BOND
     1    16    17    3
     2    35    36    3
     3    18    19    1
     4    18    13    1
     5    17    12    1
     6    37    38    1
     7    37    31    1
     8    36    30    1
     9    12    13   ar
    10    12    11   ar
    11    13    14   ar
    12     5     1   ar
    13     5     4   ar
    14    30    31   ar
    15    30    29   ar
    16    31    32   ar
    17    24    20   ar
    18    24    23   ar
    19     6     1    1
    20     1     2   ar
    21    11     4    1
    22    11    15   ar
    23    14    20    1
    24    14    15   ar
    25     4     3   ar
    26    29    23    1
    27    29    33   ar
    28    32    34    1
    29    32    33   ar
    30    20    21   ar
    31    23    22   ar
    32     2     3   ar
    33     2     8    1
    34     3     9    1
    35    21    22   ar
    36    21    26    1
    37    22    27    1
    38     8     7    3
    39    10     9    1
    40    26    25    3
    41    28    27    1
