@<TRIPOS>MOLECULE
mol_data/opt/b3lyp/geoms/mol2/5dg5dg.out
 20 21 0 0 0
SMALL
GASTEIGER

@<TRIPOS>ATOM
      1 C          -1.9668   -1.7724    0.8013 C.ar    1  LIG1       -0.0052
      2 C          -0.7927   -1.8656    0.0911 C.ar    1  LIG1        0.0725
      3 C          -0.2712   -0.5801   -0.3097 C.ar    1  LIG1        0.0375
      4 C          -1.0704    0.4596    0.1224 C.ar    1  LIG1        0.0416
      5 S          -2.4649   -0.1459    1.0120 S.2     1  LIG1       -0.0937
      6 H          -2.5455   -2.5900    1.2071 H       1  LIG1        0.0707
      7 N           0.3324   -4.1248   -0.4890 N.1     1  LIG1       -0.1908
      8 C          -0.1729   -3.1104   -0.2256 C.1     1  LIG1        0.1008
      9 S           1.1962   -0.4980   -1.2941 S.3     1  LIG1       -0.1403
     10 H           1.2106    0.8438   -1.4074 H       1  LIG1        0.1072
     11 C          -0.9112    1.8946   -0.0787 C.ar    1  LIG1        0.0454
     12 C           0.1179    2.7226    0.3517 C.ar    1  LIG1        0.0802
     13 C          -0.0600    4.1030   -0.0289 C.ar    1  LIG1        0.0298
     14 C          -1.2233    4.2954   -0.7225 C.ar    1  LIG1       -0.0093
     15 S          -2.1049    2.8199   -0.9464 S.2     1  LIG1       -0.0937
     16 H          -1.6163    5.2215   -1.1174 H       1  LIG1        0.0705
     17 N           2.1216    1.9198    1.7808 N.1     1  LIG1       -0.1908
     18 C           1.2155    2.2664    1.1379 C.1     1  LIG1        0.1014
     19 S           1.1443    5.3297    0.4199 S.3     1  LIG1       -0.1408
     20 H           0.4992    6.3636   -0.1540 H       1  LIG1        0.1072
@<TRIPOS>BOND
     1    10     9    1
     2     9     3    1
     3    16    14    1
     4    15    14   ar
     5    15    11   ar
     6    14    13   ar
     7     7     8    3
     8     3     2   ar
     9     3     4   ar
    10     8     2    1
    11    20    19    1
    12    11     4    1
    13    11    12   ar
    14    13    12   ar
    15    13    19    1
    16     2     1   ar
    17     4     5   ar
    18    12    18    1
    19     1     5   ar
    20     1     6    1
    21    18    17    3
