@<TRIPOS>MOLECULE
mol_data/opt/b3lyp/geoms/mol2/5dh.out
 12 12 0 0 0
SMALL
GASTEIGER

@<TRIPOS>ATOM
      1 C          -2.1462   -1.7155    0.0428 C.ar    1  LIG1       -0.0051
      2 C          -0.7703   -1.6881   -0.0089 C.ar    1  LIG1        0.0793
      3 C          -0.2288   -0.3447   -0.0539 C.ar    1  LIG1        0.0492
      4 C          -1.2307    0.5942   -0.0434 C.ar    1  LIG1       -0.0024
      5 S          -2.8093   -0.1331    0.0358 S.2     1  LIG1       -0.1019
      6 H          -2.7804   -2.5891    0.0771 H       1  LIG1        0.0707
      7 H          -1.1308    1.6697   -0.0564 H       1  LIG1        0.0712
      8 N           0.7843   -3.7553   -0.0744 N.1     1  LIG1       -0.1908
      9 C           0.0591   -2.8445   -0.0360 C.1     1  LIG1        0.1015
     10 N           1.1374   -0.1008   -0.0387 N.pl3   1  LIG1       -0.3566
     11 H           1.7116   -0.8593   -0.3829 H       1  LIG1        0.1424
     12 H           1.4227    0.7954   -0.4069 H       1  LIG1        0.1424
@<TRIPOS>BOND
     1    12    10    1
     2    11    10    1
     3     8     9    3
     4     7     4    1
     5     3     4   ar
     6     3    10    1
     7     3     2   ar
     8     4     5   ar
     9     9     2    1
    10     2     1   ar
    11     5     1   ar
    12     1     6    1
