@<TRIPOS>MOLECULE
mol_data/opt/b3lyp/geoms/mol2/5dh5dh5dh.out
 32 34 0 0 0
SMALL
GASTEIGER

@<TRIPOS>ATOM
      1 C          -2.0683   -1.7365   -1.0310 C.ar    1  LIG1       -0.0045
      2 C          -0.9511   -1.9052   -0.2493 C.ar    1  LIG1        0.0800
      3 C          -0.2870   -0.6636    0.0951 C.ar    1  LIG1        0.0577
      4 C          -0.9433    0.4340   -0.4664 C.ar    1  LIG1        0.0491
      5 S          -2.3500   -0.0900   -1.4019 S.2     1  LIG1       -0.0929
      6 H          -2.7104   -2.5130   -1.4213 H       1  LIG1        0.0707
      7 N          -0.0226   -4.1688    0.5918 N.1     1  LIG1       -0.1908
      8 C          -0.4663   -3.1664    0.1987 C.1     1  LIG1        0.1016
      9 N           0.7786   -0.6543    0.9580 N.pl3   1  LIG1       -0.3561
     10 H           1.1705   -1.5613    1.1739 H       1  LIG1        0.1424
     11 H           1.4779    0.0672    0.8543 H       1  LIG1        0.1424
     12 C          -0.7067    1.8495   -0.3040 C.ar    1  LIG1        0.0475
     13 C           0.4901    2.5583   -0.2287 C.ar    1  LIG1        0.0883
     14 C           0.3425    3.9870   -0.0555 C.ar    1  LIG1        0.0583
     15 C          -0.9965    4.3686   -0.0422 C.ar    1  LIG1        0.0497
     16 S          -2.0466    2.9562   -0.1977 S.2     1  LIG1       -0.0839
     17 N           2.8387    1.5056   -0.4569 N.1     1  LIG1       -0.1908
     18 C           1.7723    1.9714   -0.3680 C.1     1  LIG1        0.1022
     19 N           1.4400    4.7880    0.1486 N.pl3   1  LIG1       -0.3561
     20 H           2.3350    4.3515   -0.0281 H       1  LIG1        0.1424
     21 H           1.3995    5.7421   -0.1813 H       1  LIG1        0.1424
     22 C          -1.6027    5.6615    0.1786 C.ar    1  LIG1        0.0469
     23 C          -1.2123    6.9267   -0.2615 C.ar    1  LIG1        0.0876
     24 C          -2.0799    8.0000    0.1740 C.ar    1  LIG1        0.0499
     25 C          -3.1342    7.5263    0.9107 C.ar    1  LIG1       -0.0018
     26 S          -3.0559    5.8046    1.1355 S.2     1  LIG1       -0.0929
     27 H          -3.9432    8.0917    1.3499 H       1  LIG1        0.0712
     28 N           0.7961    7.3912   -1.8190 N.1     1  LIG1       -0.1908
     29 C          -0.1147    7.1693   -1.1233 C.1     1  LIG1        0.1022
     30 N          -1.8014    9.3292   -0.1108 N.pl3   1  LIG1       -0.3565
     31 H          -1.2465    9.4863   -0.9421 H       1  LIG1        0.1424
     32 H          -2.5904    9.9573   -0.0527 H       1  LIG1        0.1424
@<TRIPOS>BOND
     1    28    29    3
     2     6     1    1
     3     5     1   ar
     4     5     4   ar
     5    29    23    1
     6     1     2   ar
     7    31    30    1
     8     4    12    1
     9     4     3   ar
    10    17    18    3
    11    18    13    1
    12    12    13   ar
    13    12    16   ar
    14    23    24   ar
    15    23    22   ar
    16     2     3   ar
    17     2     8    1
    18    13    14   ar
    19    16    15   ar
    20    21    19    1
    21    30    32    1
    22    30    24    1
    23    14    15   ar
    24    14    19    1
    25    15    22    1
    26    20    19    1
    27     3     9    1
    28    24    25   ar
    29    22    26   ar
    30     8     7    3
    31    11     9    1
    32    25    26   ar
    33    25    27    1
    34     9    10    1
