@<TRIPOS>MOLECULE
mol_data/opt/b3lyp/geoms/mol2/5dh5dh5dh5dh-.out
 42 45 0 0 0
SMALL
GASTEIGER

@<TRIPOS>ATOM
      1 C          -1.9494   -1.5757   -1.6464 C.ar    1  LIG1       -0.0045
      2 C          -1.1256   -1.8361   -0.5785 C.ar    1  LIG1        0.0800
      3 C          -0.4956   -0.6535   -0.0254 C.ar    1  LIG1        0.0577
      4 C          -0.8723    0.4951   -0.7270 C.ar    1  LIG1        0.0491
      5 S          -1.9825    0.0883   -2.0431 S.2     1  LIG1       -0.0929
      6 H          -2.5074   -2.2970   -2.2263 H       1  LIG1        0.0707
      7 N          -0.6620   -4.1679    0.4416 N.1     1  LIG1       -0.1908
      8 C          -0.8924   -3.1329   -0.0399 C.1     1  LIG1        0.1016
      9 N           0.2681   -0.7337    1.1090 N.pl3   1  LIG1       -0.3561
     10 H           0.4998   -1.6699    1.4134 H       1  LIG1        0.1424
     11 H           1.0209   -0.0725    1.2371 H       1  LIG1        0.1424
     12 C          -0.5880    1.8859   -0.4663 C.ar    1  LIG1        0.0475
     13 C           0.5806    2.4966   -0.0169 C.ar    1  LIG1        0.0883
     14 C           0.4992    3.9330    0.1347 C.ar    1  LIG1        0.0583
     15 C          -0.7491    4.4220   -0.2507 C.ar    1  LIG1        0.0497
     16 S          -1.8096    3.0954   -0.7447 S.2     1  LIG1       -0.0839
     17 N           2.8029    1.2625    0.4454 N.1     1  LIG1       -0.1908
     18 C           1.7971    1.8104    0.2211 C.1     1  LIG1        0.1022
     19 N           1.5406    4.6372    0.6815 N.pl3   1  LIG1       -0.3561
     20 H           2.4069    4.1268    0.7886 H       1  LIG1        0.1424
     21 H           1.6789    5.5958    0.3941 H       1  LIG1        0.1424
     22 C          -1.2980    5.7536   -0.1872 C.ar    1  LIG1        0.0475
     23 C          -0.6994    6.9905   -0.4247 C.ar    1  LIG1        0.0883
     24 C          -1.5715    8.1322   -0.2567 C.ar    1  LIG1        0.0583
     25 C          -2.8690    7.7469    0.0706 C.ar    1  LIG1        0.0497
     26 S          -2.9779    5.9891    0.2120 S.2     1  LIG1       -0.0839
     27 N           1.7399    7.3196   -1.2094 N.1     1  LIG1       -0.1908
     28 C           0.6359    7.1580   -0.8662 C.1     1  LIG1        0.1022
     29 N          -1.0794    9.4120   -0.3450 N.pl3   1  LIG1       -0.3561
     30 H          -0.1444    9.4926   -0.7217 H       1  LIG1        0.1424
     31 H          -1.6986   10.1366   -0.6802 H       1  LIG1        0.1424
     32 C          -4.0313    8.5410    0.3952 C.ar    1  LIG1        0.0469
     33 C          -4.4894    9.7365   -0.1599 C.ar    1  LIG1        0.0876
     34 C          -5.7045   10.2423    0.4415 C.ar    1  LIG1        0.0499
     35 C          -6.1672    9.4032    1.4217 C.ar    1  LIG1       -0.0018
     36 S          -5.1164    8.0409    1.6683 S.2     1  LIG1       -0.0929
     37 H          -7.0551    9.5163    2.0264 H       1  LIG1        0.0712
     38 N          -3.3995   10.9436   -2.1674 N.1     1  LIG1       -0.1908
     39 C          -3.8895   10.3852   -1.2669 C.1     1  LIG1        0.1022
     40 N          -6.2604   11.4562    0.0630 N.pl3   1  LIG1       -0.3565
     41 H          -6.0492   11.7531   -0.8810 H       1  LIG1        0.1424
     42 H          -7.2376   11.5725    0.2910 H       1  LIG1        0.1424
@<TRIPOS>BOND
     1     6     1    1
     2    38    39    3
     3     5     1   ar
     4     5     4   ar
     5     1     2   ar
     6    39    33    1
     7    27    28    3
     8    41    40    1
     9    28    23    1
    10    16    12   ar
    11    16    15   ar
    12     4    12    1
    13     4     3   ar
    14    30    29    1
    15    31    29    1
    16     2     8    1
    17     2     3   ar
    18    12    13   ar
    19    23    24   ar
    20    23    22   ar
    21    29    24    1
    22    24    25   ar
    23    15    22    1
    24    15    14   ar
    25    22    26   ar
    26    33    32   ar
    27    33    34   ar
    28     8     7    3
    29     3     9    1
    30    13    14   ar
    31    13    18    1
    32    40    42    1
    33    40    34    1
    34    25    26   ar
    35    25    32    1
    36    14    19    1
    37    18    17    3
    38    21    19    1
    39    32    36   ar
    40    34    35   ar
    41    19    20    1
    42     9    11    1
    43     9    10    1
    44    35    36   ar
    45    35    37    1
