@<TRIPOS>MOLECULE
mol_data/opt/b3lyp/geoms/mol2/5dh5dh5dh-5dh.out
 42 45 0 0 0
SMALL
GASTEIGER

@<TRIPOS>ATOM
      1 C          -1.9365   -1.5695   -1.6736 C.ar    1  LIG1       -0.0045
      2 C          -1.1224   -1.8340   -0.5992 C.ar    1  LIG1        0.0800
      3 C          -0.4971   -0.6536   -0.0361 C.ar    1  LIG1        0.0577
      4 C          -0.8672    0.4976   -0.7369 C.ar    1  LIG1        0.0491
      5 S          -1.9655    0.0959   -2.0645 S.2     1  LIG1       -0.0929
      6 H          -2.4893   -2.2885   -2.2611 H       1  LIG1        0.0707
      7 N          -0.6685   -4.1697    0.4166 N.1     1  LIG1       -0.1908
      8 C          -0.8943   -3.1329   -0.0633 C.1     1  LIG1        0.1016
      9 N           0.2564   -0.7382    1.1047 N.pl3   1  LIG1       -0.3561
     10 H           0.4852   -1.6755    1.4077 H       1  LIG1        0.1424
     11 H           1.0081   -0.0776    1.2421 H       1  LIG1        0.1424
     12 C          -0.5850    1.8874   -0.4687 C.ar    1  LIG1        0.0475
     13 C           0.5795    2.4963   -0.0065 C.ar    1  LIG1        0.0883
     14 C           0.4970    3.9321    0.1497 C.ar    1  LIG1        0.0583
     15 C          -0.7477    4.4228   -0.2452 C.ar    1  LIG1        0.0497
     16 S          -1.8038    3.0981   -0.7536 S.2     1  LIG1       -0.0839
     17 N           2.7974    1.2603    0.4715 N.1     1  LIG1       -0.1908
     18 C           1.7937    1.8091    0.2401 C.1     1  LIG1        0.1022
     19 N           1.5335    4.6342    0.7084 N.pl3   1  LIG1       -0.3561
     20 H           2.3987    4.1231    0.8215 H       1  LIG1        0.1424
     21 H           1.6747    5.5937    0.4255 H       1  LIG1        0.1424
     22 C          -1.2971    5.7542   -0.1818 C.ar    1  LIG1        0.0475
     23 C          -0.6962    6.9919   -0.4093 C.ar    1  LIG1        0.0883
     24 C          -1.5697    8.1330   -0.2449 C.ar    1  LIG1        0.0583
     25 C          -2.8701    7.7468    0.0692 C.ar    1  LIG1        0.0497
     26 S          -2.9804    5.9884    0.2032 S.2     1  LIG1       -0.0839
     27 N           1.7501    7.3236   -1.1708 N.1     1  LIG1       -0.1908
     28 C           0.6431    7.1608   -0.8381 C.1     1  LIG1        0.1022
     29 N          -1.0766    9.4130   -0.3240 N.pl3   1  LIG1       -0.3561
     30 H          -0.1383    9.4949   -0.6922 H       1  LIG1        0.1424
     31 H          -1.6927   10.1391   -0.6619 H       1  LIG1        0.1424
     32 C          -4.0351    8.5398    0.3863 C.ar    1  LIG1        0.0469
     33 C          -4.4881    9.7375   -0.1685 C.ar    1  LIG1        0.0876
     34 C          -5.7086   10.2412    0.4238 C.ar    1  LIG1        0.0499
     35 C          -6.1802    9.3986    1.3965 C.ar    1  LIG1       -0.0018
     36 S          -5.1318    8.0352    1.6476 S.2     1  LIG1       -0.0929
     37 H          -7.0735    9.5095    1.9936 H       1  LIG1        0.0712
     38 N          -3.3800   10.9519   -2.1615 N.1     1  LIG1       -0.1908
     39 C          -3.8782   10.3901   -1.2677 C.1     1  LIG1        0.1022
     40 N          -6.2608   11.4566    0.0447 N.pl3   1  LIG1       -0.3565
     41 H          -6.0409   11.7571   -0.8961 H       1  LIG1        0.1424
     42 H          -7.2400   11.5722    0.2642 H       1  LIG1        0.1424
@<TRIPOS>BOND
     1     6     1    1
     2    38    39    3
     3     5     1   ar
     4     5     4   ar
     5     1     2   ar
     6    39    33    1
     7    27    28    3
     8    41    40    1
     9    28    23    1
    10    16    12   ar
    11    16    15   ar
    12     4    12    1
    13     4     3   ar
    14    30    29    1
    15    31    29    1
    16     2     8    1
    17     2     3   ar
    18    12    13   ar
    19    23    24   ar
    20    23    22   ar
    21    29    24    1
    22    15    22    1
    23    15    14   ar
    24    24    25   ar
    25    22    26   ar
    26    33    32   ar
    27    33    34   ar
    28     8     7    3
    29     3     9    1
    30    13    14   ar
    31    13    18    1
    32    40    42    1
    33    40    34    1
    34    25    26   ar
    35    25    32    1
    36    14    19    1
    37    18    17    3
    38    32    36   ar
    39    34    35   ar
    40    21    19    1
    41    19    20    1
    42     9    11    1
    43     9    10    1
    44    35    36   ar
    45    35    37    1
