@<TRIPOS>MOLECULE
mol_data/opt/b3lyp/geoms/mol2/5dh5dh5dh-.out
 32 34 0 0 0
SMALL
GASTEIGER

@<TRIPOS>ATOM
      1 C          -2.0683   -1.7338   -1.0388 C.ar    1  LIG1       -0.0045
      2 C          -0.9519   -1.9044   -0.2565 C.ar    1  LIG1        0.0800
      3 C          -0.2879   -0.6637    0.0913 C.ar    1  LIG1        0.0577
      4 C          -0.9434    0.4353   -0.4686 C.ar    1  LIG1        0.0491
      5 S          -2.3494   -0.0864   -1.4064 S.2     1  LIG1       -0.0929
      6 H          -2.7102   -2.5094   -1.4314 H       1  LIG1        0.0707
      7 N          -0.0245   -4.1701    0.5804 N.1     1  LIG1       -0.1908
      8 C          -0.4677   -3.1667    0.1892 C.1     1  LIG1        0.1016
      9 N           0.7769   -0.6564    0.9552 N.pl3   1  LIG1       -0.3561
     10 H           1.1683   -1.5640    1.1697 H       1  LIG1        0.1424
     11 H           1.4765    0.0651    0.8537 H       1  LIG1        0.1424
     12 C          -0.7067    1.8503   -0.3025 C.ar    1  LIG1        0.0475
     13 C           0.4900    2.5588   -0.2243 C.ar    1  LIG1        0.0883
     14 C           0.3424    3.9871   -0.0480 C.ar    1  LIG1        0.0583
     15 C          -0.9966    4.3689   -0.0353 C.ar    1  LIG1        0.0497
     16 S          -2.0467    2.9569   -0.1951 S.2     1  LIG1       -0.0839
     17 N           2.8387    1.5061   -0.4527 N.1     1  LIG1       -0.1908
     18 C           1.7722    1.9719   -0.3637 C.1     1  LIG1        0.1022
     19 N           1.4398    4.7874    0.1593 N.pl3   1  LIG1       -0.3561
     20 H           2.3350    4.3510   -0.0166 H       1  LIG1        0.1424
     21 H           1.4002    5.7421   -0.1693 H       1  LIG1        0.1424
     22 C          -1.6027    5.6613    0.1882 C.ar    1  LIG1        0.0469
     23 C          -1.2112    6.9275   -0.2479 C.ar    1  LIG1        0.0876
     24 C          -2.0790    7.9999    0.1894 C.ar    1  LIG1        0.0499
     25 C          -3.1346    7.5246    0.9231 C.ar    1  LIG1       -0.0018
     26 S          -3.0573    5.8022    1.1433 S.2     1  LIG1       -0.0929
     27 H          -3.9440    8.0890    1.3628 H       1  LIG1        0.0712
     28 N           0.7992    7.3953   -1.8017 N.1     1  LIG1       -0.1908
     29 C          -0.1125    7.1721   -1.1078 C.1     1  LIG1        0.1022
     30 N          -1.7997    9.3299   -0.0913 N.pl3   1  LIG1       -0.3565
     31 H          -1.2433    9.4891   -0.9213 H       1  LIG1        0.1424
     32 H          -2.5884    9.9582   -0.0325 H       1  LIG1        0.1424
@<TRIPOS>BOND
     1    28    29    3
     2     6     1    1
     3     5     1   ar
     4     5     4   ar
     5    29    23    1
     6     1     2   ar
     7    31    30    1
     8     4    12    1
     9     4     3   ar
    10    17    18    3
    11    18    13    1
    12    12    13   ar
    13    12    16   ar
    14     2     3   ar
    15     2     8    1
    16    23    22   ar
    17    23    24   ar
    18    13    14   ar
    19    16    15   ar
    20    21    19    1
    21    30    32    1
    22    30    24    1
    23    14    15   ar
    24    14    19    1
    25    15    22    1
    26    20    19    1
    27     3     9    1
    28    22    26   ar
    29     8     7    3
    30    24    25   ar
    31    11     9    1
    32    25    26   ar
    33    25    27    1
    34     9    10    1
