@<TRIPOS>MOLECULE
mol_data/opt/b3lyp/geoms/mol2/5dh5dh-5dh-5dh-.out
 42 45 0 0 0
SMALL
GASTEIGER

@<TRIPOS>ATOM
      1 C          -1.9504   -1.5677   -1.6640 C.ar    1  LIG1       -0.0045
      2 C          -1.1274   -1.8336   -0.5968 C.ar    1  LIG1        0.0800
      3 C          -0.4972   -0.6539   -0.0375 C.ar    1  LIG1        0.0577
      4 C          -0.8729    0.4982   -0.7338 C.ar    1  LIG1        0.0491
      5 S          -1.9822    0.0982   -2.0527 S.2     1  LIG1       -0.0929
      6 H          -2.5082   -2.2859   -2.2478 H       1  LIG1        0.0707
      7 N          -0.6656   -4.1705    0.4126 N.1     1  LIG1       -0.1908
      8 C          -0.8952   -3.1331   -0.0642 C.1     1  LIG1        0.1016
      9 N           0.2658   -0.7399    1.0969 N.pl3   1  LIG1       -0.3561
     10 H           0.4968   -1.6776    1.3971 H       1  LIG1        0.1424
     11 H           1.0186   -0.0796    1.2288 H       1  LIG1        0.1424
     12 C          -0.5885    1.8876   -0.4661 C.ar    1  LIG1        0.0475
     13 C           0.5799    2.4958   -0.0128 C.ar    1  LIG1        0.0883
     14 C           0.4987    3.9314    0.1461 C.ar    1  LIG1        0.0583
     15 C          -0.7493    4.4227   -0.2376 C.ar    1  LIG1        0.0497
     16 S          -1.8097    3.0987   -0.7390 S.2     1  LIG1       -0.0839
     17 N           2.8015    1.2588    0.4449 N.1     1  LIG1       -0.1908
     18 C           1.7960    1.8081    0.2227 C.1     1  LIG1        0.1022
     19 N           1.5399    4.6328    0.6972 N.pl3   1  LIG1       -0.3561
     20 H           2.4061    4.1215    0.8018 H       1  LIG1        0.1424
     21 H           1.6788    5.5926    0.4141 H       1  LIG1        0.1424
     22 C          -1.2980    5.7541   -0.1678 C.ar    1  LIG1        0.0475
     23 C          -0.6989    6.9920   -0.3989 C.ar    1  LIG1        0.0883
     24 C          -1.5709    8.1330   -0.2259 C.ar    1  LIG1        0.0583
     25 C          -2.8687    7.7465    0.0988 C.ar    1  LIG1        0.0497
     26 S          -2.9780    5.9879    0.2315 S.2     1  LIG1       -0.0839
     27 N           1.7410    7.3243   -1.1803 N.1     1  LIG1       -0.1908
     28 C           0.6367    7.1613   -0.8387 C.1     1  LIG1        0.1022
     29 N          -1.0785    9.4131   -0.3076 N.pl3   1  LIG1       -0.3561
     30 H          -0.1432    9.4953   -0.6833 H       1  LIG1        0.1424
     31 H          -1.6973   10.1395   -0.6396 H       1  LIG1        0.1424
     32 C          -4.0309    8.5392    0.4267 C.ar    1  LIG1        0.0469
     33 C          -4.4884    9.7376   -0.1229 C.ar    1  LIG1        0.0876
     34 C          -5.7036   10.2408    0.4805 C.ar    1  LIG1        0.0499
     35 C          -6.1670    9.3972    1.4563 C.ar    1  LIG1       -0.0018
     36 S          -5.1167    8.0333    1.6969 S.2     1  LIG1       -0.0929
     37 H          -7.0552    9.5077    2.0612 H       1  LIG1        0.0712
     38 N          -3.3970   10.9539   -2.1240 N.1     1  LIG1       -0.1908
     39 C          -3.8877   10.3912   -1.2265 C.1     1  LIG1        0.1022
     40 N          -6.2588   11.4567    0.1074 N.pl3   1  LIG1       -0.3565
     41 H          -6.0472   11.7581   -0.8350 H       1  LIG1        0.1424
     42 H          -7.2361   11.5724    0.3356 H       1  LIG1        0.1424
@<TRIPOS>BOND
     1     6     1    1
     2    38    39    3
     3     5     1   ar
     4     5     4   ar
     5     1     2   ar
     6    39    33    1
     7    27    28    3
     8    28    23    1
     9    41    40    1
    10    16    12   ar
    11    16    15   ar
    12     4    12    1
    13     4     3   ar
    14    30    29    1
    15    31    29    1
    16     2     8    1
    17     2     3   ar
    18    12    13   ar
    19    23    24   ar
    20    23    22   ar
    21    29    24    1
    22    15    22    1
    23    15    14   ar
    24    24    25   ar
    25    22    26   ar
    26    33    32   ar
    27    33    34   ar
    28     8     7    3
    29     3     9    1
    30    13    14   ar
    31    13    18    1
    32    25    26   ar
    33    25    32    1
    34    40    42    1
    35    40    34    1
    36    14    19    1
    37    18    17    3
    38    21    19    1
    39    32    36   ar
    40    34    35   ar
    41    19    20    1
    42     9    11    1
    43     9    10    1
    44    35    36   ar
    45    35    37    1
