@<TRIPOS>MOLECULE
mol_data/opt/b3lyp/geoms/mol2/5dh5dh5dh5dh.out
 42 45 0 0 0
SMALL
GASTEIGER

@<TRIPOS>ATOM
      1 C          -1.9543   -1.5738   -1.6469 C.ar    1  LIG1       -0.0045
      2 C          -1.1292   -1.8357   -0.5803 C.ar    1  LIG1        0.0800
      3 C          -0.4979   -0.6539   -0.0268 C.ar    1  LIG1        0.0577
      4 C          -0.8749    0.4956   -0.7268 C.ar    1  LIG1        0.0491
      5 S          -1.9869    0.0906   -2.0419 S.2     1  LIG1       -0.0929
      6 H          -2.5134   -2.2942   -2.2269 H       1  LIG1        0.0707
      7 N          -0.6655   -4.1688    0.4367 N.1     1  LIG1       -0.1908
      8 C          -0.8960   -3.1332   -0.0434 C.1     1  LIG1        0.1016
      9 N           0.2670   -0.7358    1.1066 N.pl3   1  LIG1       -0.3561
     10 H           0.4991   -1.6724    1.4093 H       1  LIG1        0.1424
     11 H           1.0199   -0.0748    1.2348 H       1  LIG1        0.1424
     12 C          -0.5896    1.8860   -0.4653 C.ar    1  LIG1        0.0475
     13 C           0.5796    2.4959   -0.0164 C.ar    1  LIG1        0.0883
     14 C           0.4990    3.9322    0.1362 C.ar    1  LIG1        0.0583
     15 C          -0.7494    4.4221   -0.2480 C.ar    1  LIG1        0.0497
     16 S          -1.8108    3.0963   -0.7420 S.2     1  LIG1       -0.0839
     17 N           2.8019    1.2609    0.4434 N.1     1  LIG1       -0.1908
     18 C           1.7960    1.8091    0.2203 C.1     1  LIG1        0.1022
     19 N           1.5412    4.6358    0.6824 N.pl3   1  LIG1       -0.3561
     20 H           2.4072    4.1247    0.7888 H       1  LIG1        0.1424
     21 H           1.6798    5.5943    0.3952 H       1  LIG1        0.1424
     22 C          -1.2978    5.7538   -0.1829 C.ar    1  LIG1        0.0475
     23 C          -0.6989    6.9907   -0.4203 C.ar    1  LIG1        0.0883
     24 C          -1.5703    8.1325   -0.2504 C.ar    1  LIG1        0.0583
     25 C          -2.8676    7.7476    0.0780 C.ar    1  LIG1        0.0497
     26 S          -2.9771    5.9897    0.2185 S.2     1  LIG1       -0.0839
     27 N           1.7398    7.3189   -1.2073 N.1     1  LIG1       -0.1908
     28 C           0.6360    7.1577   -0.8630 C.1     1  LIG1        0.1022
     29 N          -1.0777    9.4122   -0.3382 N.pl3   1  LIG1       -0.3561
     30 H          -0.1434    9.4926   -0.7168 H       1  LIG1        0.1424
     31 H          -1.6972   10.1374   -0.6716 H       1  LIG1        0.1424
     32 C          -4.0292    8.5420    0.4045 C.ar    1  LIG1        0.0469
     33 C          -4.4875    9.7379   -0.1497 C.ar    1  LIG1        0.0876
     34 C          -5.7018   10.2438    0.4532 C.ar    1  LIG1        0.0499
     35 C          -6.1637    9.4045    1.4335 C.ar    1  LIG1       -0.0018
     36 S          -5.1131    8.0417    1.6785 S.2     1  LIG1       -0.0929
     37 H          -7.0510    9.5176    2.0392 H       1  LIG1        0.0712
     38 N          -3.3990   10.9456   -2.1575 N.1     1  LIG1       -0.1908
     39 C          -3.8884   10.3868   -1.2570 C.1     1  LIG1        0.1022
     40 N          -6.2576   11.4580    0.0757 N.pl3   1  LIG1       -0.3565
     41 H          -6.0471   11.7555   -0.8682 H       1  LIG1        0.1424
     42 H          -7.2346   11.5745    0.3046 H       1  LIG1        0.1424
@<TRIPOS>BOND
     1     6     1    1
     2    38    39    3
     3     5     1   ar
     4     5     4   ar
     5     1     2   ar
     6    39    33    1
     7    27    28    3
     8    41    40    1
     9    28    23    1
    10    16    12   ar
    11    16    15   ar
    12     4    12    1
    13     4     3   ar
    14    30    29    1
    15    31    29    1
    16     2     8    1
    17     2     3   ar
    18    12    13   ar
    19    23    24   ar
    20    23    22   ar
    21    29    24    1
    22    24    25   ar
    23    15    22    1
    24    15    14   ar
    25    22    26   ar
    26    33    32   ar
    27    33    34   ar
    28     8     7    3
    29     3     9    1
    30    13    14   ar
    31    13    18    1
    32    40    42    1
    33    40    34    1
    34    25    26   ar
    35    25    32    1
    36    14    19    1
    37    18    17    3
    38    21    19    1
    39    32    36   ar
    40    34    35   ar
    41    19    20    1
    42     9    11    1
    43     9    10    1
    44    35    36   ar
    45    35    37    1
