@<TRIPOS>MOLECULE
mol_data/opt/b3lyp/geoms/mol2/5dh5dh5dh-5dh-.out
 42 45 0 0 0
SMALL
GASTEIGER

@<TRIPOS>ATOM
      1 C          -1.9319   -1.5713   -1.6732 C.ar    1  LIG1       -0.0045
      2 C          -1.1198   -1.8346   -0.5971 C.ar    1  LIG1        0.0800
      3 C          -0.4959   -0.6535   -0.0339 C.ar    1  LIG1        0.0577
      4 C          -0.8649    0.4970   -0.7364 C.ar    1  LIG1        0.0491
      5 S          -1.9606    0.0938   -2.0657 S.2     1  LIG1       -0.0929
      6 H          -2.4835   -2.2909   -2.2612 H       1  LIG1        0.0707
      7 N          -0.6674   -4.1692    0.4217 N.1     1  LIG1       -0.1908
      8 C          -0.8925   -3.1329   -0.0595 C.1     1  LIG1        0.1016
      9 N           0.2554   -0.7369    1.1084 N.pl3   1  LIG1       -0.3561
     10 H           0.4836   -1.6739    1.4130 H       1  LIG1        0.1424
     11 H           1.0067   -0.0761    1.2467 H       1  LIG1        0.1424
     12 C          -0.5836    1.8870   -0.4688 C.ar    1  LIG1        0.0475
     13 C           0.5799    2.4966   -0.0049 C.ar    1  LIG1        0.0883
     14 C           0.4967    3.9325    0.1500 C.ar    1  LIG1        0.0583
     15 C          -0.7474    4.4226   -0.2477 C.ar    1  LIG1        0.0497
     16 S          -1.8022    3.0972   -0.7570 S.2     1  LIG1       -0.0839
     17 N           2.7972    1.2614    0.4779 N.1     1  LIG1       -0.1908
     18 C           1.7938    1.8099    0.2444 C.1     1  LIG1        0.1022
     19 N           1.5320    4.6354    0.7100 N.pl3   1  LIG1       -0.3561
     20 H           2.3970    4.1246    0.8252 H       1  LIG1        0.1424
     21 H           1.6736    5.5946    0.4262 H       1  LIG1        0.1424
     22 C          -1.2972    5.7539   -0.1860 C.ar    1  LIG1        0.0475
     23 C          -0.6962    6.9915   -0.4135 C.ar    1  LIG1        0.0883
     24 C          -1.5701    8.1326   -0.2513 C.ar    1  LIG1        0.0583
     25 C          -2.8709    7.7463    0.0611 C.ar    1  LIG1        0.0497
     26 S          -2.9812    5.9880    0.1962 S.2     1  LIG1       -0.0839
     27 N           1.7513    7.3228   -1.1713 N.1     1  LIG1       -0.1908
     28 C           0.6438    7.1602   -0.8403 C.1     1  LIG1        0.1022
     29 N          -1.0771    9.4126   -0.3305 N.pl3   1  LIG1       -0.3561
     30 H          -0.1384    9.4944   -0.6978 H       1  LIG1        0.1424
     31 H          -1.6928   10.1384   -0.6693 H       1  LIG1        0.1424
     32 C          -4.0366    8.5394    0.3757 C.ar    1  LIG1        0.0469
     33 C          -4.4888    9.7366   -0.1806 C.ar    1  LIG1        0.0876
     34 C          -5.7103   10.2406    0.4093 C.ar    1  LIG1        0.0499
     35 C          -6.1834    9.3986    1.3819 C.ar    1  LIG1       -0.0018
     36 S          -5.1353    8.0355    1.6356 S.2     1  LIG1       -0.0929
     37 H          -7.0777    9.5099    1.9775 H       1  LIG1        0.0712
     38 N          -3.3778   10.9498   -2.1728 N.1     1  LIG1       -0.1908
     39 C          -3.8773   10.3886   -1.2794 C.1     1  LIG1        0.1022
     40 N          -6.2621   11.4557    0.0285 N.pl3   1  LIG1       -0.3565
     41 H          -6.0409   11.7553   -0.9123 H       1  LIG1        0.1424
     42 H          -7.2416   11.5713    0.2464 H       1  LIG1        0.1424
@<TRIPOS>BOND
     1     6     1    1
     2    38    39    3
     3     5     1   ar
     4     5     4   ar
     5     1     2   ar
     6    39    33    1
     7    27    28    3
     8    41    40    1
     9    28    23    1
    10    16    12   ar
    11    16    15   ar
    12     4    12    1
    13     4     3   ar
    14    30    29    1
    15    31    29    1
    16     2     8    1
    17     2     3   ar
    18    12    13   ar
    19    23    24   ar
    20    23    22   ar
    21    29    24    1
    22    24    25   ar
    23    15    22    1
    24    15    14   ar
    25    22    26   ar
    26    33    32   ar
    27    33    34   ar
    28     8     7    3
    29     3     9    1
    30    13    14   ar
    31    13    18    1
    32    40    42    1
    33    40    34    1
    34    25    26   ar
    35    25    32    1
    36    14    19    1
    37    18    17    3
    38    32    36   ar
    39    34    35   ar
    40    21    19    1
    41    19    20    1
    42     9    11    1
    43     9    10    1
    44    35    36   ar
    45    35    37    1
