@<TRIPOS>MOLECULE
mol_data/opt/b3lyp/geoms/mol2/5dh5dh-.out
 22 23 0 0 0
SMALL
GASTEIGER

@<TRIPOS>ATOM
      1 C          -2.0916   -1.7762    0.5339 C.ar    1  LIG1       -0.0045
      2 C          -0.8217   -1.8521    0.0139 C.ar    1  LIG1        0.0800
      3 C          -0.2141   -0.5598   -0.2334 C.ar    1  LIG1        0.0577
      4 C          -1.0698    0.4797    0.1284 C.ar    1  LIG1        0.0491
      5 S          -2.5889   -0.1557    0.7698 S.2     1  LIG1       -0.0929
      6 H          -2.7316   -2.6022    0.8090 H       1  LIG1        0.0707
      7 N           0.4633   -4.0343   -0.5162 N.1     1  LIG1       -0.1908
      8 C          -0.1415   -3.0702   -0.2688 C.1     1  LIG1        0.1016
      9 N           1.0119   -0.4597   -0.8487 N.pl3   1  LIG1       -0.3561
     10 H           1.5168   -1.3322   -0.9355 H       1  LIG1        0.1424
     11 H           1.6102    0.3108   -0.5836 H       1  LIG1        0.1424
     12 C          -0.9284    1.9107   -0.0358 C.ar    1  LIG1        0.0469
     13 C           0.1862    2.7295    0.1390 C.ar    1  LIG1        0.0876
     14 C          -0.0556    4.1285   -0.1421 C.ar    1  LIG1        0.0499
     15 C          -1.3569    4.3487   -0.5117 C.ar    1  LIG1       -0.0018
     16 S          -2.2853    2.8798   -0.5493 S.2     1  LIG1       -0.0929
     17 H          -1.8292    5.2924   -0.7428 H       1  LIG1        0.0712
     18 N           2.5027    1.9060    0.9336 N.1     1  LIG1       -0.1908
     19 C           1.4473    2.2726    0.5957 C.1     1  LIG1        0.1022
     20 N           0.9236    5.0935    0.0481 N.pl3   1  LIG1       -0.3565
     21 H           1.8768    4.7648   -0.0312 H       1  LIG1        0.1424
     22 H           0.7751    5.9631   -0.4435 H       1  LIG1        0.1424
@<TRIPOS>BOND
     1    10     9    1
     2     9    11    1
     3     9     3    1
     4    17    15    1
     5    16    15   ar
     6    16    12   ar
     7     7     8    3
     8    15    14   ar
     9    22    20    1
    10     8     2    1
    11     3     2   ar
    12     3     4   ar
    13    14    20    1
    14    14    13   ar
    15    12     4    1
    16    12    13   ar
    17    21    20    1
    18     2     1   ar
    19     4     5   ar
    20    13    19    1
    21     1     5   ar
    22     1     6    1
    23    19    18    3
