@<TRIPOS>MOLECULE
mol_data/opt/b3lyp/geoms/mol2/5dh5dh-5dh5dh.out
 42 45 0 0 0
SMALL
GASTEIGER

@<TRIPOS>ATOM
      1 C          -1.9673   -1.5671   -1.6533 C.ar    1  LIG1       -0.0045
      2 C          -1.1341   -1.8334   -0.5942 C.ar    1  LIG1        0.0800
      3 C          -0.4984   -0.6541   -0.0406 C.ar    1  LIG1        0.0577
      4 C          -0.8806    0.4983   -0.7329 C.ar    1  LIG1        0.0491
      5 S          -2.0028    0.0990   -2.0411 S.2     1  LIG1       -0.0929
      6 H          -2.5310   -2.2850   -2.2319 H       1  LIG1        0.0707
      7 N          -0.6629   -4.1708    0.4097 N.1     1  LIG1       -0.1908
      8 C          -0.8969   -3.1332   -0.0643 C.1     1  LIG1        0.1016
      9 N           0.2755   -0.7406    1.0863 N.pl3   1  LIG1       -0.3561
     10 H           0.5091   -1.6785    1.3840 H       1  LIG1        0.1424
     11 H           1.0299   -0.0806    1.2110 H       1  LIG1        0.1424
     12 C          -0.5932    1.8876   -0.4677 C.ar    1  LIG1        0.0475
     13 C           0.5797    2.4954   -0.0256 C.ar    1  LIG1        0.0883
     14 C           0.5005    3.9310    0.1341 C.ar    1  LIG1        0.0583
     15 C          -0.7510    4.4227   -0.2375 C.ar    1  LIG1        0.0497
     16 S          -1.8165    3.0991   -0.7288 S.2     1  LIG1       -0.0839
     17 N           2.8054    1.2579    0.4104 N.1     1  LIG1       -0.1908
     18 C           1.7979    1.8074    0.1980 C.1     1  LIG1        0.1022
     19 N           1.5471    4.6321    0.6752 N.pl3   1  LIG1       -0.3561
     20 H           2.4139    4.1204    0.7720 H       1  LIG1        0.1424
     21 H           1.6837    5.5918    0.3907 H       1  LIG1        0.1424
     22 C          -1.2986    5.7542   -0.1623 C.ar    1  LIG1        0.0475
     23 C          -0.7015    6.9920   -0.3991 C.ar    1  LIG1        0.0883
     24 C          -1.5714    8.1332   -0.2174 C.ar    1  LIG1        0.0583
     25 C          -2.8661    7.7470    0.1197 C.ar    1  LIG1        0.0497
     26 S          -2.9746    5.9884    0.2534 S.2     1  LIG1       -0.0839
     27 N           1.7309    7.3235   -1.2042 N.1     1  LIG1       -0.1908
     28 C           0.6299    7.1609   -0.8518 C.1     1  LIG1        0.1022
     29 N          -1.0794    9.4131   -0.3037 N.pl3   1  LIG1       -0.3561
     30 H          -0.1481    9.4952   -0.6894 H       1  LIG1        0.1424
     31 H          -1.7014   10.1399   -0.6287 H       1  LIG1        0.1424
     32 C          -4.0250    8.5400    0.4587 C.ar    1  LIG1        0.0469
     33 C          -4.4876    9.7383   -0.0865 C.ar    1  LIG1        0.0876
     34 C          -5.6971   10.2416    0.5283 C.ar    1  LIG1        0.0499
     35 C          -6.1512    9.3980    1.5084 C.ar    1  LIG1       -0.0018
     36 S          -5.0988    8.0340    1.7390 S.2     1  LIG1       -0.0929
     37 H          -7.0337    9.5083    2.1216 H       1  LIG1        0.0712
     38 N          -3.4152   10.9552   -2.0975 N.1     1  LIG1       -0.1908
     39 C          -3.8973   10.3923   -1.1956 C.1     1  LIG1        0.1022
     40 N          -6.2558   11.4575    0.1606 N.pl3   1  LIG1       -0.3565
     41 H          -6.0527   11.7592   -0.7836 H       1  LIG1        0.1424
     42 H          -7.2309   11.5730    0.3978 H       1  LIG1        0.1424
@<TRIPOS>BOND
     1     6     1    1
     2    38    39    3
     3     5     1   ar
     4     5     4   ar
     5     1     2   ar
     6    27    28    3
     7    39    33    1
     8    28    23    1
     9    41    40    1
    10     4    12    1
    11     4     3   ar
    12    16    12   ar
    13    16    15   ar
    14    30    29    1
    15    31    29    1
    16     2     8    1
    17     2     3   ar
    18    12    13   ar
    19    23    24   ar
    20    23    22   ar
    21    29    24    1
    22    15    22    1
    23    15    14   ar
    24    24    25   ar
    25    22    26   ar
    26    33    32   ar
    27    33    34   ar
    28     8     7    3
    29     3     9    1
    30    13    14   ar
    31    13    18    1
    32    25    26   ar
    33    25    32    1
    34    14    19    1
    35    40    42    1
    36    40    34    1
    37    18    17    3
    38    21    19    1
    39    32    36   ar
    40    34    35   ar
    41    19    20    1
    42     9    11    1
    43     9    10    1
    44    35    36   ar
    45    35    37    1
