@<TRIPOS>MOLECULE
mol_data/opt/b3lyp/geoms/mol2/5dh5dh-5dh5dh-.out
 42 45 0 0 0
SMALL
GASTEIGER

@<TRIPOS>ATOM
      1 C          -1.9642   -1.5697   -1.6486 C.ar    1  LIG1       -0.0045
      2 C          -1.1317   -1.8342   -0.5885 C.ar    1  LIG1        0.0800
      3 C          -0.4969   -0.6539   -0.0362 C.ar    1  LIG1        0.0577
      4 C          -0.8790    0.4974   -0.7304 C.ar    1  LIG1        0.0491
      5 S          -2.0000    0.0958   -2.0389 S.2     1  LIG1       -0.0929
      6 H          -2.5271   -2.2887   -2.2266 H       1  LIG1        0.0707
      7 N          -0.6606   -4.1701    0.4191 N.1     1  LIG1       -0.1908
      8 C          -0.8945   -3.1332   -0.0566 C.1     1  LIG1        0.1016
      9 N           0.2761   -0.7383    1.0917 N.pl3   1  LIG1       -0.3561
     10 H           0.5100   -1.6757    1.3907 H       1  LIG1        0.1424
     11 H           1.0305   -0.0781    1.2155 H       1  LIG1        0.1424
     12 C          -0.5921    1.8871   -0.4669 C.ar    1  LIG1        0.0475
     13 C           0.5804    2.4959   -0.0253 C.ar    1  LIG1        0.0883
     14 C           0.5008    3.9317    0.1324 C.ar    1  LIG1        0.0583
     15 C          -0.7507    4.4225   -0.2404 C.ar    1  LIG1        0.0497
     16 S          -1.8157    3.0979   -0.7301 S.2     1  LIG1       -0.0839
     17 N           2.8062    1.2593    0.4135 N.1     1  LIG1       -0.1908
     18 C           1.7986    1.8084    0.1999 C.1     1  LIG1        0.1022
     19 N           1.5471    4.6336    0.6728 N.pl3   1  LIG1       -0.3561
     20 H           2.4143    4.1227    0.7698 H       1  LIG1        0.1424
     21 H           1.6827    5.5934    0.3884 H       1  LIG1        0.1424
     22 C          -1.2986    5.7539   -0.1674 C.ar    1  LIG1        0.0475
     23 C          -0.7019    6.9917   -0.4055 C.ar    1  LIG1        0.0883
     24 C          -1.5723    8.1328   -0.2261 C.ar    1  LIG1        0.0583
     25 C          -2.8671    7.7466    0.1107 C.ar    1  LIG1        0.0497
     26 S          -2.9751    5.9882    0.2468 S.2     1  LIG1       -0.0839
     27 N           1.7309    7.3234   -1.2093 N.1     1  LIG1       -0.1908
     28 C           0.6298    7.1606   -0.8574 C.1     1  LIG1        0.1022
     29 N          -1.0809    9.4128   -0.3139 N.pl3   1  LIG1       -0.3561
     30 H          -0.1489    9.4946   -0.6979 H       1  LIG1        0.1424
     31 H          -1.7027   10.1386   -0.6417 H       1  LIG1        0.1424
     32 C          -4.0263    8.5396    0.4483 C.ar    1  LIG1        0.0469
     33 C          -4.4890    9.7373   -0.0985 C.ar    1  LIG1        0.0876
     34 C          -5.6988   10.2410    0.5153 C.ar    1  LIG1        0.0499
     35 C          -6.1532    9.3984    1.4962 C.ar    1  LIG1       -0.0018
     36 S          -5.1006    8.0349    1.7287 S.2     1  LIG1       -0.0929
     37 H          -7.0359    9.5093    2.1089 H       1  LIG1        0.0712
     38 N          -3.4160   10.9518   -2.1105 N.1     1  LIG1       -0.1908
     39 C          -3.8985   10.3900   -1.2081 C.1     1  LIG1        0.1022
     40 N          -6.2576   11.4564    0.1459 N.pl3   1  LIG1       -0.3565
     41 H          -6.0544   11.7570   -0.7985 H       1  LIG1        0.1424
     42 H          -7.2326   11.5723    0.3831 H       1  LIG1        0.1424
@<TRIPOS>BOND
     1     6     1    1
     2    38    39    3
     3     5     1   ar
     4     5     4   ar
     5     1     2   ar
     6    27    28    3
     7    39    33    1
     8    28    23    1
     9    41    40    1
    10     4    12    1
    11     4     3   ar
    12    16    12   ar
    13    16    15   ar
    14    30    29    1
    15    31    29    1
    16     2     8    1
    17     2     3   ar
    18    12    13   ar
    19    23    24   ar
    20    23    22   ar
    21    29    24    1
    22    15    22    1
    23    15    14   ar
    24    24    25   ar
    25    22    26   ar
    26    33    32   ar
    27    33    34   ar
    28     8     7    3
    29     3     9    1
    30    13    14   ar
    31    13    18    1
    32    25    26   ar
    33    25    32    1
    34    14    19    1
    35    40    42    1
    36    40    34    1
    37    18    17    3
    38    21    19    1
    39    32    36   ar
    40    34    35   ar
    41    19    20    1
    42     9    11    1
    43     9    10    1
    44    35    36   ar
    45    35    37    1
