@<TRIPOS>MOLECULE
mol_data/opt/b3lyp/geoms/mol2/5dh5dh-5dh-.out
 32 34 0 0 0
SMALL
GASTEIGER

@<TRIPOS>ATOM
      1 C          -2.0787   -1.7313   -1.0320 C.ar    1  LIG1       -0.0045
      2 C          -0.9550   -1.9038   -0.2606 C.ar    1  LIG1        0.0800
      3 C          -0.2878   -0.6640    0.0840 C.ar    1  LIG1        0.0577
      4 C          -0.9484    0.4363   -0.4671 C.ar    1  LIG1        0.0491
      5 S          -2.3631   -0.0830   -1.3930 S.2     1  LIG1       -0.0929
      6 H          -2.7242   -2.5059   -1.4205 H       1  LIG1        0.0707
      7 N          -0.0201   -4.1715    0.5623 N.1     1  LIG1       -0.1908
      8 C          -0.4667   -3.1672    0.1775 C.1     1  LIG1        0.1016
      9 N           0.7850   -0.6586    0.9380 N.pl3   1  LIG1       -0.3561
     10 H           1.1782   -1.5667    1.1469 H       1  LIG1        0.1424
     11 H           1.4839    0.0628    0.8311 H       1  LIG1        0.1424
     12 C          -0.7099    1.8508   -0.2993 C.ar    1  LIG1        0.0475
     13 C           0.4879    2.5585   -0.2316 C.ar    1  LIG1        0.0883
     14 C           0.3428    3.9864   -0.0496 C.ar    1  LIG1        0.0583
     15 C          -0.9958    4.3688   -0.0219 C.ar    1  LIG1        0.0497
     16 S          -2.0482    2.9576   -0.1748 S.2     1  LIG1       -0.0839
     17 N           2.8332    1.5047   -0.4873 N.1     1  LIG1       -0.1908
     18 C           1.7682    1.9712   -0.3860 C.1     1  LIG1        0.1022
     19 N           1.4427    4.7855    0.1485 N.pl3   1  LIG1       -0.3561
     20 H           2.3357    4.3496   -0.0393 H       1  LIG1        0.1424
     21 H           1.3996    5.7415   -0.1755 H       1  LIG1        0.1424
     22 C          -1.5992    5.6607    0.2111 C.ar    1  LIG1        0.0469
     23 C          -1.2117    6.9281   -0.2253 C.ar    1  LIG1        0.0876
     24 C          -2.0749    7.9994    0.2236 C.ar    1  LIG1        0.0499
     25 C          -3.1233    7.5223    0.9665 C.ar    1  LIG1       -0.0018
     26 S          -3.0442    5.7993    1.1810 S.2     1  LIG1       -0.0929
     27 H          -3.9282    8.0857    1.4155 H       1  LIG1        0.0712
     28 N           0.7835    7.4007   -1.7972 N.1     1  LIG1       -0.1908
     29 C          -0.1214    7.1750   -1.0951 C.1     1  LIG1        0.1022
     30 N          -1.7980    9.3301   -0.0563 N.pl3   1  LIG1       -0.3565
     31 H          -1.2499    9.4914   -0.8913 H       1  LIG1        0.1424
     32 H          -2.5861    9.9583    0.0118 H       1  LIG1        0.1424
@<TRIPOS>BOND
     1    28    29    3
     2     6     1    1
     3     5     1   ar
     4     5     4   ar
     5    29    23    1
     6     1     2   ar
     7    31    30    1
     8    17    18    3
     9     4    12    1
    10     4     3   ar
    11    18    13    1
    12    12    13   ar
    13    12    16   ar
    14     2     3   ar
    15     2     8    1
    16    13    14   ar
    17    23    22   ar
    18    23    24   ar
    19    21    19    1
    20    16    15   ar
    21    30    32    1
    22    30    24    1
    23    14    15   ar
    24    14    19    1
    25    20    19    1
    26    15    22    1
    27     3     9    1
    28     8     7    3
    29    22    26   ar
    30    24    25   ar
    31    11     9    1
    32     9    10    1
    33    25    26   ar
    34    25    27    1
