@<TRIPOS>MOLECULE
mol_data/opt/b3lyp/geoms/mol2/5dh5dh.out
 22 23 0 0 0
SMALL
GASTEIGER

@<TRIPOS>ATOM
      1 C          -2.0958   -1.7769    0.5224 C.ar    1  LIG1       -0.0045
      2 C          -0.8220   -1.8519    0.0119 C.ar    1  LIG1        0.0800
      3 C          -0.2125   -0.5592   -0.2287 C.ar    1  LIG1        0.0577
      4 C          -1.0711    0.4796    0.1281 C.ar    1  LIG1        0.0491
      5 S          -2.5950   -0.1568    0.7569 S.2     1  LIG1       -0.0929
      6 H          -2.7378   -2.6034    0.7914 H       1  LIG1        0.0707
      7 N           0.4671   -4.0333   -0.5115 N.1     1  LIG1       -0.1908
      8 C          -0.1395   -3.0696   -0.2673 C.1     1  LIG1        0.1016
      9 N           1.0181   -0.4579   -0.8345 N.pl3   1  LIG1       -0.3561
     10 H           1.5235   -1.3302   -0.9195 H       1  LIG1        0.1424
     11 H           1.6146    0.3118   -0.5629 H       1  LIG1        0.1424
     12 C          -0.9285    1.9109   -0.0333 C.ar    1  LIG1        0.0469
     13 C           0.1846    2.7294    0.1517 C.ar    1  LIG1        0.0876
     14 C          -0.0550    4.1288   -0.1294 C.ar    1  LIG1        0.0499
     15 C          -1.3533    4.3495   -0.5094 C.ar    1  LIG1       -0.0018
     16 S          -2.2811    2.8805   -0.5565 S.2     1  LIG1       -0.0929
     17 H          -1.8238    5.2934   -0.7431 H       1  LIG1        0.0712
     18 N           2.4948    1.9054    0.9636 N.1     1  LIG1       -0.1908
     19 C           1.4420    2.2721    0.6179 C.1     1  LIG1        0.1022
     20 N           0.9224    5.0935    0.0700 N.pl3   1  LIG1       -0.3565
     21 H           1.8764    4.7650   -0.0007 H       1  LIG1        0.1424
     22 H           0.7783    5.9639   -0.4217 H       1  LIG1        0.1424
@<TRIPOS>BOND
     1    10     9    1
     2     9    11    1
     3     9     3    1
     4    17    15    1
     5    16    15   ar
     6    16    12   ar
     7     7     8    3
     8    15    14   ar
     9    22    20    1
    10     8     2    1
    11     3     2   ar
    12     3     4   ar
    13    14    20    1
    14    14    13   ar
    15    12     4    1
    16    12    13   ar
    17    21    20    1
    18     2     1   ar
    19     4     5   ar
    20    13    19    1
    21     1     5   ar
    22     1     6    1
    23    19    18    3
