@<TRIPOS>MOLECULE
mol_data/opt/b3lyp/geoms/mol2/5dh5dh-5dh.out
 32 34 0 0 0
SMALL
GASTEIGER

@<TRIPOS>ATOM
      1 C          -2.0803   -1.7327   -1.0274 C.ar    1  LIG1       -0.0045
      2 C          -0.9550   -1.9044   -0.2582 C.ar    1  LIG1        0.0800
      3 C          -0.2869   -0.6643    0.0837 C.ar    1  LIG1        0.0577
      4 C          -0.9488    0.4355   -0.4670 C.ar    1  LIG1        0.0491
      5 S          -2.3655   -0.0848   -1.3894 S.2     1  LIG1       -0.0929
      6 H          -2.7268   -2.5076   -1.4136 H       1  LIG1        0.0707
      7 N          -0.0183   -4.1713    0.5650 N.1     1  LIG1       -0.1908
      8 C          -0.4659   -3.1673    0.1803 C.1     1  LIG1        0.1016
      9 N           0.7878   -0.6583    0.9350 N.pl3   1  LIG1       -0.3561
     10 H           1.1819   -1.5661    1.1436 H       1  LIG1        0.1424
     11 H           1.4860    0.0637    0.8269 H       1  LIG1        0.1424
     12 C          -0.7099    1.8503   -0.3019 C.ar    1  LIG1        0.0475
     13 C           0.4880    2.5583   -0.2373 C.ar    1  LIG1        0.0883
     14 C           0.3429    3.9864   -0.0571 C.ar    1  LIG1        0.0583
     15 C          -0.9957    4.3685   -0.0274 C.ar    1  LIG1        0.0497
     16 S          -2.0481    2.9571   -0.1765 S.2     1  LIG1       -0.0839
     17 N           2.8333    1.5052   -0.4954 N.1     1  LIG1       -0.1908
     18 C           1.7682    1.9713   -0.3930 C.1     1  LIG1        0.1022
     19 N           1.4430    4.7862    0.1378 N.pl3   1  LIG1       -0.3561
     20 H           2.3357    4.3499   -0.0505 H       1  LIG1        0.1424
     21 H           1.3994    5.7414   -0.1885 H       1  LIG1        0.1424
     22 C          -1.5990    5.6608    0.2046 C.ar    1  LIG1        0.0469
     23 C          -1.2128    6.9275   -0.2348 C.ar    1  LIG1        0.0876
     24 C          -2.0753    7.9994    0.2141 C.ar    1  LIG1        0.0499
     25 C          -3.1218    7.5233    0.9602 C.ar    1  LIG1       -0.0018
     26 S          -3.0418    5.8007    1.1776 S.2     1  LIG1       -0.0929
     27 H          -3.9258    8.0873    1.4101 H       1  LIG1        0.0712
     28 N           0.7789    7.3973   -1.8120 N.1     1  LIG1       -0.1908
     29 C          -0.1244    7.1730   -1.1075 C.1     1  LIG1        0.1022
     30 N          -1.7994    9.3297   -0.0687 N.pl3   1  LIG1       -0.3565
     31 H          -1.2533    9.4896   -0.9053 H       1  LIG1        0.1424
     32 H          -2.5876    9.9577   -0.0002 H       1  LIG1        0.1424
@<TRIPOS>BOND
     1    28    29    3
     2     6     1    1
     3     5     1   ar
     4     5     4   ar
     5    29    23    1
     6     1     2   ar
     7    31    30    1
     8    17    18    3
     9     4    12    1
    10     4     3   ar
    11    18    13    1
    12    12    13   ar
    13    12    16   ar
    14     2     3   ar
    15     2     8    1
    16    13    14   ar
    17    23    22   ar
    18    23    24   ar
    19    21    19    1
    20    16    15   ar
    21    30    32    1
    22    30    24    1
    23    14    15   ar
    24    14    19    1
    25    20    19    1
    26    15    22    1
    27     3     9    1
    28     8     7    3
    29    22    26   ar
    30    24    25   ar
    31    11     9    1
    32     9    10    1
    33    25    26   ar
    34    25    27    1
