@<TRIPOS>MOLECULE
mol_data/opt/b3lyp/geoms/mol2/5dh5dh-5dh-5dh.out
 42 45 0 0 0
SMALL
GASTEIGER

@<TRIPOS>ATOM
      1 C          -1.9507   -1.5655   -1.6685 C.ar    1  LIG1       -0.0045
      2 C          -1.1267   -1.8327   -0.6025 C.ar    1  LIG1        0.0800
      3 C          -0.4966   -0.6537   -0.0419 C.ar    1  LIG1        0.0577
      4 C          -0.8733    0.4993   -0.7361 C.ar    1  LIG1        0.0491
      5 S          -1.9837    0.1010   -2.0546 S.2     1  LIG1       -0.0929
      6 H          -2.5088   -2.2830   -2.2529 H       1  LIG1        0.0707
      7 N          -0.6631   -4.1711    0.4027 N.1     1  LIG1       -0.1908
      8 C          -0.8934   -3.1330   -0.0722 C.1     1  LIG1        0.1016
      9 N           0.2673   -0.7412    1.0919 N.pl3   1  LIG1       -0.3561
     10 H           0.4997   -1.6793    1.3898 H       1  LIG1        0.1424
     11 H           1.0195   -0.0803    1.2246 H       1  LIG1        0.1424
     12 C          -0.5889    1.8884   -0.4667 C.ar    1  LIG1        0.0475
     13 C           0.5800    2.4962   -0.0140 C.ar    1  LIG1        0.0883
     14 C           0.4988    3.9316    0.1468 C.ar    1  LIG1        0.0583
     15 C          -0.7496    4.4232   -0.2350 C.ar    1  LIG1        0.0497
     16 S          -1.8104    3.0998   -0.7368 S.2     1  LIG1       -0.0839
     17 N           2.8023    1.2589    0.4398 N.1     1  LIG1       -0.1908
     18 C           1.7965    1.8083    0.2192 C.1     1  LIG1        0.1022
     19 N           1.5405    4.6323    0.6977 N.pl3   1  LIG1       -0.3561
     20 H           2.4069    4.1210    0.8007 H       1  LIG1        0.1424
     21 H           1.6788    5.5926    0.4162 H       1  LIG1        0.1424
     22 C          -1.2983    5.7544   -0.1630 C.ar    1  LIG1        0.0475
     23 C          -0.6996    6.9927   -0.3932 C.ar    1  LIG1        0.0883
     24 C          -1.5716    8.1334   -0.2180 C.ar    1  LIG1        0.0583
     25 C          -2.8691    7.7463    0.1073 C.ar    1  LIG1        0.0497
     26 S          -2.9781    5.9876    0.2380 S.2     1  LIG1       -0.0839
     27 N           1.7395    7.3264   -1.1766 N.1     1  LIG1       -0.1908
     28 C           0.6356    7.1628   -0.8340 C.1     1  LIG1        0.1022
     29 N          -1.0795    9.4136   -0.2986 N.pl3   1  LIG1       -0.3561
     30 H          -0.1442    9.4965   -0.6741 H       1  LIG1        0.1424
     31 H          -1.6984   10.1403   -0.6298 H       1  LIG1        0.1424
     32 C          -4.0310    8.5385    0.4375 C.ar    1  LIG1        0.0469
     33 C          -4.4891    9.7376   -0.1099 C.ar    1  LIG1        0.0876
     34 C          -5.7037   10.2400    0.4952 C.ar    1  LIG1        0.0499
     35 C          -6.1662    9.3949    1.4703 C.ar    1  LIG1       -0.0018
     36 S          -5.1157    8.0307    1.7078 S.2     1  LIG1       -0.0929
     37 H          -7.0538    9.5044    2.0761 H       1  LIG1        0.0712
     38 N          -3.3997   10.9569   -2.1103 N.1     1  LIG1       -0.1908
     39 C          -3.8895   10.3930   -1.2132 C.1     1  LIG1        0.1022
     40 N          -6.2594   11.4563    0.1246 N.pl3   1  LIG1       -0.3565
     41 H          -6.0485   11.7594   -0.8175 H       1  LIG1        0.1424
     42 H          -7.2362   11.5719    0.3542 H       1  LIG1        0.1424
@<TRIPOS>BOND
     1     6     1    1
     2    38    39    3
     3     5     1   ar
     4     5     4   ar
     5     1     2   ar
     6    39    33    1
     7    27    28    3
     8    28    23    1
     9    41    40    1
    10    16    12   ar
    11    16    15   ar
    12     4    12    1
    13     4     3   ar
    14    30    29    1
    15    31    29    1
    16     2     8    1
    17     2     3   ar
    18    12    13   ar
    19    23    24   ar
    20    23    22   ar
    21    29    24    1
    22    15    22    1
    23    15    14   ar
    24    24    25   ar
    25    22    26   ar
    26    33    32   ar
    27    33    34   ar
    28     8     7    3
    29     3     9    1
    30    13    14   ar
    31    13    18    1
    32    25    26   ar
    33    25    32    1
    34    40    42    1
    35    40    34    1
    36    14    19    1
    37    18    17    3
    38    21    19    1
    39    32    36   ar
    40    34    35   ar
    41    19    20    1
    42     9    11    1
    43     9    10    1
    44    35    36   ar
    45    35    37    1
