@<TRIPOS>MOLECULE
mol_data/opt/b3lyp/geoms/mol2/5di.out
 13 13 0 0 0
SMALL
GASTEIGER

@<TRIPOS>ATOM
      1 C          -2.1678   -1.7333   -0.0171 C.ar    1  LIG1       -0.0067
      2 C          -0.7920   -1.6981   -0.0368 C.ar    1  LIG1        0.0617
      3 C          -0.2500   -0.3584    0.0232 C.ar    1  LIG1       -0.0261
      4 C          -1.2519    0.5682    0.0864 C.ar    1  LIG1       -0.0202
      5 S          -2.8348   -0.1494    0.0748 S.2     1  LIG1       -0.1035
      6 H          -2.8034   -2.6064   -0.0520 H       1  LIG1        0.0706
      7 H          -1.1509    1.6432    0.1399 H       1  LIG1        0.0696
      8 N           0.7001   -3.8118   -0.1687 N.1     1  LIG1       -0.1908
      9 C           0.0192   -2.8695   -0.1096 C.1     1  LIG1        0.0999
     10 C           1.2206   -0.0531    0.0157 C.3     1  LIG1       -0.0380
     11 H           1.3978    1.0235    0.0674 H       1  LIG1        0.0278
     12 H           1.6989   -0.4349   -0.8928 H       1  LIG1        0.0278
     13 H           1.7264   -0.5239    0.8656 H       1  LIG1        0.0278
@<TRIPOS>BOND
     1    12    10    1
     2     8     9    3
     3     9     2    1
     4     6     1    1
     5     2     1   ar
     6     2     3   ar
     7     1     5   ar
     8    10     3    1
     9    10    11    1
    10    10    13    1
    11     3     4   ar
    12     5     4   ar
    13     4     7    1
