@<TRIPOS>MOLECULE
mol_data/opt/b3lyp/geoms/mol2/5di5di5di-5di.out
 46 49 0 0 0
SMALL
GASTEIGER

@<TRIPOS>ATOM
      1 C          -1.3152   -1.5303   -2.2035 C.ar    1  LIG1       -0.0061
      2 C          -0.8473   -1.7982   -0.9371 C.ar    1  LIG1        0.0623
      3 C          -0.5098   -0.6192   -0.1778 C.ar    1  LIG1       -0.0178
      4 C          -0.7303    0.5259   -0.9168 C.ar    1  LIG1        0.0313
      5 S          -1.3518    0.1547   -2.5215 S.2     1  LIG1       -0.0945
      6 H          -1.6326   -2.2447   -2.9497 H       1  LIG1        0.0706
      7 N          -0.6457   -4.1960    0.0235 N.1     1  LIG1       -0.1908
      8 C          -0.7348   -3.1224   -0.4165 C.1     1  LIG1        0.1000
      9 C          -0.0256   -0.6801    1.2423 C.3     1  LIG1       -0.0374
     10 H          -0.2305    0.2530    1.7714 H       1  LIG1        0.0278
     11 H           1.0553   -0.8519    1.2826 H       1  LIG1        0.0278
     12 H          -0.5134   -1.4994    1.7773 H       1  LIG1        0.0278
     13 C          -0.5238    1.9159   -0.5344 C.ar    1  LIG1        0.0444
     14 C           0.6044    2.5128    0.0132 C.ar    1  LIG1        0.0705
     15 C           0.4713    3.9221    0.2764 C.ar    1  LIG1       -0.0172
     16 C          -0.7695    4.3891   -0.1067 C.ar    1  LIG1        0.0319
     17 S          -1.7761    3.1024   -0.7542 S.2     1  LIG1       -0.0856
     18 N           2.8115    1.2407    0.4785 N.1     1  LIG1       -0.1908
     19 C           1.8158    1.8039    0.2629 C.1     1  LIG1        0.1006
     20 C           1.5658    4.7325    0.9094 C.3     1  LIG1       -0.0374
     21 H           1.1661    5.6258    1.3937 H       1  LIG1        0.0278
     22 H           2.2958    5.0605    0.1620 H       1  LIG1        0.0278
     23 H           2.0983    4.1385    1.6571 H       1  LIG1        0.0278
     24 C          -1.3039    5.7415   -0.0293 C.ar    1  LIG1        0.0444
     25 C          -0.7428    6.9290   -0.4811 C.ar    1  LIG1        0.0705
     26 C          -1.5446    8.1011   -0.2441 C.ar    1  LIG1       -0.0172
     27 C          -2.7366    7.7784    0.3717 C.ar    1  LIG1        0.0319
     28 S          -2.8595    6.0539    0.6838 S.2     1  LIG1       -0.0856
     29 N           1.5308    7.0531   -1.7148 N.1     1  LIG1       -0.1908
     30 C           0.5086    6.9875   -1.1617 C.1     1  LIG1        0.1006
     31 C          -1.0902    9.4822   -0.6202 C.3     1  LIG1       -0.0374
     32 H          -1.5906   10.2399   -0.0136 H       1  LIG1        0.0278
     33 H          -1.3143    9.6989   -1.6700 H       1  LIG1        0.0278
     34 H          -0.0101    9.5815   -0.4827 H       1  LIG1        0.0278
     35 C          -3.8290    8.6554    0.7705 C.ar    1  LIG1        0.0438
     36 C          -4.4998    9.6101    0.0169 C.ar    1  LIG1        0.0699
     37 C          -5.5468   10.2988    0.7325 C.ar    1  LIG1       -0.0255
     38 C          -5.6516    9.8349    2.0133 C.ar    1  LIG1       -0.0196
     39 S          -4.4971    8.5953    2.3808 S.2     1  LIG1       -0.0945
     40 H          -6.3505   10.1576    2.7728 H       1  LIG1        0.0696
     41 N          -4.0299   10.0644   -2.4885 N.1     1  LIG1       -0.1908
     42 C          -4.2311    9.8513   -1.3617 C.1     1  LIG1        0.1006
     43 C          -6.4059   11.3693    0.1218 C.3     1  LIG1       -0.0380
     44 H          -7.1487   11.7291    0.8370 H       1  LIG1        0.0278
     45 H          -6.9339   10.9958   -0.7620 H       1  LIG1        0.0278
     46 H          -5.8016   12.2232   -0.2026 H       1  LIG1        0.0278
@<TRIPOS>BOND
     1     6     1    1
     2     5     1   ar
     3     5     4   ar
     4    41    42    3
     5     1     2   ar
     6    29    30    3
     7    33    31    1
     8    42    36    1
     9    30    25    1
    10     2     8    1
    11     2     3   ar
    12     4    13    1
    13     4     3   ar
    14    45    43    1
    15    17    13   ar
    16    17    16   ar
    17    31    34    1
    18    31    26    1
    19    31    32    1
    20    13    14   ar
    21    25    26   ar
    22    25    24   ar
    23     8     7    3
    24    26    27   ar
    25    46    43    1
    26     3     9    1
    27    16    24    1
    28    16    15   ar
    29    24    28   ar
    30    14    19    1
    31    14    15   ar
    32    36    37   ar
    33    36    35   ar
    34    43    37    1
    35    43    44    1
    36    22    20    1
    37    19    18    3
    38    15    20    1
    39    27    28   ar
    40    27    35    1
    41    37    38   ar
    42    35    39   ar
    43    20    21    1
    44    20    23    1
    45     9    11    1
    46     9    10    1
    47     9    12    1
    48    38    39   ar
    49    38    40    1
