@<TRIPOS>MOLECULE
mol_data/opt/b3lyp/geoms/mol2/5di5di5di.out
 35 37 0 0 0
SMALL
GASTEIGER

@<TRIPOS>ATOM
      1 C          -1.8273   -1.7155   -1.3837 C.ar    1  LIG1       -0.0061
      2 C          -0.8500   -1.8851   -0.4295 C.ar    1  LIG1        0.0623
      3 C          -0.3229   -0.6483    0.0928 C.ar    1  LIG1       -0.0178
      4 C          -0.9264    0.4397   -0.5053 C.ar    1  LIG1        0.0313
      5 S          -2.1318   -0.0554   -1.6892 S.2     1  LIG1       -0.0945
      6 H          -2.3692   -2.4875   -1.9111 H       1  LIG1        0.0706
      7 N          -0.0680   -4.2115    0.4007 N.1     1  LIG1       -0.1908
      8 C          -0.4211   -3.1702    0.0198 C.1     1  LIG1        0.1000
      9 C           0.7163   -0.6020    1.1758 C.3     1  LIG1       -0.0374
     10 H           0.6720    0.3399    1.7267 H       1  LIG1        0.0278
     11 H           1.7246   -0.6928    0.7582 H       1  LIG1        0.0278
     12 H           0.5716   -1.4258    1.8800 H       1  LIG1        0.0278
     13 C          -0.6952    1.8584   -0.2716 C.ar    1  LIG1        0.0444
     14 C           0.5043    2.5582   -0.2605 C.ar    1  LIG1        0.0705
     15 C           0.3767    3.9662    0.0132 C.ar    1  LIG1       -0.0172
     16 C          -0.9441    4.3277    0.1822 C.ar    1  LIG1        0.0319
     17 S          -2.0183    2.9448    0.0371 S.2     1  LIG1       -0.0856
     18 N           2.8004    1.4655   -0.7510 N.1     1  LIG1       -0.1908
     19 C           1.7632    1.9476   -0.5343 C.1     1  LIG1        0.1006
     20 C           1.5629    4.8818    0.1130 C.3     1  LIG1       -0.0374
     21 H           1.3307    5.7622    0.7159 H       1  LIG1        0.0278
     22 H           1.8756    5.2321   -0.8763 H       1  LIG1        0.0278
     23 H           2.4115    4.3621    0.5659 H       1  LIG1        0.0278
     24 C          -1.5064    5.6426    0.4580 C.ar    1  LIG1        0.0438
     25 C          -1.2819    6.8441   -0.2018 C.ar    1  LIG1        0.0699
     26 C          -2.0181    7.9616    0.3386 C.ar    1  LIG1       -0.0255
     27 C          -2.7964    7.5724    1.3917 C.ar    1  LIG1       -0.0196
     28 S          -2.6441    5.8850    1.7584 S.2     1  LIG1       -0.0945
     29 H          -3.4589    8.1909    1.9816 H       1  LIG1        0.0696
     30 N           0.2202    7.0843   -2.2970 N.1     1  LIG1       -0.1908
     31 C          -0.4514    6.9627   -1.3537 C.1     1  LIG1        0.1006
     32 C          -1.9364    9.3561   -0.2142 C.3     1  LIG1       -0.0380
     33 H          -2.5923   10.0335    0.3369 H       1  LIG1        0.0278
     34 H          -2.2278    9.3800   -1.2696 H       1  LIG1        0.0278
     35 H          -0.9145    9.7455   -0.1546 H       1  LIG1        0.0278
@<TRIPOS>BOND
     1    30    31    3
     2     6     1    1
     3     5     1   ar
     4     5     4   ar
     5     1     2   ar
     6    31    25    1
     7    34    32    1
     8    22    20    1
     9    18    19    3
    10    19    14    1
    11     4    13    1
    12     4     3   ar
    13     2     8    1
    14     2     3   ar
    15    13    14   ar
    16    13    17   ar
    17    14    15   ar
    18    32    35    1
    19    32    33    1
    20    32    26    1
    21    25    26   ar
    22    25    24   ar
    23    15    20    1
    24    15    16   ar
    25     8     7    3
    26    17    16   ar
    27     3     9    1
    28    20    23    1
    29    20    21    1
    30    16    24    1
    31    26    27   ar
    32    24    28   ar
    33    11     9    1
    34     9    10    1
    35     9    12    1
    36    27    28   ar
    37    27    29    1
