@<TRIPOS>MOLECULE
mol_data/opt/b3lyp/geoms/mol2/5di5di-5di5di.out
 46 49 0 0 0
SMALL
GASTEIGER

@<TRIPOS>ATOM
      1 C          -1.3768   -1.5280   -2.1892 C.ar    1  LIG1       -0.0061
      2 C          -0.8860   -1.7990   -0.9322 C.ar    1  LIG1        0.0623
      3 C          -0.5304   -0.6222   -0.1779 C.ar    1  LIG1       -0.0178
      4 C          -0.7607    0.5246   -0.9112 C.ar    1  LIG1        0.0313
      5 S          -1.4136    0.1575   -2.5045 S.2     1  LIG1       -0.0945
      6 H          -1.7105   -2.2403   -2.9301 H       1  LIG1        0.0706
      7 N          -0.6749   -4.1989    0.0214 N.1     1  LIG1       -0.1908
      8 C          -0.7683   -3.1245   -0.4155 C.1     1  LIG1        0.1000
      9 C          -0.0200   -0.6866    1.2328 C.3     1  LIG1       -0.0374
     10 H          -0.2144    0.2455    1.7676 H       1  LIG1        0.0278
     11 H           1.0612   -0.8593    1.2529 H       1  LIG1        0.0278
     12 H          -0.4986   -1.5067    1.7750 H       1  LIG1        0.0278
     13 C          -0.5428    1.9133   -0.5311 C.ar    1  LIG1        0.0444
     14 C           0.5965    2.5061   -0.0023 C.ar    1  LIG1        0.0705
     15 C           0.4726    3.9155    0.2646 C.ar    1  LIG1       -0.0172
     16 C          -0.7730    4.3870   -0.0969 C.ar    1  LIG1        0.0319
     17 S          -1.7948    3.1043   -0.7285 S.2     1  LIG1       -0.0856
     18 N           2.8074    1.2265    0.4229 N.1     1  LIG1       -0.1908
     19 C           1.8099    1.7931    0.2255 C.1     1  LIG1        0.1006
     20 C           1.5804    4.7219    0.8790 C.3     1  LIG1       -0.0374
     21 H           1.1918    5.6152    1.3723 H       1  LIG1        0.0278
     22 H           2.2973    5.0498    0.1189 H       1  LIG1        0.0278
     23 H           2.1252    4.1251    1.6155 H       1  LIG1        0.0278
     24 C          -1.3017    5.7410   -0.0089 C.ar    1  LIG1        0.0444
     25 C          -0.7449    6.9272   -0.4692 C.ar    1  LIG1        0.0705
     26 C          -1.5387    8.1015   -0.2170 C.ar    1  LIG1       -0.0172
     27 C          -2.7208    7.7819    0.4191 C.ar    1  LIG1        0.0319
     28 S          -2.8436    6.0575    0.7316 S.2     1  LIG1       -0.0856
     29 N           1.5074    7.0457   -1.7419 N.1     1  LIG1       -0.1908
     30 C           0.4947    6.9826   -1.1713 C.1     1  LIG1        0.1006
     31 C          -1.0868    9.4815   -0.6000 C.3     1  LIG1       -0.0374
     32 H          -1.5768   10.2405    0.0135 H       1  LIG1        0.0278
     33 H          -1.3256    9.6983   -1.6466 H       1  LIG1        0.0278
     34 H          -0.0047    9.5786   -0.4782 H       1  LIG1        0.0278
     35 C          -3.8036    8.6618    0.8373 C.ar    1  LIG1        0.0438
     36 C          -4.4854    9.6183    0.0959 C.ar    1  LIG1        0.0699
     37 C          -5.5177   10.3094    0.8301 C.ar    1  LIG1       -0.0255
     38 C          -5.6007    9.8457    2.1126 C.ar    1  LIG1       -0.0196
     39 S          -4.4430    8.6032    2.4593 S.2     1  LIG1       -0.0945
     40 H          -6.2852   10.1701    2.8844 H       1  LIG1        0.0696
     41 N          -4.0580   10.0724   -2.4171 N.1     1  LIG1       -0.1908
     42 C          -4.2402    9.8592   -1.2871 C.1     1  LIG1        0.1006
     43 C          -6.3848   11.3821    0.2350 C.3     1  LIG1       -0.0380
     44 H          -7.1140   11.7435    0.9633 H       1  LIG1        0.0278
     45 H          -6.9291   11.0103   -0.6395 H       1  LIG1        0.0278
     46 H          -5.7843   12.2348   -0.0996 H       1  LIG1        0.0278
@<TRIPOS>BOND
     1     6     1    1
     2     5     1   ar
     3     5     4   ar
     4    41    42    3
     5     1     2   ar
     6    29    30    3
     7    33    31    1
     8    42    36    1
     9    30    25    1
    10     2     8    1
    11     2     3   ar
    12     4    13    1
    13     4     3   ar
    14    17    13   ar
    15    17    16   ar
    16    45    43    1
    17    31    34    1
    18    31    26    1
    19    31    32    1
    20    13    14   ar
    21    25    26   ar
    22    25    24   ar
    23     8     7    3
    24    26    27   ar
    25     3     9    1
    26    46    43    1
    27    16    24    1
    28    16    15   ar
    29    24    28   ar
    30    14    19    1
    31    14    15   ar
    32    36    37   ar
    33    36    35   ar
    34    22    20    1
    35    19    18    3
    36    43    37    1
    37    43    44    1
    38    15    20    1
    39    27    28   ar
    40    27    35    1
    41    37    38   ar
    42    35    39   ar
    43    20    21    1
    44    20    23    1
    45     9    11    1
    46     9    10    1
    47     9    12    1
    48    38    39   ar
    49    38    40    1
