@<TRIPOS>MOLECULE
mol_data/opt/b3lyp/geoms/mol2/5di5di5di5di-.out
 46 49 0 0 0
SMALL
GASTEIGER

@<TRIPOS>ATOM
      1 C          -1.3442   -1.5438   -2.1633 C.ar    1  LIG1       -0.0061
      2 C          -0.8637   -1.8042   -0.9001 C.ar    1  LIG1        0.0623
      3 C          -0.5171   -0.6208   -0.1518 C.ar    1  LIG1       -0.0178
      4 C          -0.7437    0.5198   -0.8958 C.ar    1  LIG1        0.0313
      5 S          -1.3820    0.1391   -2.4918 S.2     1  LIG1       -0.0945
      6 H          -1.6701   -2.2626   -2.9016 H       1  LIG1        0.0706
      7 N          -0.6553   -4.1962    0.0737 N.1     1  LIG1       -0.1908
      8 C          -0.7475   -3.1253   -0.3722 C.1     1  LIG1        0.1000
      9 C          -0.0183   -0.6732    1.2635 C.3     1  LIG1       -0.0374
     10 H          -0.2175    0.2632    1.7889 H       1  LIG1        0.0278
     11 H           1.0629   -0.8450    1.2938 H       1  LIG1        0.0278
     12 H          -0.5008   -1.4890    1.8086 H       1  LIG1        0.0278
     13 C          -0.5317    1.9119   -0.5245 C.ar    1  LIG1        0.0444
     14 C           0.6028    2.5111    0.0074 C.ar    1  LIG1        0.0705
     15 C           0.4740    3.9222    0.2629 C.ar    1  LIG1       -0.0172
     16 C          -0.7703    4.3881   -0.1103 C.ar    1  LIG1        0.0319
     17 S          -1.7850    3.0984   -0.7391 S.2     1  LIG1       -0.0856
     18 N           2.8129    1.2389    0.4580 N.1     1  LIG1       -0.1908
     19 C           1.8159    1.8023    0.2491 C.1     1  LIG1        0.1006
     20 C           1.5758    4.7355    0.8791 C.3     1  LIG1       -0.0374
     21 H           1.1818    5.6313    1.3636 H       1  LIG1        0.0278
     22 H           2.2970    5.0599    0.1216 H       1  LIG1        0.0278
     23 H           2.1170    4.1452    1.6234 H       1  LIG1        0.0278
     24 C          -1.3026    5.7415   -0.0359 C.ar    1  LIG1        0.0444
     25 C          -0.7452    6.9257   -0.5008 C.ar    1  LIG1        0.0705
     26 C          -1.5436    8.0999   -0.2630 C.ar    1  LIG1       -0.0172
     27 C          -2.7297    7.7821    0.3666 C.ar    1  LIG1        0.0319
     28 S          -2.8508    6.0597    0.6906 S.2     1  LIG1       -0.0856
     29 N           1.5160    7.0404   -1.7580 N.1     1  LIG1       -0.1908
     30 C           0.4994    6.9790   -1.1942 C.1     1  LIG1        0.1006
     31 C          -1.0918    9.4782   -0.6523 C.3     1  LIG1       -0.0374
     32 H          -1.5878   10.2403   -0.0477 H       1  LIG1        0.0278
     33 H          -1.3235    9.6872   -1.7021 H       1  LIG1        0.0278
     34 H          -0.0108    9.5784   -0.5233 H       1  LIG1        0.0278
     35 C          -3.8177    8.6623    0.7704 C.ar    1  LIG1        0.0438
     36 C          -4.4955    9.6126    0.0175 C.ar    1  LIG1        0.0699
     37 C          -5.5351   10.3062    0.7390 C.ar    1  LIG1       -0.0255
     38 C          -5.6275    9.8503    2.0236 C.ar    1  LIG1       -0.0196
     39 S          -4.4700    8.6125    2.3875 S.2     1  LIG1       -0.0945
     40 H          -6.3188   10.1780    2.7878 H       1  LIG1        0.0696
     41 N          -4.0496   10.0512   -2.4951 N.1     1  LIG1       -0.1908
     42 C          -4.2401    9.8452   -1.3651 C.1     1  LIG1        0.1006
     43 C          -6.3996   11.3733    0.1301 C.3     1  LIG1       -0.0380
     44 H          -7.1349   11.7382    0.8505 H       1  LIG1        0.0278
     45 H          -6.9368   10.9945   -0.7458 H       1  LIG1        0.0278
     46 H          -5.7981   12.2247   -0.2058 H       1  LIG1        0.0278
@<TRIPOS>BOND
     1     6     1    1
     2    41    42    3
     3     5     1   ar
     4     5     4   ar
     5     1     2   ar
     6    29    30    3
     7    33    31    1
     8    42    36    1
     9    30    25    1
    10     2     8    1
    11     2     3   ar
    12     4    13    1
    13     4     3   ar
    14    45    43    1
    15    17    13   ar
    16    17    16   ar
    17    31    34    1
    18    31    26    1
    19    31    32    1
    20    13    14   ar
    21    25    26   ar
    22    25    24   ar
    23     8     7    3
    24    26    27   ar
    25    46    43    1
    26     3     9    1
    27    16    24    1
    28    16    15   ar
    29    24    28   ar
    30    14    19    1
    31    14    15   ar
    32    36    37   ar
    33    36    35   ar
    34    22    20    1
    35    43    37    1
    36    43    44    1
    37    19    18    3
    38    15    20    1
    39    27    28   ar
    40    27    35    1
    41    37    38   ar
    42    35    39   ar
    43    20    21    1
    44    20    23    1
    45     9    11    1
    46     9    10    1
    47     9    12    1
    48    38    39   ar
    49    38    40    1
