@<TRIPOS>MOLECULE
mol_data/opt/b3lyp/geoms/mol2/5di5di-5di.out
 35 37 0 0 0
SMALL
GASTEIGER

@<TRIPOS>ATOM
      1 C          -1.8429   -1.7023   -1.4123 C.ar    1  LIG1       -0.0061
      2 C          -0.8643   -1.8810   -0.4611 C.ar    1  LIG1        0.0623
      3 C          -0.3331   -0.6491    0.0688 C.ar    1  LIG1       -0.0178
      4 C          -0.9350    0.4445   -0.5207 C.ar    1  LIG1        0.0313
      5 S          -2.1438   -0.0394   -1.7057 S.2     1  LIG1       -0.0945
      6 H          -2.3877   -2.4693   -1.9441 H       1  LIG1        0.0706
      7 N          -0.0867   -4.2151    0.3515 N.1     1  LIG1       -0.1908
      8 C          -0.4378   -3.1703   -0.0215 C.1     1  LIG1        0.1000
      9 C           0.7081   -0.6130    1.1502 C.3     1  LIG1       -0.0374
     10 H           0.6664    0.3247    1.7085 H       1  LIG1        0.0278
     11 H           1.7156   -0.7020    0.7301 H       1  LIG1        0.0278
     12 H           0.5634   -1.4420    1.8482 H       1  LIG1        0.0278
     13 C          -0.7001    1.8608   -0.2769 C.ar    1  LIG1        0.0444
     14 C           0.5013    2.5574   -0.2624 C.ar    1  LIG1        0.0705
     15 C           0.3779    3.9636    0.0221 C.ar    1  LIG1       -0.0172
     16 C          -0.9417    4.3274    0.1957 C.ar    1  LIG1        0.0319
     17 S          -2.0198    2.9484    0.0416 S.2     1  LIG1       -0.0856
     18 N           2.7936    1.4621   -0.7651 N.1     1  LIG1       -0.1908
     19 C           1.7581    1.9455   -0.5429 C.1     1  LIG1        0.1006
     20 C           1.5667    4.8752    0.1273 C.3     1  LIG1       -0.0374
     21 H           1.3376    5.7519    0.7368 H       1  LIG1        0.0278
     22 H           1.8792    5.2319   -0.8599 H       1  LIG1        0.0278
     23 H           2.4144    4.3499    0.5753 H       1  LIG1        0.0278
     24 C          -1.5001    5.6416    0.4822 C.ar    1  LIG1        0.0438
     25 C          -1.2731    6.8475   -0.1686 C.ar    1  LIG1        0.0699
     26 C          -2.0056    7.9628    0.3812 C.ar    1  LIG1       -0.0255
     27 C          -2.7838    7.5677    1.4322 C.ar    1  LIG1       -0.0196
     28 S          -2.6357    5.8771    1.7858 S.2     1  LIG1       -0.0945
     29 H          -3.4440    8.1834    2.0275 H       1  LIG1        0.0696
     30 N           0.2275    7.0999   -2.2636 N.1     1  LIG1       -0.1908
     31 C          -0.4436    6.9728   -1.3206 C.1     1  LIG1        0.1006
     32 C          -1.9208    9.3613   -0.1609 C.3     1  LIG1       -0.0380
     33 H          -2.5740   10.0363    0.3962 H       1  LIG1        0.0278
     34 H          -2.2134    9.3942   -1.2158 H       1  LIG1        0.0278
     35 H          -0.8977    9.7475   -0.0997 H       1  LIG1        0.0278
@<TRIPOS>BOND
     1    30    31    3
     2     6     1    1
     3     5     1   ar
     4     5     4   ar
     5     1     2   ar
     6    31    25    1
     7    34    32    1
     8    22    20    1
     9    18    19    3
    10    19    14    1
    11     4    13    1
    12     4     3   ar
    13     2     8    1
    14     2     3   ar
    15    13    14   ar
    16    13    17   ar
    17    14    15   ar
    18    25    26   ar
    19    25    24   ar
    20    32    35    1
    21    32    26    1
    22    32    33    1
    23     8     7    3
    24    15    20    1
    25    15    16   ar
    26    17    16   ar
    27     3     9    1
    28    20    23    1
    29    20    21    1
    30    16    24    1
    31    26    27   ar
    32    24    28   ar
    33    11     9    1
    34     9    10    1
    35     9    12    1
    36    27    28   ar
    37    27    29    1
