@<TRIPOS>MOLECULE
mol_data/opt/b3lyp/geoms/mol2/5di5di-5di5di-.out
 46 49 0 0 0
SMALL
GASTEIGER

@<TRIPOS>ATOM
      1 C          -1.3504   -1.5244   -2.2051 C.ar    1  LIG1       -0.0061
      2 C          -0.8644   -1.7960   -0.9464 C.ar    1  LIG1        0.0623
      3 C          -0.5154   -0.6192   -0.1889 C.ar    1  LIG1       -0.0178
      4 C          -0.7459    0.5280   -0.9214 C.ar    1  LIG1        0.0313
      5 S          -1.3907    0.1613   -2.5181 S.2     1  LIG1       -0.0945
      6 H          -1.6789   -2.2367   -2.9485 H       1  LIG1        0.0706
      7 N          -0.6502   -4.1965    0.0047 N.1     1  LIG1       -0.1908
      8 C          -0.7450   -3.1217   -0.4310 C.1     1  LIG1        0.1000
      9 C          -0.0110   -0.6842    1.2240 C.3     1  LIG1       -0.0374
     10 H          -0.2080    0.2475    1.7585 H       1  LIG1        0.0278
     11 H           1.0702   -0.8565    1.2485 H       1  LIG1        0.0278
     12 H          -0.4916   -1.5047    1.7637 H       1  LIG1        0.0278
     13 C          -0.5332    1.9167   -0.5383 C.ar    1  LIG1        0.0444
     14 C           0.6029    2.5115   -0.0051 C.ar    1  LIG1        0.0705
     15 C           0.4745    3.9202    0.2639 C.ar    1  LIG1       -0.0172
     16 C          -0.7713    4.3889   -0.1002 C.ar    1  LIG1        0.0319
     17 S          -1.7879    3.1046   -0.7370 S.2     1  LIG1       -0.0856
     18 N           2.8156    1.2367    0.4251 N.1     1  LIG1       -0.1908
     19 C           1.8174    1.8012    0.2253 C.1     1  LIG1        0.1006
     20 C           1.5783    4.7282    0.8834 C.3     1  LIG1       -0.0374
     21 H           1.1861    5.6201    1.3764 H       1  LIG1        0.0278
     22 H           2.2975    5.0585    0.1264 H       1  LIG1        0.0278
     23 H           2.1216    4.1317    1.6213 H       1  LIG1        0.0278
     24 C          -1.3038    5.7414   -0.0116 C.ar    1  LIG1        0.0444
     25 C          -0.7487    6.9298   -0.4682 C.ar    1  LIG1        0.0705
     26 C          -1.5464    8.1016   -0.2165 C.ar    1  LIG1       -0.0172
     27 C          -2.7297    7.7778    0.4154 C.ar    1  LIG1        0.0319
     28 S          -2.8489    6.0526    0.7245 S.2     1  LIG1       -0.0856
     29 N           1.5072    7.0566   -1.7337 N.1     1  LIG1       -0.1908
     30 C           0.4929    6.9898   -1.1663 C.1     1  LIG1        0.1006
     31 C          -1.0967    9.4836   -0.5954 C.3     1  LIG1       -0.0374
     32 H          -1.5883   10.2399    0.0201 H       1  LIG1        0.0278
     33 H          -1.3355    9.7030   -1.6414 H       1  LIG1        0.0278
     34 H          -0.0148    9.5822   -0.4728 H       1  LIG1        0.0278
     35 C          -3.8158    8.6542    0.8321 C.ar    1  LIG1        0.0438
     36 C          -4.4967    9.6116    0.0911 C.ar    1  LIG1        0.0699
     37 C          -5.5330   10.2986    0.8235 C.ar    1  LIG1       -0.0255
     38 C          -5.6199    9.8309    2.1043 C.ar    1  LIG1       -0.0196
     39 S          -4.4611    8.5895    2.4516 S.2     1  LIG1       -0.0945
     40 H          -6.3077   10.1516    2.8746 H       1  LIG1        0.0696
     41 N          -4.0624   10.0733   -2.4194 N.1     1  LIG1       -0.1908
     42 C          -4.2475    9.8568   -1.2905 C.1     1  LIG1        0.1006
     43 C          -6.3999   11.3715    0.2285 C.3     1  LIG1       -0.0380
     44 H          -7.1318   11.7300    0.9555 H       1  LIG1        0.0278
     45 H          -6.9411   11.0010   -0.6485 H       1  LIG1        0.0278
     46 H          -5.7997   12.2259   -0.1024 H       1  LIG1        0.0278
@<TRIPOS>BOND
     1     6     1    1
     2     5     1   ar
     3     5     4   ar
     4    41    42    3
     5     1     2   ar
     6    29    30    3
     7    33    31    1
     8    42    36    1
     9    30    25    1
    10     2     8    1
    11     2     3   ar
    12     4    13    1
    13     4     3   ar
    14    17    13   ar
    15    17    16   ar
    16    45    43    1
    17    31    34    1
    18    31    26    1
    19    31    32    1
    20    13    14   ar
    21    25    26   ar
    22    25    24   ar
    23     8     7    3
    24    26    27   ar
    25     3     9    1
    26    46    43    1
    27    16    24    1
    28    16    15   ar
    29    24    28   ar
    30    14    19    1
    31    14    15   ar
    32    36    37   ar
    33    36    35   ar
    34    22    20    1
    35    19    18    3
    36    43    37    1
    37    43    44    1
    38    15    20    1
    39    27    28   ar
    40    27    35    1
    41    37    38   ar
    42    35    39   ar
    43    20    21    1
    44    20    23    1
    45     9    11    1
    46     9    10    1
    47     9    12    1
    48    38    39   ar
    49    38    40    1
