@<TRIPOS>MOLECULE
mol_data/opt/b3lyp/geoms/mol2/5di5di-.out
 24 25 0 0 0
SMALL
GASTEIGER

@<TRIPOS>ATOM
      1 C          -2.0682   -1.7569   -0.7265 C.ar    1  LIG1       -0.0061
      2 C          -0.7946   -1.8489   -0.2133 C.ar    1  LIG1        0.0623
      3 C          -0.2202   -0.5782    0.1561 C.ar    1  LIG1       -0.0178
      4 C          -1.0946    0.4572   -0.1056 C.ar    1  LIG1        0.0313
      5 S          -2.6068   -0.1292   -0.7909 S.2     1  LIG1       -0.0945
      6 H          -2.6995   -2.5670   -1.0627 H       1  LIG1        0.0706
      7 N           0.4394   -4.1032    0.1168 N.1     1  LIG1       -0.1908
      8 C          -0.1189   -3.0940   -0.0382 C.1     1  LIG1        0.1000
      9 C           1.1409   -0.4520    0.7778 C.3     1  LIG1       -0.0374
     10 H           1.2212    0.4622    1.3699 H       1  LIG1        0.0278
     11 H           1.9229   -0.4181    0.0116 H       1  LIG1        0.0278
     12 H           1.3465   -1.3079    1.4264 H       1  LIG1        0.0278
     13 C          -0.9149    1.8856    0.1141 C.ar    1  LIG1        0.0438
     14 C           0.1399    2.7025   -0.2722 C.ar    1  LIG1        0.0699
     15 C          -0.0115    4.0855    0.1122 C.ar    1  LIG1       -0.0255
     16 C          -1.1910    4.2848    0.7716 C.ar    1  LIG1       -0.0196
     17 S          -2.1155    2.8297    0.9577 S.2     1  LIG1       -0.0945
     18 H          -1.5733    5.2167    1.1651 H       1  LIG1        0.0696
     19 N           2.1657    1.8908   -1.6655 N.1     1  LIG1       -0.1908
     20 C           1.2495    2.2414   -1.0383 C.1     1  LIG1        0.1006
     21 C           1.0012    5.1503   -0.2001 C.3     1  LIG1       -0.0380
     22 H           0.6707    6.1238    0.1689 H       1  LIG1        0.0278
     23 H           1.1690    5.2318   -1.2792 H       1  LIG1        0.0278
     24 H           1.9692    4.9213    0.2583 H       1  LIG1        0.0278
@<TRIPOS>BOND
     1    19    20    3
     2    23    21    1
     3     6     1    1
     4    20    14    1
     5     5     1   ar
     6     5     4   ar
     7     1     2   ar
     8    14    15   ar
     9    14    13   ar
    10     2     8    1
    11     2     3   ar
    12    21    15    1
    13    21    22    1
    14    21    24    1
    15     4    13    1
    16     4     3   ar
    17     8     7    3
    18    11     9    1
    19    15    16   ar
    20    13    17   ar
    21     3     9    1
    22    16    17   ar
    23    16    18    1
    24     9    10    1
    25     9    12    1
