@<TRIPOS>MOLECULE
mol_data/opt/b3lyp/geoms/mol2/5di5di-5di-5di-.out
 46 49 0 0 0
SMALL
GASTEIGER

@<TRIPOS>ATOM
      1 C          -1.3415   -1.5212   -2.2165 C.ar    1  LIG1       -0.0061
      2 C          -0.8654   -1.7953   -0.9545 C.ar    1  LIG1        0.0623
      3 C          -0.5204   -0.6202   -0.1926 C.ar    1  LIG1       -0.0178
      4 C          -0.7438    0.5284   -0.9251 C.ar    1  LIG1        0.0313
      5 S          -1.3771    0.1652   -2.5271 S.2     1  LIG1       -0.0945
      6 H          -1.6655   -2.2318   -2.9634 H       1  LIG1        0.0706
      7 N          -0.6617   -4.1976   -0.0056 N.1     1  LIG1       -0.1908
      8 C          -0.7518   -3.1220   -0.4404 C.1     1  LIG1        0.1000
      9 C          -0.0265   -0.6880    1.2238 C.3     1  LIG1       -0.0374
     10 H          -0.2284    0.2422    1.7590 H       1  LIG1        0.0278
     11 H           1.0548   -0.8592    1.2560 H       1  LIG1        0.0278
     12 H          -0.5101   -1.5103    1.7581 H       1  LIG1        0.0278
     13 C          -0.5323    1.9164   -0.5384 C.ar    1  LIG1        0.0444
     14 C           0.6004    2.5092    0.0044 C.ar    1  LIG1        0.0705
     15 C           0.4713    3.9176    0.2744 C.ar    1  LIG1       -0.0172
     16 C          -0.7712    4.3882   -0.0987 C.ar    1  LIG1        0.0319
     17 S          -1.7841    3.1059   -0.7451 S.2     1  LIG1       -0.0856
     18 N           2.8084    1.2317    0.4500 N.1     1  LIG1       -0.1908
     19 C           1.8123    1.7974    0.2432 C.1     1  LIG1        0.1006
     20 C           1.5712    4.7234    0.9038 C.3     1  LIG1       -0.0374
     21 H           1.1763    5.6162    1.3931 H       1  LIG1        0.0278
     22 H           2.2978    5.0522    0.1533 H       1  LIG1        0.0278
     23 H           2.1065    4.1259    1.6466 H       1  LIG1        0.0278
     24 C          -1.3028    5.7412   -0.0123 C.ar    1  LIG1        0.0444
     25 C          -0.7426    6.9296   -0.4627 C.ar    1  LIG1        0.0705
     26 C          -1.5411    8.1019   -0.2160 C.ar    1  LIG1       -0.0172
     27 C          -2.7299    7.7785    0.4058 C.ar    1  LIG1        0.0319
     28 S          -2.8535    6.0531    0.7116 S.2     1  LIG1       -0.0856
     29 N           1.5235    7.0554   -1.7099 N.1     1  LIG1       -0.1908
     30 C           0.5046    6.9890   -1.1508 C.1     1  LIG1        0.1006
     31 C          -1.0869    9.4839   -0.5892 C.3     1  LIG1       -0.0374
     32 H          -1.5834   10.2400    0.0226 H       1  LIG1        0.0278
     33 H          -1.3159    9.7047   -1.6371 H       1  LIG1        0.0278
     34 H          -0.0060    9.5814   -0.4567 H       1  LIG1        0.0278
     35 C          -3.8183    8.6557    0.8149 C.ar    1  LIG1        0.0438
     36 C          -4.4923    9.6143    0.0691 C.ar    1  LIG1        0.0699
     37 C          -5.5336   10.3020    0.7938 C.ar    1  LIG1       -0.0255
     38 C          -5.6311    9.8334    2.0735 C.ar    1  LIG1       -0.0196
     39 S          -4.4764    8.5906    2.4291 S.2     1  LIG1       -0.0945
     40 H          -6.3247   10.1544    2.8386 H       1  LIG1        0.0696
     41 N          -4.0369   10.0772   -2.4374 N.1     1  LIG1       -0.1908
     42 C          -4.2317    9.8603   -1.3102 C.1     1  LIG1        0.1006
     43 C          -6.3947   11.3762    0.1926 C.3     1  LIG1       -0.0380
     44 H          -7.1324   11.7345    0.9138 H       1  LIG1        0.0278
     45 H          -6.9287   11.0071   -0.6893 H       1  LIG1        0.0278
     46 H          -5.7910   12.2304   -0.1322 H       1  LIG1        0.0278
@<TRIPOS>BOND
     1     6     1    1
     2     5     1   ar
     3     5     4   ar
     4    41    42    3
     5     1     2   ar
     6    29    30    3
     7    33    31    1
     8    42    36    1
     9    30    25    1
    10     2     8    1
    11     2     3   ar
    12     4    13    1
    13     4     3   ar
    14    17    13   ar
    15    17    16   ar
    16    45    43    1
    17    31    34    1
    18    31    26    1
    19    31    32    1
    20    13    14   ar
    21    25    26   ar
    22    25    24   ar
    23     8     7    3
    24    26    27   ar
    25     3     9    1
    26    46    43    1
    27    16    24    1
    28    16    15   ar
    29    24    28   ar
    30    14    19    1
    31    14    15   ar
    32    36    37   ar
    33    36    35   ar
    34    22    20    1
    35    43    37    1
    36    43    44    1
    37    19    18    3
    38    15    20    1
    39    27    28   ar
    40    27    35    1
    41    37    38   ar
    42    35    39   ar
    43    20    21    1
    44    20    23    1
    45     9    11    1
    46     9    12    1
    47     9    10    1
    48    38    39   ar
    49    38    40    1
