@<TRIPOS>MOLECULE
mol_data/opt/b3lyp/geoms/mol2/5di5di5di-.out
 35 37 0 0 0
SMALL
GASTEIGER

@<TRIPOS>ATOM
      1 C          -1.8192   -1.7084   -1.4125 C.ar    1  LIG1       -0.0061
      2 C          -0.8504   -1.8828   -0.4506 C.ar    1  LIG1        0.0623
      3 C          -0.3269   -0.6487    0.0817 C.ar    1  LIG1       -0.0178
      4 C          -0.9244    0.4423   -0.5170 C.ar    1  LIG1        0.0313
      5 S          -2.1198   -0.0468   -1.7135 S.2     1  LIG1       -0.0945
      6 H          -2.3570   -2.4777   -1.9480 H       1  LIG1        0.0706
      7 N          -0.0774   -4.2135    0.3763 N.1     1  LIG1       -0.1908
      8 C          -0.4263   -3.1703   -0.0031 C.1     1  LIG1        0.1000
      9 C           0.7027   -0.6080    1.1739 C.3     1  LIG1       -0.0374
     10 H           0.6543    0.3316    1.7285 H       1  LIG1        0.0278
     11 H           1.7146   -0.6977    0.7648 H       1  LIG1        0.0278
     12 H           0.5511   -1.4347    1.8733 H       1  LIG1        0.0278
     13 C          -0.6943    1.8597   -0.2749 C.ar    1  LIG1        0.0444
     14 C           0.5056    2.5584   -0.2497 C.ar    1  LIG1        0.0705
     15 C           0.3768    3.9652    0.0294 C.ar    1  LIG1       -0.0172
     16 C          -0.9452    4.3272    0.1881 C.ar    1  LIG1        0.0319
     17 S          -2.0192    2.9460    0.0268 S.2     1  LIG1       -0.0856
     18 N           2.8052    1.4661   -0.7247 N.1     1  LIG1       -0.1908
     19 C           1.7665    1.9481   -0.5150 C.1     1  LIG1        0.1006
     20 C           1.5628    4.8793    0.1442 C.3     1  LIG1       -0.0374
     21 H           1.3260    5.7571    0.7490 H       1  LIG1        0.0278
     22 H           1.8847    5.2339   -0.8407 H       1  LIG1        0.0278
     23 H           2.4069    4.3567    0.6023 H       1  LIG1        0.0278
     24 C          -1.5090    5.6412    0.4648 C.ar    1  LIG1        0.0438
     25 C          -1.2774    6.8457   -0.1871 C.ar    1  LIG1        0.0699
     26 C          -2.0175    7.9613    0.3520 C.ar    1  LIG1       -0.0255
     27 C          -2.8055    7.5678    1.3962 C.ar    1  LIG1       -0.0196
     28 S          -2.6580    5.8785    1.7562 S.2     1  LIG1       -0.0945
     29 H          -3.4728    8.1841    1.9830 H       1  LIG1        0.0696
     30 N           0.2439    7.0950   -2.2674 N.1     1  LIG1       -0.1908
     31 C          -0.4364    6.9692   -1.3309 C.1     1  LIG1        0.1006
     32 C          -1.9297    9.3583   -0.1934 C.3     1  LIG1       -0.0380
     33 H          -2.5896   10.0338    0.3552 H       1  LIG1        0.0278
     34 H          -2.2119    9.3875   -1.2512 H       1  LIG1        0.0278
     35 H          -0.9079    9.7464   -0.1232 H       1  LIG1        0.0278
@<TRIPOS>BOND
     1    30    31    3
     2     6     1    1
     3     5     1   ar
     4     5     4   ar
     5     1     2   ar
     6    31    25    1
     7    34    32    1
     8    22    20    1
     9    18    19    3
    10     4    13    1
    11     4     3   ar
    12    19    14    1
    13     2     8    1
    14     2     3   ar
    15    13    14   ar
    16    13    17   ar
    17    14    15   ar
    18    32    35    1
    19    32    26    1
    20    32    33    1
    21    25    26   ar
    22    25    24   ar
    23     8     7    3
    24    17    16   ar
    25    15    20    1
    26    15    16   ar
    27     3     9    1
    28    20    23    1
    29    20    21    1
    30    16    24    1
    31    26    27   ar
    32    24    28   ar
    33    11     9    1
    34     9    10    1
    35     9    12    1
    36    27    28   ar
    37    27    29    1
