@<TRIPOS>MOLECULE
mol_data/opt/b3lyp/geoms/mol2/5di5di-5di-.out
 35 37 0 0 0
SMALL
GASTEIGER

@<TRIPOS>ATOM
      1 C          -1.8445   -1.7036   -1.3999 C.ar    1  LIG1       -0.0061
      2 C          -0.8642   -1.8814   -0.4505 C.ar    1  LIG1        0.0623
      3 C          -0.3321   -0.6492    0.0776 C.ar    1  LIG1       -0.0178
      4 C          -0.9354    0.4440   -0.5114 C.ar    1  LIG1        0.0313
      5 S          -2.1464   -0.0409   -1.6937 S.2     1  LIG1       -0.0945
      6 H          -2.3902   -2.4709   -1.9302 H       1  LIG1        0.0706
      7 N          -0.0844   -4.2149    0.3620 N.1     1  LIG1       -0.1908
      8 C          -0.4365   -3.1704   -0.0110 C.1     1  LIG1        0.1000
      9 C           0.7113   -0.6122    1.1569 C.3     1  LIG1       -0.0374
     10 H           0.6713    0.3263    1.7139 H       1  LIG1        0.0278
     11 H           1.7178   -0.7026    0.7348 H       1  LIG1        0.0278
     12 H           0.5673   -1.4401    1.8564 H       1  LIG1        0.0278
     13 C          -0.7001    1.8606   -0.2693 C.ar    1  LIG1        0.0444
     14 C           0.5011    2.5574   -0.2579 C.ar    1  LIG1        0.0705
     15 C           0.3779    3.9639    0.0256 C.ar    1  LIG1       -0.0172
     16 C          -0.9414    4.3275    0.2017 C.ar    1  LIG1        0.0319
     17 S          -2.0194    2.9481    0.0513 S.2     1  LIG1       -0.0856
     18 N           2.7929    1.4628   -0.7640 N.1     1  LIG1       -0.1908
     19 C           1.7576    1.9458   -0.5403 C.1     1  LIG1        0.1006
     20 C           1.5667    4.8759    0.1273 C.3     1  LIG1       -0.0374
     21 H           1.3387    5.7530    0.7367 H       1  LIG1        0.0278
     22 H           1.8768    5.2319   -0.8609 H       1  LIG1        0.0278
     23 H           2.4156    4.3512    0.5738 H       1  LIG1        0.0278
     24 C          -1.4996    5.6418    0.4882 C.ar    1  LIG1        0.0438
     25 C          -1.2745    6.8471   -0.1644 C.ar    1  LIG1        0.0699
     26 C          -2.0060    7.9628    0.3861 C.ar    1  LIG1       -0.0255
     27 C          -2.7814    7.5685    1.4395 C.ar    1  LIG1       -0.0196
     28 S          -2.6319    5.8782    1.7943 S.2     1  LIG1       -0.0945
     29 H          -3.4402    8.1846    2.0359 H       1  LIG1        0.0696
     30 N           0.2207    7.0980   -2.2633 N.1     1  LIG1       -0.1908
     31 C          -0.4479    6.9716   -1.3185 C.1     1  LIG1        0.1006
     32 C          -1.9229    9.3607   -0.1576 C.3     1  LIG1       -0.0380
     33 H          -2.5750   10.0361    0.4005 H       1  LIG1        0.0278
     34 H          -2.2183    9.3924   -1.2117 H       1  LIG1        0.0278
     35 H          -0.8998    9.7472   -0.0995 H       1  LIG1        0.0278
@<TRIPOS>BOND
     1    30    31    3
     2     6     1    1
     3     5     1   ar
     4     5     4   ar
     5     1     2   ar
     6    31    25    1
     7    34    32    1
     8    22    20    1
     9    18    19    3
    10    19    14    1
    11     4    13    1
    12     4     3   ar
    13     2     8    1
    14     2     3   ar
    15    13    14   ar
    16    13    17   ar
    17    14    15   ar
    18    25    26   ar
    19    25    24   ar
    20    32    35    1
    21    32    26    1
    22    32    33    1
    23     8     7    3
    24    15    20    1
    25    15    16   ar
    26    17    16   ar
    27     3     9    1
    28    20    23    1
    29    20    21    1
    30    16    24    1
    31    26    27   ar
    32    24    28   ar
    33    11     9    1
    34     9    10    1
    35     9    12    1
    36    27    28   ar
    37    27    29    1
