@<TRIPOS>MOLECULE
mol_data/opt/b3lyp/geoms/mol2/5di5di5di-5di-.out
 46 49 0 0 0
SMALL
GASTEIGER

@<TRIPOS>ATOM
      1 C          -1.3417   -1.5491   -2.1530 C.ar    1  LIG1       -0.0061
      2 C          -0.8603   -1.8062   -0.8895 C.ar    1  LIG1        0.0623
      3 C          -0.5143   -0.6208   -0.1442 C.ar    1  LIG1       -0.0178
      4 C          -0.7423    0.5179   -0.8906 C.ar    1  LIG1        0.0313
      5 S          -1.3812    0.1330   -2.4853 S.2     1  LIG1       -0.0945
      6 H          -1.6674   -2.2699   -2.8895 H       1  LIG1        0.0706
      7 N          -0.6493   -4.1956    0.0898 N.1     1  LIG1       -0.1908
      8 C          -0.7427   -3.1259   -0.3586 C.1     1  LIG1        0.1000
      9 C          -0.0150   -0.6695    1.2711 C.3     1  LIG1       -0.0374
     10 H          -0.2126    0.2687    1.7938 H       1  LIG1        0.0278
     11 H           1.0659   -0.8430    1.3015 H       1  LIG1        0.0278
     12 H          -0.4985   -1.4830    1.8189 H       1  LIG1        0.0278
     13 C          -0.5309    1.9110   -0.5227 C.ar    1  LIG1        0.0444
     14 C           0.6035    2.5119    0.0074 C.ar    1  LIG1        0.0705
     15 C           0.4743    3.9235    0.2597 C.ar    1  LIG1       -0.0172
     16 C          -0.7703    4.3881   -0.1140 C.ar    1  LIG1        0.0319
     17 S          -1.7847    3.0966   -0.7394 S.2     1  LIG1       -0.0856
     18 N           2.8145    1.2419    0.4598 N.1     1  LIG1       -0.1908
     19 C           1.8171    1.8042    0.2501 C.1     1  LIG1        0.1006
     20 C           1.5761    4.7386    0.8736 C.3     1  LIG1       -0.0374
     21 H           1.1821    5.6354    1.3561 H       1  LIG1        0.0278
     22 H           2.2971    5.0613    0.1151 H       1  LIG1        0.0278
     23 H           2.1177    4.1502    1.6192 H       1  LIG1        0.0278
     24 C          -1.3032    5.7415   -0.0426 C.ar    1  LIG1        0.0444
     25 C          -0.7464    6.9249   -0.5103 C.ar    1  LIG1        0.0705
     26 C          -1.5453    8.0993   -0.2749 C.ar    1  LIG1       -0.0172
     27 C          -2.7310    7.7823    0.3560 C.ar    1  LIG1        0.0319
     28 S          -2.8511    6.0606    0.6840 S.2     1  LIG1       -0.0856
     29 N           1.5141    7.0379   -1.7687 N.1     1  LIG1       -0.1908
     30 C           0.4978    6.9772   -1.2044 C.1     1  LIG1        0.1006
     31 C          -1.0946    9.4769   -0.6677 C.3     1  LIG1       -0.0374
     32 H          -1.5883   10.2400   -0.0623 H       1  LIG1        0.0278
     33 H          -1.3300    9.6846   -1.7169 H       1  LIG1        0.0278
     34 H          -0.0131    9.5771   -0.5427 H       1  LIG1        0.0278
     35 C          -3.8188    8.6633    0.7588 C.ar    1  LIG1        0.0438
     36 C          -4.4976    9.6114    0.0040 C.ar    1  LIG1        0.0699
     37 C          -5.5365   10.3067    0.7247 C.ar    1  LIG1       -0.0255
     38 C          -5.6274    9.8545    2.0107 C.ar    1  LIG1       -0.0196
     39 S          -4.4692    8.6178    2.3768 S.2     1  LIG1       -0.0945
     40 H          -6.3178   10.1842    2.7749 H       1  LIG1        0.0696
     41 N          -4.0542   10.0432   -2.5102 N.1     1  LIG1       -0.1908
     42 C          -4.2436    9.8402   -1.3795 C.1     1  LIG1        0.1006
     43 C          -6.4019   11.3720    0.1139 C.3     1  LIG1       -0.0380
     44 H          -7.1363   11.7390    0.8341 H       1  LIG1        0.0278
     45 H          -6.9401   10.9906   -0.7603 H       1  LIG1        0.0278
     46 H          -5.8009   12.2225   -0.2253 H       1  LIG1        0.0278
@<TRIPOS>BOND
     1     6     1    1
     2    41    42    3
     3     5     1   ar
     4     5     4   ar
     5     1     2   ar
     6    29    30    3
     7    33    31    1
     8    42    36    1
     9    30    25    1
    10     4    13    1
    11     4     3   ar
    12     2     8    1
    13     2     3   ar
    14    45    43    1
    15    17    13   ar
    16    17    16   ar
    17    31    34    1
    18    31    26    1
    19    31    32    1
    20    13    14   ar
    21    25    26   ar
    22    25    24   ar
    23     8     7    3
    24    26    27   ar
    25    46    43    1
    26     3     9    1
    27    16    24    1
    28    16    15   ar
    29    24    28   ar
    30    36    37   ar
    31    36    35   ar
    32    14    19    1
    33    14    15   ar
    34    43    37    1
    35    43    44    1
    36    22    20    1
    37    19    18    3
    38    15    20    1
    39    27    28   ar
    40    27    35    1
    41    37    38   ar
    42    35    39   ar
    43    20    21    1
    44    20    23    1
    45     9    11    1
    46     9    10    1
    47     9    12    1
    48    38    39   ar
    49    38    40    1
