@<TRIPOS>MOLECULE
mol_data/opt/b3lyp/geoms/mol2/5di5di-5di-5di.out
 46 49 0 0 0
SMALL
GASTEIGER

@<TRIPOS>ATOM
      1 C          -1.3355   -1.5159   -2.2279 C.ar    1  LIG1       -0.0061
      2 C          -0.8591   -1.7923   -0.9665 C.ar    1  LIG1        0.0623
      3 C          -0.5156   -0.6184   -0.2020 C.ar    1  LIG1       -0.0178
      4 C          -0.7403    0.5315   -0.9320 C.ar    1  LIG1        0.0313
      5 S          -1.3730    0.1710   -2.5349 S.2     1  LIG1       -0.0945
      6 H          -1.6585   -2.2254   -2.9764 H       1  LIG1        0.0706
      7 N          -0.6527   -4.1964   -0.0227 N.1     1  LIG1       -0.1908
      8 C          -0.7440   -3.1200   -0.4552 C.1     1  LIG1        0.1000
      9 C          -0.0221   -0.6888    1.2144 C.3     1  LIG1       -0.0374
     10 H          -0.2218    0.2414    1.7505 H       1  LIG1        0.0278
     11 H           1.0587   -0.8627    1.2466 H       1  LIG1        0.0278
     12 H          -0.5078   -1.5105    1.7477 H       1  LIG1        0.0278
     13 C          -0.5299    1.9188   -0.5422 C.ar    1  LIG1        0.0444
     14 C           0.6026    2.5111    0.0014 C.ar    1  LIG1        0.0705
     15 C           0.4729    3.9188    0.2747 C.ar    1  LIG1       -0.0172
     16 C          -0.7701    4.3894   -0.0966 C.ar    1  LIG1        0.0319
     17 S          -1.7825    3.1079   -0.7456 S.2     1  LIG1       -0.0856
     18 N           2.8115    1.2335    0.4431 N.1     1  LIG1       -0.1908
     19 C           1.8150    1.7993    0.2381 C.1     1  LIG1        0.1006
     20 C           1.5725    4.7239    0.9054 C.3     1  LIG1       -0.0374
     21 H           1.1770    5.6135    1.3998 H       1  LIG1        0.0278
     22 H           2.2968    5.0576    0.1548 H       1  LIG1        0.0278
     23 H           2.1108    4.1239    1.6441 H       1  LIG1        0.0278
     24 C          -1.3029    5.7417   -0.0068 C.ar    1  LIG1        0.0444
     25 C          -0.7441    6.9319   -0.4542 C.ar    1  LIG1        0.0705
     26 C          -1.5437    8.1028   -0.2043 C.ar    1  LIG1       -0.0172
     27 C          -2.7321    7.7765    0.4168 C.ar    1  LIG1        0.0319
     28 S          -2.8538    6.0501    0.7181 S.2     1  LIG1       -0.0856
     29 N           1.5217    7.0643   -1.7013 N.1     1  LIG1       -0.1908
     30 C           0.5030    6.9948   -1.1422 C.1     1  LIG1        0.1006
     31 C          -1.0911    9.4861   -0.5741 C.3     1  LIG1       -0.0374
     32 H          -1.5883   10.2401    0.0397 H       1  LIG1        0.0278
     33 H          -1.3206    9.7093   -1.6214 H       1  LIG1        0.0278
     34 H          -0.0103    9.5845   -0.4415 H       1  LIG1        0.0278
     35 C          -3.8214    8.6514    0.8282 C.ar    1  LIG1        0.0438
     36 C          -4.4966    9.6112    0.0851 C.ar    1  LIG1        0.0699
     37 C          -5.5385   10.2958    0.8118 C.ar    1  LIG1       -0.0255
     38 C          -5.6353    9.8238    2.0903 C.ar    1  LIG1       -0.0196
     39 S          -4.4791    8.5814    2.4424 S.2     1  LIG1       -0.0945
     40 H          -6.3291   10.1420    2.8563 H       1  LIG1        0.0696
     41 N          -4.0423   10.0813   -2.4203 N.1     1  LIG1       -0.1908
     42 C          -4.2365    9.8611   -1.2936 C.1     1  LIG1        0.1006
     43 C          -6.4009   11.3707    0.2136 C.3     1  LIG1       -0.0380
     44 H          -7.1385   11.7266    0.9361 H       1  LIG1        0.0278
     45 H          -6.9351   11.0032   -0.6689 H       1  LIG1        0.0278
     46 H          -5.7981   12.2263   -0.1094 H       1  LIG1        0.0278
@<TRIPOS>BOND
     1     6     1    1
     2     5     1   ar
     3     5     4   ar
     4    41    42    3
     5     1     2   ar
     6    29    30    3
     7    33    31    1
     8    42    36    1
     9    30    25    1
    10     2     8    1
    11     2     3   ar
    12     4    13    1
    13     4     3   ar
    14    17    13   ar
    15    17    16   ar
    16    45    43    1
    17    31    34    1
    18    31    26    1
    19    31    32    1
    20    13    14   ar
    21     8     7    3
    22    25    26   ar
    23    25    24   ar
    24    26    27   ar
    25     3     9    1
    26    46    43    1
    27    16    24    1
    28    16    15   ar
    29    24    28   ar
    30    14    19    1
    31    14    15   ar
    32    36    37   ar
    33    36    35   ar
    34    22    20    1
    35    43    37    1
    36    43    44    1
    37    19    18    3
    38    15    20    1
    39    27    28   ar
    40    27    35    1
    41    37    38   ar
    42    35    39   ar
    43    20    21    1
    44    20    23    1
    45     9    11    1
    46     9    12    1
    47     9    10    1
    48    38    39   ar
    49    38    40    1
