@<TRIPOS>MOLECULE
mol_data/opt/b3lyp/geoms/mol2/5di5di5di5di.out
 46 49 0 0 0
SMALL
GASTEIGER

@<TRIPOS>ATOM
      1 C          -1.3450   -1.5414   -2.1677 C.ar    1  LIG1       -0.0061
      2 C          -0.8646   -1.8033   -0.9048 C.ar    1  LIG1        0.0623
      3 C          -0.5179   -0.6209   -0.1551 C.ar    1  LIG1       -0.0178
      4 C          -0.7444    0.5206   -0.8978 C.ar    1  LIG1        0.0313
      5 S          -1.3827    0.1419   -2.4941 S.2     1  LIG1       -0.0945
      6 H          -1.6710   -2.2592   -2.9069 H       1  LIG1        0.0706
      7 N          -0.6563   -4.1965    0.0661 N.1     1  LIG1       -0.1908
      8 C          -0.7485   -3.1251   -0.3785 C.1     1  LIG1        0.1000
      9 C          -0.0191   -0.6751    1.2602 C.3     1  LIG1       -0.0374
     10 H          -0.2181    0.2607    1.7868 H       1  LIG1        0.0278
     11 H           1.0621   -0.8472    1.2902 H       1  LIG1        0.0278
     12 H          -0.5017   -1.4915    1.8043 H       1  LIG1        0.0278
     13 C          -0.5324    1.9123   -0.5246 C.ar    1  LIG1        0.0444
     14 C           0.6021    2.5106    0.0082 C.ar    1  LIG1        0.0705
     15 C           0.4734    3.9214    0.2657 C.ar    1  LIG1       -0.0172
     16 C          -0.7708    4.3879   -0.1068 C.ar    1  LIG1        0.0319
     17 S          -1.7855    3.0992   -0.7375 S.2     1  LIG1       -0.0856
     18 N           2.8123    1.2379    0.4570 N.1     1  LIG1       -0.1908
     19 C           1.8152    1.8014    0.2489 C.1     1  LIG1        0.1006
     20 C           1.5753    4.7336    0.8833 C.3     1  LIG1       -0.0374
     21 H           1.1815    5.6292    1.3683 H       1  LIG1        0.0278
     22 H           2.2973    5.0581    0.1266 H       1  LIG1        0.0278
     23 H           2.1157    4.1424    1.6275 H       1  LIG1        0.0278
     24 C          -1.3030    5.7413   -0.0307 C.ar    1  LIG1        0.0444
     25 C          -0.7452    6.9260   -0.4939 C.ar    1  LIG1        0.0705
     26 C          -1.5435    8.1000   -0.2546 C.ar    1  LIG1       -0.0172
     27 C          -2.7297    7.7815    0.3745 C.ar    1  LIG1        0.0319
     28 S          -2.8510    6.0587    0.6963 S.2     1  LIG1       -0.0856
     29 N           1.5159    7.0420   -1.7510 N.1     1  LIG1       -0.1908
     30 C           0.4993    6.9800   -1.1873 C.1     1  LIG1        0.1006
     31 C          -1.0916    9.4788   -0.6420 C.3     1  LIG1       -0.0374
     32 H          -1.5872   10.2402   -0.0361 H       1  LIG1        0.0278
     33 H          -1.3234    9.6894   -1.6914 H       1  LIG1        0.0278
     34 H          -0.0104    9.5785   -0.5132 H       1  LIG1        0.0278
     35 C          -3.8174    8.6616    0.7796 C.ar    1  LIG1        0.0438
     36 C          -4.4946    9.6131    0.0277 C.ar    1  LIG1        0.0699
     37 C          -5.5340   10.3064    0.7500 C.ar    1  LIG1       -0.0255
     38 C          -5.6267    9.8490    2.0340 C.ar    1  LIG1       -0.0196
     39 S          -4.4698    8.6102    2.3966 S.2     1  LIG1       -0.0945
     40 H          -6.3178   10.1762    2.7987 H       1  LIG1        0.0696
     41 N          -4.0486   10.0541   -2.4844 N.1     1  LIG1       -0.1908
     42 C          -4.2391    9.8470   -1.3546 C.1     1  LIG1        0.1006
     43 C          -6.3979   11.3746    0.1424 C.3     1  LIG1       -0.0380
     44 H          -7.1335   11.7386    0.8629 H       1  LIG1        0.0278
     45 H          -6.9346   10.9974   -0.7345 H       1  LIG1        0.0278
     46 H          -5.7960   12.2265   -0.1918 H       1  LIG1        0.0278
@<TRIPOS>BOND
     1     6     1    1
     2     5     1   ar
     3     5     4   ar
     4    41    42    3
     5     1     2   ar
     6    29    30    3
     7    33    31    1
     8    42    36    1
     9    30    25    1
    10     2     8    1
    11     2     3   ar
    12     4    13    1
    13     4     3   ar
    14    17    13   ar
    15    17    16   ar
    16    45    43    1
    17    31    34    1
    18    31    26    1
    19    31    32    1
    20    13    14   ar
    21    25    26   ar
    22    25    24   ar
    23     8     7    3
    24    26    27   ar
    25    46    43    1
    26     3     9    1
    27    16    24    1
    28    16    15   ar
    29    24    28   ar
    30    14    19    1
    31    14    15   ar
    32    36    37   ar
    33    36    35   ar
    34    22    20    1
    35    43    37    1
    36    43    44    1
    37    19    18    3
    38    15    20    1
    39    27    28   ar
    40    27    35    1
    41    37    38   ar
    42    35    39   ar
    43    20    21    1
    44    20    23    1
    45     9    11    1
    46     9    10    1
    47     9    12    1
    48    38    39   ar
    49    38    40    1
