@<TRIPOS>MOLECULE
mol_data/opt/b3lyp/geoms/mol2/5di5di.out
 24 25 0 0 0
SMALL
GASTEIGER

@<TRIPOS>ATOM
      1 C          -2.0628   -1.7560   -0.7369 C.ar    1  LIG1       -0.0061
      2 C          -0.7927   -1.8487   -0.2152 C.ar    1  LIG1        0.0623
      3 C          -0.2210   -0.5785    0.1603 C.ar    1  LIG1       -0.0178
      4 C          -1.0937    0.4571   -0.1058 C.ar    1  LIG1        0.0313
      5 S          -2.6010   -0.1282   -0.8024 S.2     1  LIG1       -0.0945
      6 H          -2.6917   -2.5655   -1.0787 H       1  LIG1        0.0706
      7 N           0.4397   -4.1032    0.1194 N.1     1  LIG1       -0.1908
      8 C          -0.1181   -3.0940   -0.0374 C.1     1  LIG1        0.1000
      9 C           1.1357   -0.4531    0.7916 C.3     1  LIG1       -0.0374
     10 H           1.2116    0.4600    1.3859 H       1  LIG1        0.0278
     11 H           1.9229   -0.4177    0.0309 H       1  LIG1        0.0278
     12 H           1.3370   -1.3101    1.4400 H       1  LIG1        0.0278
     13 C          -0.9157    1.8853    0.1174 C.ar    1  LIG1        0.0438
     14 C           0.1414    2.7030   -0.2606 C.ar    1  LIG1        0.0699
     15 C          -0.0128    4.0854    0.1252 C.ar    1  LIG1       -0.0255
     16 C          -1.1965    4.2833    0.7773 C.ar    1  LIG1       -0.0196
     17 S          -2.1219    2.8276    0.9548 S.2     1  LIG1       -0.0945
     18 H          -1.5816    5.2144    1.1699 H       1  LIG1        0.0696
     19 N           2.1767    1.8939   -1.6416 N.1     1  LIG1       -0.1908
     20 C           1.2562    2.2435   -1.0200 C.1     1  LIG1        0.1006
     21 C           1.0017    5.1509   -0.1788 C.3     1  LIG1       -0.0380
     22 H           0.6689    6.1235    0.1900 H       1  LIG1        0.0278
     23 H           1.1761    5.2344   -1.2568 H       1  LIG1        0.0278
     24 H           1.9669    4.9210    0.2850 H       1  LIG1        0.0278
@<TRIPOS>BOND
     1    19    20    3
     2    23    21    1
     3     6     1    1
     4    20    14    1
     5     5     1   ar
     6     5     4   ar
     7     1     2   ar
     8    14    13   ar
     9    14    15   ar
    10     2     8    1
    11     2     3   ar
    12    21    15    1
    13    21    22    1
    14    21    24    1
    15     4    13    1
    16     4     3   ar
    17     8     7    3
    18    11     9    1
    19    13    17   ar
    20    15    16   ar
    21     3     9    1
    22    16    17   ar
    23    16    18    1
    24     9    10    1
    25     9    12    1
