@<TRIPOS>MOLECULE
mol_data/opt/b3lyp/geoms/mol2/5dl.out
 14 14 0 0 0
SMALL
GASTEIGER

@<TRIPOS>ATOM
      1 C          -2.2358   -1.6997    0.0003 C.ar    1  LIG1       -0.0033
      2 C          -0.8563   -1.7816   -0.0003 C.ar    1  LIG1        0.1003
      3 C          -0.2353   -0.4694   -0.0003 C.ar    1  LIG1        0.1444
      4 C          -1.1716    0.5345    0.0003 C.ar    1  LIG1        0.0187
      5 S          -2.7887   -0.0781    0.0008 S.2     1  LIG1       -0.1000
      6 H          -2.9289   -2.5282    0.0004 H       1  LIG1        0.0707
      7 H          -0.9724    1.5952    0.0004 H       1  LIG1        0.0730
      8 N           0.2683   -4.1146   -0.0012 N.1     1  LIG1       -0.1907
      9 C          -0.2137   -3.0546   -0.0008 C.1     1  LIG1        0.1034
     10 O           1.0791   -0.1462   -0.0008 O.3     1  LIG1       -0.4933
     11 C           2.0752   -1.1689   -0.0011 C.3     1  LIG1        0.0789
     12 H           3.0293   -0.6405   -0.0013 H       1  LIG1        0.0660
     13 H           2.0091   -1.7980    0.8919 H       1  LIG1        0.0660
     14 H           2.0086   -1.7979   -0.8941 H       1  LIG1        0.0660
@<TRIPOS>BOND
     1    14    11    1
     2    12    11    1
     3     8     9    3
     4    11    10    1
     5    11    13    1
     6     9     2    1
     7    10     3    1
     8     3     2   ar
     9     3     4   ar
    10     2     1   ar
    11     4     7    1
    12     4     5   ar
    13     1     6    1
    14     1     5   ar
