@<TRIPOS>MOLECULE
mol_data/opt/b3lyp/geoms/mol2/5dl5dl-.out
 26 27 0 0 0
SMALL
GASTEIGER

@<TRIPOS>ATOM
      1 C          -2.3026   -1.8899    0.4123 C.ar    1  LIG1       -0.0027
      2 C          -1.0006   -2.0237   -0.0181 C.ar    1  LIG1        0.1009
      3 C          -0.3493   -0.7464   -0.2121 C.ar    1  LIG1        0.1526
      4 C          -1.1853    0.3185    0.0799 C.ar    1  LIG1        0.0701
      5 S          -2.7673   -0.2489    0.5866 S.2     1  LIG1       -0.0910
      6 H          -3.0001   -2.6883    0.6208 H       1  LIG1        0.0708
      7 N           0.0038   -4.3558   -0.5249 N.1     1  LIG1       -0.1907
      8 C          -0.4334   -3.3017   -0.2955 C.1     1  LIG1        0.1034
      9 O           0.8822   -0.5383   -0.7219 O.3     1  LIG1       -0.4927
     10 C           1.9826   -1.3264   -0.2233 C.3     1  LIG1        0.0789
     11 H           2.8766   -0.8629   -0.6389 H       1  LIG1        0.0660
     12 H           2.0271   -1.2752    0.8675 H       1  LIG1        0.0660
     13 H           1.9124   -2.3624   -0.5599 H       1  LIG1        0.0660
     14 C          -0.8978    1.7374   -0.0160 C.ar    1  LIG1        0.0504
     15 C           0.2328    2.4319    0.3919 C.ar    1  LIG1        0.1086
     16 C           0.1445    3.8519    0.1353 C.ar    1  LIG1        0.1450
     17 C          -1.0402    4.2092   -0.4446 C.ar    1  LIG1        0.0193
     18 S          -2.0656    2.8383   -0.7067 S.2     1  LIG1       -0.0910
     19 H          -1.3578    5.2057   -0.7130 H       1  LIG1        0.0731
     20 N           2.2271    1.3850    1.6626 N.1     1  LIG1       -0.1907
     21 C           1.3254    1.8409    1.0836 C.1     1  LIG1        0.1040
     22 O           1.0866    4.7592    0.5077 O.3     1  LIG1       -0.4933
     23 C           2.3398    4.6863   -0.1902 C.3     1  LIG1        0.0789
     24 H           2.9531    5.4925    0.2139 H       1  LIG1        0.0660
     25 H           2.8425    3.7297   -0.0182 H       1  LIG1        0.0660
     26 H           2.1926    4.8386   -1.2657 H       1  LIG1        0.0660
@<TRIPOS>BOND
     1    26    23    1
     2     9    10    1
     3     9     3    1
     4    19    17    1
     5    18    17   ar
     6    18    14   ar
     7    11    10    1
     8    13    10    1
     9     7     8    3
    10    17    16   ar
    11     8     2    1
    12    10    12    1
    13     3     2   ar
    14     3     4   ar
    15    23    25    1
    16    23    24    1
    17    23    22    1
    18     2     1   ar
    19    14     4    1
    20    14    15   ar
    21     4     5   ar
    22    16    15   ar
    23    16    22    1
    24    15    21    1
    25     1     5   ar
    26     1     6    1
    27    21    20    3
