@<TRIPOS>MOLECULE
mol_data/opt/b3lyp/geoms/mol2/5dl5dl-5dl-.out
 38 40 0 0 0
SMALL
GASTEIGER

@<TRIPOS>ATOM
      1 C          -2.2884   -2.0232   -0.3764 C.ar    1  LIG1       -0.0027
      2 C          -1.0299   -2.0989    0.1808 C.ar    1  LIG1        0.1009
      3 C          -0.3913   -0.8046    0.2751 C.ar    1  LIG1        0.1526
      4 C          -1.1921    0.2124   -0.2232 C.ar    1  LIG1        0.0702
      5 S          -2.7280   -0.4198   -0.7910 S.2     1  LIG1       -0.0910
      6 H          -2.9686   -2.8452   -0.5477 H       1  LIG1        0.0708
      7 N          -0.0981   -4.3573    1.0384 N.1     1  LIG1       -0.1907
      8 C          -0.5003   -3.3353    0.6531 C.1     1  LIG1        0.1034
      9 O           0.7870   -0.5176    0.8587 O.3     1  LIG1       -0.4927
     10 C           1.9066   -1.4059    0.6675 C.3     1  LIG1        0.0789
     11 H           2.7735   -0.8524    1.0262 H       1  LIG1        0.0660
     12 H           1.7848   -2.3229    1.2468 H       1  LIG1        0.0660
     13 H           2.0400   -1.6342   -0.3930 H       1  LIG1        0.0660
     14 C          -0.8989    1.6294   -0.2832 C.ar    1  LIG1        0.0511
     15 C           0.2849    2.2609   -0.6519 C.ar    1  LIG1        0.1093
     16 C           0.2010    3.7003   -0.6004 C.ar    1  LIG1        0.1533
     17 C          -1.0495    4.1506   -0.2125 C.ar    1  LIG1        0.0707
     18 S          -2.1183    2.8020    0.1224 S.2     1  LIG1       -0.0820
     19 N           2.2969    0.9638   -1.6325 N.1     1  LIG1       -0.1907
     20 C           1.3982    1.5467   -1.1757 C.1     1  LIG1        0.1040
     21 O           1.1542    4.5670   -1.0016 O.3     1  LIG1       -0.4926
     22 C           2.5004    4.3922   -0.5105 C.3     1  LIG1        0.0789
     23 H           3.0337    5.2920   -0.8149 H       1  LIG1        0.0660
     24 H           2.5035    4.3262    0.5802 H       1  LIG1        0.0660
     25 H           2.9727    3.5143   -0.9548 H       1  LIG1        0.0660
     26 C          -1.5239    5.5156   -0.1038 C.ar    1  LIG1        0.0505
     27 C          -0.8956    6.6253    0.4462 C.ar    1  LIG1        0.1086
     28 C          -1.7031    7.8225    0.3742 C.ar    1  LIG1        0.1450
     29 C          -2.9190    7.6033   -0.2095 C.ar    1  LIG1        0.0193
     30 S          -3.1095    5.9525   -0.6969 S.2     1  LIG1       -0.0910
     31 H          -3.7072    8.3259   -0.3595 H       1  LIG1        0.0731
     32 N           1.3788    6.5775    1.6757 N.1     1  LIG1       -0.1907
     33 C           0.3599    6.5839    1.1117 C.1     1  LIG1        0.1040
     34 O          -1.3486    9.0219    0.9077 O.3     1  LIG1       -0.4933
     35 C          -0.2430    9.6895    0.2788 C.3     1  LIG1        0.0789
     36 H          -0.1237   10.6335    0.8116 H       1  LIG1        0.0660
     37 H           0.6804    9.1086    0.3630 H       1  LIG1        0.0660
     38 H          -0.4611    9.8871   -0.7771 H       1  LIG1        0.0660
@<TRIPOS>BOND
     1    19    20    3
     2    20    15    1
     3    21    16    1
     4    21    22    1
     5    25    22    1
     6    23    22    1
     7     5     1   ar
     8     5     4   ar
     9    38    35    1
    10    30    29   ar
    11    30    26   ar
    12    15    16   ar
    13    15    14   ar
    14    16    17   ar
    15     6     1    1
    16    22    24    1
    17    13    10    1
    18     1     2   ar
    19    31    29    1
    20    14     4    1
    21    14    18   ar
    22     4     3   ar
    23    17    26    1
    24    17    18   ar
    25    29    28   ar
    26    26    27   ar
    27     2     3   ar
    28     2     8    1
    29     3     9    1
    30    35    37    1
    31    35    36    1
    32    35    34    1
    33    28    27   ar
    34    28    34    1
    35    27    33    1
    36     8     7    3
    37    10     9    1
    38    10    11    1
    39    10    12    1
    40    33    32    3
