@<TRIPOS>MOLECULE
mol_data/opt/b3lyp/geoms/mol2/5dl5dl5dl-.out
 38 40 0 0 0
SMALL
GASTEIGER

@<TRIPOS>ATOM
      1 C          -1.9803   -1.9118    1.3534 C.ar    1  LIG1       -0.0027
      2 C          -1.0245   -2.1084    0.3802 C.ar    1  LIG1        0.1009
      3 C          -0.4719   -0.8634   -0.1083 C.ar    1  LIG1        0.1526
      4 C          -1.0279    0.2385    0.5211 C.ar    1  LIG1        0.0702
      5 S          -2.2360   -0.2525    1.6961 S.2     1  LIG1       -0.0910
      6 H          -2.5438   -2.6767    1.8683 H       1  LIG1        0.0708
      7 N          -0.4798   -4.4884   -0.4818 N.1     1  LIG1       -0.1907
      8 C          -0.7097   -3.4129   -0.1008 C.1     1  LIG1        0.1034
      9 O           0.3945   -0.7032   -1.1268 O.3     1  LIG1       -0.4927
     10 C           1.5284   -1.5884   -1.2327 C.3     1  LIG1        0.0789
     11 H           2.1687   -1.1400   -1.9914 H       1  LIG1        0.0660
     12 H           2.0712   -1.6313   -0.2852 H       1  LIG1        0.0660
     13 H           1.2215   -2.5870   -1.5488 H       1  LIG1        0.0660
     14 C          -0.7403    1.6416    0.2872 C.ar    1  LIG1        0.0511
     15 C           0.4942    2.2760    0.1934 C.ar    1  LIG1        0.1093
     16 C           0.3861    3.6960   -0.0443 C.ar    1  LIG1        0.1533
     17 C          -0.9283    4.1268   -0.1134 C.ar    1  LIG1        0.0707
     18 S          -2.0350    2.7829    0.0803 S.2     1  LIG1       -0.0820
     19 N           2.7208    0.9823    0.4450 N.1     1  LIG1       -0.1907
     20 C           1.7211    1.5671    0.3249 C.1     1  LIG1        0.1040
     21 O           1.3991    4.5542   -0.2828 O.3     1  LIG1       -0.4926
     22 C           2.5624    4.5288    0.5705 C.3     1  LIG1        0.0789
     23 H           3.1098    5.4403    0.3331 H       1  LIG1        0.0660
     24 H           2.2681    4.5537    1.6226 H       1  LIG1        0.0660
     25 H           3.1848    3.6568    0.3635 H       1  LIG1        0.0660
     26 C          -1.4229    5.4684   -0.3543 C.ar    1  LIG1        0.0505
     27 C          -0.9921    6.6739    0.1838 C.ar    1  LIG1        0.1086
     28 C          -1.7492    7.8077   -0.2970 C.ar    1  LIG1        0.1450
     29 C          -2.7372    7.4487   -1.1704 C.ar    1  LIG1        0.0193
     30 S          -2.7637    5.7389   -1.4422 S.2     1  LIG1       -0.0910
     31 H          -3.4499    8.1032   -1.6496 H       1  LIG1        0.0731
     32 N           0.8181    6.9118    2.0152 N.1     1  LIG1       -0.1907
     33 C           0.0113    6.7886    1.1844 C.1     1  LIG1        0.1040
     34 O          -1.5733    9.0863    0.1315 O.3     1  LIG1       -0.4933
     35 C          -0.3369    9.7119   -0.2468 C.3     1  LIG1        0.0789
     36 H          -0.3810   10.7250    0.1544 H       1  LIG1        0.0660
     37 H           0.5258    9.1918    0.1805 H       1  LIG1        0.0660
     38 H          -0.2422    9.7512   -1.3381 H       1  LIG1        0.0660
@<TRIPOS>BOND
     1    11    10    1
     2    31    29    1
     3    13    10    1
     4    30    29   ar
     5    30    26   ar
     6    38    35    1
     7    10     9    1
     8    10    12    1
     9    29    28   ar
    10     9     3    1
    11     7     8    3
    12    26    17    1
    13    26    27   ar
    14    28    34    1
    15    28    27   ar
    16    21    16    1
    17    21    22    1
    18    35    34    1
    19    35    36    1
    20    35    37    1
    21    17    16   ar
    22    17    18   ar
    23     3     2   ar
    24     3     4   ar
    25     8     2    1
    26    16    15   ar
    27    18    14   ar
    28    27    33    1
    29    15    14   ar
    30    15    20    1
    31    14     4    1
    32    20    19    3
    33    23    22    1
    34    25    22    1
    35     2     1   ar
    36     4     5   ar
    37    22    24    1
    38    33    32    3
    39     1     5   ar
    40     1     6    1
