@<TRIPOS>MOLECULE
mol_data/opt/b3lyp/geoms/mol2/5dl5dl5dl-5dl.out
 50 53 0 0 0
SMALL
GASTEIGER

@<TRIPOS>ATOM
      1 C          -1.4730   -1.6939    2.2774 C.ar    1  LIG1       -0.0027
      2 C          -0.9589   -2.0158    1.0398 C.ar    1  LIG1        0.1009
      3 C          -0.5673   -0.8452    0.2850 C.ar    1  LIG1        0.1526
      4 C          -0.7943    0.3287    0.9854 C.ar    1  LIG1        0.0702
      5 S          -1.5014   -0.0038    2.5571 S.2     1  LIG1       -0.0910
      6 H          -1.8412   -2.3844    3.0226 H       1  LIG1        0.0708
      7 N          -0.8914   -4.4740    0.2295 N.1     1  LIG1       -0.1907
      8 C          -0.9102   -3.3650    0.5820 C.1     1  LIG1        0.1034
      9 O          -0.1349   -0.8072   -0.9896 O.3     1  LIG1       -0.4927
     10 C           0.8331   -1.7797   -1.4349 C.3     1  LIG1        0.0789
     11 H           1.1678   -1.4219   -2.4078 H       1  LIG1        0.0660
     12 H           1.6855   -1.8117   -0.7520 H       1  LIG1        0.0660
     13 H           0.3813   -2.7679   -1.5381 H       1  LIG1        0.0660
     14 C          -0.5436    1.6912    0.5532 C.ar    1  LIG1        0.0511
     15 C           0.5981    2.2222   -0.0400 C.ar    1  LIG1        0.1093
     16 C           0.4823    3.6322   -0.3290 C.ar    1  LIG1        0.1533
     17 C          -0.7352    4.1595    0.0703 C.ar    1  LIG1        0.0708
     18 S          -1.7600    2.9151    0.7562 S.2     1  LIG1       -0.0820
     19 N           2.6876    0.7715   -0.5130 N.1     1  LIG1       -0.1907
     20 C           1.7476    1.4276   -0.3090 C.1     1  LIG1        0.1040
     21 O           1.3625    4.4029   -0.9945 O.3     1  LIG1       -0.4926
     22 C           2.7755    4.2681   -0.7404 C.3     1  LIG1        0.0789
     23 H           3.2259    5.1698   -1.1535 H       1  LIG1        0.0660
     24 H           2.9743    4.2296    0.3333 H       1  LIG1        0.0660
     25 H           3.1808    3.3856   -1.2380 H       1  LIG1        0.0660
     26 C          -1.2040    5.5256   -0.0579 C.ar    1  LIG1        0.0511
     27 C          -0.5433    6.7102    0.2546 C.ar    1  LIG1        0.1093
     28 C          -1.3372    7.8878   -0.0038 C.ar    1  LIG1        0.1533
     29 C          -2.5969    7.5856   -0.4943 C.ar    1  LIG1        0.0707
     30 S          -2.7974    5.8547   -0.6715 S.2     1  LIG1       -0.0820
     31 N           1.8557    6.7286    1.2234 N.1     1  LIG1       -0.1907
     32 C           0.7785    6.7244    0.7814 C.1     1  LIG1        0.1040
     33 O          -0.9367    9.1715    0.0995 O.3     1  LIG1       -0.4926
     34 C          -0.2172    9.5978    1.2752 C.3     1  LIG1        0.0789
     35 H          -0.2347   10.6865    1.2410 H       1  LIG1        0.0660
     36 H          -0.7266    9.2619    2.1817 H       1  LIG1        0.0660
     37 H           0.8138    9.2412    1.2574 H       1  LIG1        0.0660
     38 C          -3.6541    8.5001   -0.8794 C.ar    1  LIG1        0.0505
     39 C          -4.1101    9.6398   -0.2300 C.ar    1  LIG1        0.1086
     40 C          -5.2002   10.2859   -0.9255 C.ar    1  LIG1        0.1450
     41 C          -5.5577    9.6292   -2.0695 C.ar    1  LIG1        0.0193
     42 S          -4.5768    8.2280   -2.3386 S.2     1  LIG1       -0.0910
     43 H          -6.3526    9.8955   -2.7501 H       1  LIG1        0.0731
     44 N          -3.2888   10.4517    2.0838 N.1     1  LIG1       -0.1907
     45 C          -3.6419   10.0778    1.0390 C.1     1  LIG1        0.1040
     46 O          -5.8704   11.3737   -0.4598 O.3     1  LIG1       -0.4933
     47 C          -5.1279   12.6027   -0.4249 C.3     1  LIG1        0.0789
     48 H          -5.8190   13.3575   -0.0482 H       1  LIG1        0.0660
     49 H          -4.2666   12.5350    0.2466 H       1  LIG1        0.0660
     50 H          -4.7918   12.8797   -1.4309 H       1  LIG1        0.0660
@<TRIPOS>BOND
     1    43    41    1
     2    11    10    1
     3    42    41   ar
     4    42    38   ar
     5    41    40   ar
     6    13    10    1
     7    10     9    1
     8    10    12    1
     9    50    47    1
    10    25    22    1
    11    23    22    1
    12    21    22    1
    13    21    16    1
    14     9     3    1
    15    40    46    1
    16    40    39   ar
    17    38    29    1
    18    38    39   ar
    19    22    24    1
    20    30    29   ar
    21    30    26   ar
    22    19    20    3
    23    29    28   ar
    24    46    47    1
    25    47    48    1
    26    47    49    1
    27    16    15   ar
    28    16    17   ar
    29    20    15    1
    30    39    45    1
    31    26    17    1
    32    26    27   ar
    33    15    14   ar
    34    28    33    1
    35    28    27   ar
    36    17    18   ar
    37    33    34    1
    38     7     8    3
    39    27    32    1
    40     3     4   ar
    41     3     2   ar
    42    14    18   ar
    43    14     4    1
    44     8     2    1
    45    32    31    3
    46     4     5   ar
    47    45    44    3
    48     2     1   ar
    49    35    34    1
    50    37    34    1
    51    34    36    1
    52     1     5   ar
    53     1     6    1
