@<TRIPOS>MOLECULE
mol_data/opt/b3lyp/geoms/mol2/5dl5dl-5dl5dl.out
 50 53 0 0 0
SMALL
GASTEIGER

@<TRIPOS>ATOM
      1 C          -2.3349   -2.0725    0.2279 C.ar    1  LIG1       -0.0027
      2 C          -1.0341   -2.1684   -0.2181 C.ar    1  LIG1        0.1009
      3 C          -0.3740   -0.8826   -0.2689 C.ar    1  LIG1        0.1526
      4 C          -1.2024    0.1484    0.1502 C.ar    1  LIG1        0.0702
      5 S          -2.7894   -0.4605    0.5889 S.2     1  LIG1       -0.0910
      6 H          -3.0371   -2.8850    0.3482 H       1  LIG1        0.0708
      7 N          -0.0591   -4.4459   -0.9706 N.1     1  LIG1       -0.1907
      8 C          -0.4807   -3.4156   -0.6312 C.1     1  LIG1        0.1034
      9 O           0.8523   -0.6141   -0.7526 O.3     1  LIG1       -0.4927
     10 C           1.9406   -1.5163   -0.4675 C.3     1  LIG1        0.0789
     11 H           2.8414   -0.9742   -0.7523 H       1  LIG1        0.0660
     12 H           1.9814   -1.7444    0.6005 H       1  LIG1        0.0660
     13 H           1.8559   -2.4326   -1.0545 H       1  LIG1        0.0660
     14 C          -0.8988    1.5621    0.2207 C.ar    1  LIG1        0.0511
     15 C           0.2587    2.1853    0.6796 C.ar    1  LIG1        0.1093
     16 C           0.1950    3.6241    0.6074 C.ar    1  LIG1        0.1533
     17 C          -1.0151    4.0824    0.1091 C.ar    1  LIG1        0.0708
     18 S          -2.0688    2.7410   -0.2960 S.2     1  LIG1       -0.0820
     19 N           2.1633    0.8695    1.8344 N.1     1  LIG1       -0.1907
     20 C           1.3152    1.4617    1.2998 C.1     1  LIG1        0.1040
     21 O           1.1129    4.4919    1.0745 O.3     1  LIG1       -0.4926
     22 C           2.5078    4.2704    0.7758 C.3     1  LIG1        0.0789
     23 H           3.0071    5.2005    1.0440 H       1  LIG1        0.0660
     24 H           2.9112    3.4474    1.3679 H       1  LIG1        0.0660
     25 H           2.6454    4.0848   -0.2922 H       1  LIG1        0.0660
     26 C          -1.4597    5.4491   -0.0530 C.ar    1  LIG1        0.0511
     27 C          -0.7563    6.5514   -0.5307 C.ar    1  LIG1        0.1093
     28 C          -1.5427    7.7607   -0.5547 C.ar    1  LIG1        0.1533
     29 C          -2.8415    7.5651   -0.1167 C.ar    1  LIG1        0.0707
     30 S          -3.0913    5.8963    0.3588 S.2     1  LIG1       -0.0820
     31 N           1.5986    6.3509   -1.5818 N.1     1  LIG1       -0.1907
     32 C           0.5463    6.4428   -1.0915 C.1     1  LIG1        0.1040
     33 O          -1.1552    8.9490   -1.0633 O.3     1  LIG1       -0.4926
     34 C           0.1085    9.5047   -0.6402 C.3     1  LIG1        0.0789
     35 H           0.1256   10.5149   -1.0477 H       1  LIG1        0.0660
     36 H           0.1557    9.5576    0.4501 H       1  LIG1        0.0660
     37 H           0.9471    8.9315   -1.0395 H       1  LIG1        0.0660
     38 C          -3.9295    8.5204   -0.0582 C.ar    1  LIG1        0.0505
     39 C          -3.9229    9.8381    0.3807 C.ar    1  LIG1        0.1086
     40 C          -5.2215   10.4676    0.2916 C.ar    1  LIG1        0.1450
     41 C          -6.1826    9.6261   -0.1935 C.ar    1  LIG1        0.0193
     42 S          -5.5385    8.0625   -0.5670 S.2     1  LIG1       -0.0910
     43 H          -7.2301    9.8479   -0.3332 H       1  LIG1        0.0731
     44 N          -1.8983   11.0285    1.4621 N.1     1  LIG1       -0.1907
     45 C          -2.7975   10.4806    0.9646 C.1     1  LIG1        0.1040
     46 O          -5.4964   11.7267    0.7252 O.3     1  LIG1       -0.4933
     47 C          -4.8892   12.7954   -0.0184 C.3     1  LIG1        0.0789
     48 H          -5.2406   13.7176    0.4456 H       1  LIG1        0.0660
     49 H          -3.7972   12.7565    0.0375 H       1  LIG1        0.0660
     50 H          -5.2075   12.7656   -1.0669 H       1  LIG1        0.0660
@<TRIPOS>BOND
     1    31    32    3
     2    32    27    1
     3    50    47    1
     4    33    34    1
     5    33    28    1
     6    13    10    1
     7    35    34    1
     8    37    34    1
     9     7     8    3
    10     9    10    1
    11     9     3    1
    12    11    10    1
    13    34    36    1
    14     8     2    1
    15    42    41   ar
    16    42    38   ar
    17    28    27   ar
    18    28    29   ar
    19    27    26   ar
    20    10    12    1
    21    43    41    1
    22    18    17   ar
    23    18    14   ar
    24    25    22    1
    25     3     2   ar
    26     3     4   ar
    27     2     1   ar
    28    41    40   ar
    29    29    38    1
    30    29    30   ar
    31    38    39   ar
    32    26    17    1
    33    26    30   ar
    34    47    49    1
    35    47    48    1
    36    47    46    1
    37    17    16   ar
    38     4    14    1
    39     4     5   ar
    40    14    15   ar
    41     1     6    1
    42     1     5   ar
    43    40    39   ar
    44    40    46    1
    45    39    45    1
    46    16    15   ar
    47    16    21    1
    48    15    20    1
    49    22    23    1
    50    22    21    1
    51    22    24    1
    52    45    44    3
    53    20    19    3
