@<TRIPOS>MOLECULE
mol_data/opt/b3lyp/geoms/mol2/5dl5dl-5dl5dl-.out
 50 53 0 0 0
SMALL
GASTEIGER

@<TRIPOS>ATOM
      1 C          -1.4425   -1.6975    2.2909 C.ar    1  LIG1       -0.0027
      2 C          -0.9479   -2.0178    1.0450 C.ar    1  LIG1        0.1009
      3 C          -0.5672   -0.8461    0.2861 C.ar    1  LIG1        0.1526
      4 C          -0.7826    0.3267    0.9918 C.ar    1  LIG1        0.0702
      5 S          -1.4655   -0.0078    2.5737 S.2     1  LIG1       -0.0910
      6 H          -1.7997   -2.3889    3.0406 H       1  LIG1        0.0708
      7 N          -0.8945   -4.4746    0.2297 N.1     1  LIG1       -0.1907
      8 C          -0.9071   -3.3662    0.5844 C.1     1  LIG1        0.1034
      9 O          -0.1545   -0.8064   -0.9950 O.3     1  LIG1       -0.4927
     10 C           0.8059   -1.7788   -1.4567 C.3     1  LIG1        0.0789
     11 H           1.1261   -1.4195   -2.4339 H       1  LIG1        0.0660
     12 H           1.6686   -1.8126   -0.7868 H       1  LIG1        0.0660
     13 H           0.3519   -2.7665   -1.5548 H       1  LIG1        0.0660
     14 C          -0.5376    1.6898    0.5579 C.ar    1  LIG1        0.0511
     15 C           0.5953    2.2210   -0.0519 C.ar    1  LIG1        0.1093
     16 C           0.4759    3.6315   -0.3369 C.ar    1  LIG1        0.1533
     17 C          -0.7349    4.1589    0.0818 C.ar    1  LIG1        0.0708
     18 S          -1.7499    2.9142    0.7815 S.2     1  LIG1       -0.0820
     19 N           2.6761    0.7696   -0.5593 N.1     1  LIG1       -0.1907
     20 C           1.7399    1.4260   -0.3398 C.1     1  LIG1        0.1040
     21 O           1.3463    4.4028   -1.0145 O.3     1  LIG1       -0.4926
     22 C           2.7630    4.2665   -0.7826 C.3     1  LIG1        0.0789
     23 H           3.2076    5.1688   -1.2006 H       1  LIG1        0.0660
     24 H           2.9783    4.2254    0.2879 H       1  LIG1        0.0660
     25 H           3.1599    3.3848   -1.2884 H       1  LIG1        0.0660
     26 C          -1.2047    5.5257   -0.0367 C.ar    1  LIG1        0.0511
     27 C          -0.5384    6.7092    0.2676 C.ar    1  LIG1        0.1093
     28 C          -1.3352    7.8879    0.0235 C.ar    1  LIG1        0.1533
     29 C          -2.6026    7.5874   -0.4481 C.ar    1  LIG1        0.0707
     30 S          -2.8070    5.8570   -0.6252 S.2     1  LIG1       -0.0820
     31 N           1.8754    6.7243    1.1993 N.1     1  LIG1       -0.1907
     32 C           0.7914    6.7216    0.7739 C.1     1  LIG1        0.1040
     33 O          -0.9324    9.1711    0.1229 O.3     1  LIG1       -0.4926
     34 C          -0.1942    9.5948    1.2878 C.3     1  LIG1        0.0789
     35 H          -0.2118   10.6835    1.2561 H       1  LIG1        0.0660
     36 H          -0.6893    9.2572    2.2017 H       1  LIG1        0.0660
     37 H           0.8363    9.2378    1.2531 H       1  LIG1        0.0660
     38 C          -3.6649    8.5032   -0.8153 C.ar    1  LIG1        0.0505
     39 C          -4.1097    9.6424   -0.1573 C.ar    1  LIG1        0.1086
     40 C          -5.2100   10.2905   -0.8348 C.ar    1  LIG1        0.1450
     41 C          -5.5858    9.6358   -1.9740 C.ar    1  LIG1        0.0193
     42 S          -4.6104    8.2342   -2.2605 S.2     1  LIG1       -0.0910
     43 H          -6.3910    9.9038   -2.6418 H       1  LIG1        0.0731
     44 N          -3.2521   10.4501    2.1448 N.1     1  LIG1       -0.1907
     45 C          -3.6216   10.0781    1.1050 C.1     1  LIG1        0.1040
     46 O          -5.8719   11.3782   -0.3571 O.3     1  LIG1       -0.4933
     47 C          -5.1276   12.6064   -0.3317 C.3     1  LIG1        0.0789
     48 H          -5.8120   13.3612    0.0571 H       1  LIG1        0.0660
     49 H          -4.2561   12.5367    0.3262 H       1  LIG1        0.0660
     50 H          -4.8071   12.8848   -1.3423 H       1  LIG1        0.0660
@<TRIPOS>BOND
     1    43    41    1
     2    11    10    1
     3    42    41   ar
     4    42    38   ar
     5    41    40   ar
     6    13    10    1
     7    10     9    1
     8    10    12    1
     9    50    47    1
    10    25    22    1
    11    23    22    1
    12    21    22    1
    13    21    16    1
    14     9     3    1
    15    40    46    1
    16    40    39   ar
    17    38    29    1
    18    38    39   ar
    19    22    24    1
    20    30    29   ar
    21    30    26   ar
    22    19    20    3
    23    29    28   ar
    24    46    47    1
    25    20    15    1
    26    16    15   ar
    27    16    17   ar
    28    47    48    1
    29    47    49    1
    30    39    45    1
    31    15    14   ar
    32    26    17    1
    33    26    27   ar
    34    28    33    1
    35    28    27   ar
    36    17    18   ar
    37    33    34    1
    38     7     8    3
    39    27    32    1
    40     3     4   ar
    41     3     2   ar
    42    14    18   ar
    43    14     4    1
    44     8     2    1
    45    32    31    3
    46     4     5   ar
    47     2     1   ar
    48    45    44    3
    49    37    34    1
    50    35    34    1
    51    34    36    1
    52     1     5   ar
    53     1     6    1
