@<TRIPOS>MOLECULE
mol_data/opt/b3lyp/geoms/mol2/5dl5dl.out
 26 27 0 0 0
SMALL
GASTEIGER

@<TRIPOS>ATOM
      1 C          -2.2995   -1.8926    0.4235 C.ar    1  LIG1       -0.0027
      2 C          -0.9998   -2.0241   -0.0143 C.ar    1  LIG1        0.1009
      3 C          -0.3501   -0.7456   -0.2063 C.ar    1  LIG1        0.1526
      4 C          -1.1850    0.3176    0.0946 C.ar    1  LIG1        0.0701
      5 S          -2.7640   -0.2526    0.6072 S.2     1  LIG1       -0.0910
      6 H          -2.9956   -2.6922    0.6324 H       1  LIG1        0.0708
      7 N           0.0030   -4.3533   -0.5369 N.1     1  LIG1       -0.1907
      8 C          -0.4335   -3.3005   -0.3004 C.1     1  LIG1        0.1034
      9 O           0.8786   -0.5350   -0.7218 O.3     1  LIG1       -0.4927
     10 C           1.9819   -1.3247   -0.2319 C.3     1  LIG1        0.0789
     11 H           2.8736   -0.8592   -0.6504 H       1  LIG1        0.0660
     12 H           2.0321   -1.2778    0.8588 H       1  LIG1        0.0660
     13 H           1.9103   -2.3594   -0.5724 H       1  LIG1        0.0660
     14 C          -0.8984    1.7370    0.0028 C.ar    1  LIG1        0.0504
     15 C           0.2342    2.4301    0.4077 C.ar    1  LIG1        0.1086
     16 C           0.1443    3.8511    0.1573 C.ar    1  LIG1        0.1450
     17 C          -1.0434    4.2105   -0.4150 C.ar    1  LIG1        0.0193
     18 S          -2.0698    2.8406   -0.6773 S.2     1  LIG1       -0.0910
     19 H          -1.3625    5.2080   -0.6778 H       1  LIG1        0.0731
     20 N           2.2352    1.3788    1.6641 N.1     1  LIG1       -0.1907
     21 C           1.3306    1.8367    1.0914 C.1     1  LIG1        0.1040
     22 O           1.0881    4.7573    0.5283 O.3     1  LIG1       -0.4933
     23 C           2.3378    4.6876   -0.1763 C.3     1  LIG1        0.0789
     24 H           2.9529    5.4922    0.2281 H       1  LIG1        0.0660
     25 H           2.8416    3.7304   -0.0111 H       1  LIG1        0.0660
     26 H           2.1849    4.8445   -1.2504 H       1  LIG1        0.0660
@<TRIPOS>BOND
     1    26    23    1
     2     9    10    1
     3     9     3    1
     4    19    17    1
     5    18    17   ar
     6    18    14   ar
     7    11    10    1
     8    13    10    1
     9     7     8    3
    10    17    16   ar
    11     8     2    1
    12    10    12    1
    13     3     2   ar
    14     3     4   ar
    15    23    25    1
    16    23    24    1
    17    23    22    1
    18     2     1   ar
    19    14     4    1
    20    14    15   ar
    21     4     5   ar
    22    16    15   ar
    23    16    22    1
    24    15    21    1
    25     1     5   ar
    26     1     6    1
    27    21    20    3
