@<TRIPOS>MOLECULE
mol_data/opt/b3lyp/geoms/mol2/5dl5dl-5dl-5dl.out
 50 53 0 0 0
SMALL
GASTEIGER

@<TRIPOS>ATOM
      1 C          -2.3539   -1.9805    0.4788 C.ar    1  LIG1       -0.0027
      2 C          -1.0139   -2.0473    0.7944 C.ar    1  LIG1        0.1009
      3 C          -0.3403   -0.7814    0.6054 C.ar    1  LIG1        0.1526
      4 C          -1.1994    0.2051    0.1444 C.ar    1  LIG1        0.0702
      5 S          -2.8297   -0.4186   -0.0409 S.2     1  LIG1       -0.0910
      6 H          -3.0726   -2.7851    0.5417 H       1  LIG1        0.0708
      7 N           0.0165   -4.2279    1.7364 N.1     1  LIG1       -0.1907
      8 C          -0.4304   -3.2419    1.3092 C.1     1  LIG1        0.1034
      9 O           0.9341   -0.4827    0.9188 O.3     1  LIG1       -0.4927
     10 C           1.9775   -1.4317    0.6169 C.3     1  LIG1        0.0789
     11 H           2.9087   -0.8845    0.7586 H       1  LIG1        0.0660
     12 H           1.9416   -2.2860    1.2951 H       1  LIG1        0.0660
     13 H           1.9082   -1.7596   -0.4232 H       1  LIG1        0.0660
     14 C          -0.8924    1.5905   -0.1459 C.ar    1  LIG1        0.0511
     15 C           0.2091    2.1183   -0.8137 C.ar    1  LIG1        0.1093
     16 C           0.1675    3.5559   -0.9285 C.ar    1  LIG1        0.1533
     17 C          -0.9690    4.1050   -0.3584 C.ar    1  LIG1        0.0708
     18 S          -1.9823    2.8557    0.3388 S.2     1  LIG1       -0.0820
     19 N           1.9518    0.6138   -1.9931 N.1     1  LIG1       -0.1907
     20 C           1.1785    1.2928   -1.4485 C.1     1  LIG1        0.1040
     21 O           1.0288    4.3306   -1.6159 O.3     1  LIG1       -0.4926
     22 C           2.4480    4.1194   -1.4580 C.3     1  LIG1        0.0789
     23 H           2.9168    4.9915   -1.9122 H       1  LIG1        0.0660
     24 H           2.7142    4.0814   -0.3990 H       1  LIG1        0.0660
     25 H           2.7710    3.2130   -1.9727 H       1  LIG1        0.0660
     26 C          -1.3758    5.4958   -0.3238 C.ar    1  LIG1        0.0511
     27 C          -0.6273    6.6198    0.0134 C.ar    1  LIG1        0.1093
     28 C          -1.3813    7.8483   -0.0662 C.ar    1  LIG1        0.1533
     29 C          -2.6975    7.6439   -0.4462 C.ar    1  LIG1        0.0707
     30 S          -3.0043    5.9442   -0.7394 S.2     1  LIG1       -0.0820
     31 N           1.8525    6.4554    0.7322 N.1     1  LIG1       -0.1907
     32 C           0.7387    6.5329    0.4019 C.1     1  LIG1        0.1040
     33 O          -0.9068    9.0999    0.0982 O.3     1  LIG1       -0.4926
     34 C          -0.0522    9.3926    1.2232 C.3     1  LIG1        0.0789
     35 H          -0.0219   10.4799    1.2828 H       1  LIG1        0.0660
     36 H          -0.4819    8.9973    2.1469 H       1  LIG1        0.0660
     37 H           0.9536    8.9998    1.0668 H       1  LIG1        0.0660
     38 C          -3.7386    8.6330   -0.6448 C.ar    1  LIG1        0.0505
     39 C          -4.0679    9.7316    0.1385 C.ar    1  LIG1        0.1086
     40 C          -5.1851   10.4833   -0.3872 C.ar    1  LIG1        0.1450
     41 C          -5.6872    9.9444   -1.5385 C.ar    1  LIG1        0.0193
     42 S          -4.8132    8.5291   -2.0194 S.2     1  LIG1       -0.0910
     43 H          -6.5298   10.3036   -2.1103 H       1  LIG1        0.0731
     44 N          -2.9813   10.3005    2.4151 N.1     1  LIG1       -0.1907
     45 C          -3.4546   10.0357    1.3845 C.1     1  LIG1        0.1040
     46 O          -5.7489   11.5558    0.2303 O.3     1  LIG1       -0.4933
     47 C          -4.9397   12.7405    0.2990 C.3     1  LIG1        0.0789
     48 H          -5.5547   13.4924    0.7948 H       1  LIG1        0.0660
     49 H          -4.0304   12.5749    0.8846 H       1  LIG1        0.0660
     50 H          -4.6745   13.0861   -0.7069 H       1  LIG1        0.0660
@<TRIPOS>BOND
     1    43    41    1
     2    42    41   ar
     3    42    38   ar
     4    19    20    3
     5    25    22    1
     6    23    22    1
     7    21    22    1
     8    21    16    1
     9    41    40   ar
    10    22    24    1
    11    20    15    1
    12    16    15   ar
    13    16    17   ar
    14    15    14   ar
    15    30    29   ar
    16    30    26   ar
    17    50    47    1
    18    38    29    1
    19    38    39   ar
    20    29    28   ar
    21    13    10    1
    22    40    39   ar
    23    40    46    1
    24    17    26    1
    25    17    18   ar
    26    26    27   ar
    27    14     4    1
    28    14    18   ar
    29    28    27   ar
    30    28    33    1
    31     5     4   ar
    32     5     1   ar
    33    27    32    1
    34    33    34    1
    35    39    45    1
    36     4     3   ar
    37    46    47    1
    38    47    48    1
    39    47    49    1
    40    32    31    3
    41     1     6    1
    42     1     2   ar
    43     3     2   ar
    44     3     9    1
    45    10    11    1
    46    10     9    1
    47    10    12    1
    48     2     8    1
    49    37    34    1
    50    34    35    1
    51    34    36    1
    52     8     7    3
    53    45    44    3
