@<TRIPOS>MOLECULE
mol_data/opt/b3lyp/geoms/mol2/5dl5dl-5dl-5dl-.out
 50 53 0 0 0
SMALL
GASTEIGER

@<TRIPOS>ATOM
      1 C          -2.3278   -2.0746   -0.1770 C.ar    1  LIG1       -0.0027
      2 C          -1.0260   -2.1667    0.2668 C.ar    1  LIG1        0.1009
      3 C          -0.3670   -0.8800    0.3088 C.ar    1  LIG1        0.1526
      4 C          -1.1973    0.1478   -0.1144 C.ar    1  LIG1        0.0702
      5 S          -2.7845   -0.4651   -0.5464 S.2     1  LIG1       -0.0910
      6 H          -3.0295   -2.8884   -0.2912 H       1  LIG1        0.0708
      7 N          -0.0472   -4.4389    1.0305 N.1     1  LIG1       -0.1907
      8 C          -0.4705   -3.4110    0.6860 C.1     1  LIG1        0.1034
      9 O           0.8601   -0.6077    0.7883 O.3     1  LIG1       -0.4927
     10 C           1.9485   -1.5110    0.5067 C.3     1  LIG1        0.0789
     11 H           2.8496   -0.9657    0.7843 H       1  LIG1        0.0660
     12 H           1.8665   -2.4227    1.1010 H       1  LIG1        0.0660
     13 H           1.9860   -1.7474   -0.5597 H       1  LIG1        0.0660
     14 C          -0.8950    1.5613   -0.1942 C.ar    1  LIG1        0.0511
     15 C           0.2610    2.1828   -0.6589 C.ar    1  LIG1        0.1093
     16 C           0.1961    3.6220   -0.5952 C.ar    1  LIG1        0.1533
     17 C          -1.0136    4.0822   -0.0976 C.ar    1  LIG1        0.0708
     18 S          -2.0652    2.7422    0.3176 S.2     1  LIG1       -0.0820
     19 N           2.1649    0.8622   -1.8093 N.1     1  LIG1       -0.1907
     20 C           1.3171    1.4566   -1.2767 C.1     1  LIG1        0.1040
     21 O           1.1123    4.4877   -1.0695 O.3     1  LIG1       -0.4926
     22 C           2.5078    4.2703   -0.7703 C.3     1  LIG1        0.0789
     23 H           3.0060    5.1981   -1.0486 H       1  LIG1        0.0660
     24 H           2.6468    4.0958    0.2993 H       1  LIG1        0.0660
     25 H           2.9112    3.4418   -1.3546 H       1  LIG1        0.0660
     26 C          -1.4594    5.4493    0.0569 C.ar    1  LIG1        0.0511
     27 C          -0.7567    6.5553    0.5270 C.ar    1  LIG1        0.1093
     28 C          -1.5446    7.7638    0.5449 C.ar    1  LIG1        0.1533
     29 C          -2.8437    7.5641    0.1096 C.ar    1  LIG1        0.0707
     30 S          -3.0921    5.8921   -0.3554 S.2     1  LIG1       -0.0820
     31 N           1.5999    6.3640    1.5758 N.1     1  LIG1       -0.1907
     32 C           0.5468    6.4517    1.0866 C.1     1  LIG1        0.1040
     33 O          -1.1579    8.9556    1.0459 O.3     1  LIG1       -0.4926
     34 C           0.1045    9.5106    0.6177 C.3     1  LIG1        0.0789
     35 H           0.1209   10.5230    1.0196 H       1  LIG1        0.0660
     36 H           0.9443    8.9406    1.0189 H       1  LIG1        0.0660
     37 H           0.1499    9.5574   -0.4729 H       1  LIG1        0.0660
     38 C          -3.9330    8.5176    0.0471 C.ar    1  LIG1        0.0505
     39 C          -3.9288    9.8327   -0.3997 C.ar    1  LIG1        0.1086
     40 C          -5.2280   10.4611   -0.3124 C.ar    1  LIG1        0.1450
     41 C          -6.1873    9.6212    0.1791 C.ar    1  LIG1        0.0193
     42 S          -5.5407    8.0607    0.5609 S.2     1  LIG1       -0.0910
     43 H          -7.2349    9.8426    0.3189 H       1  LIG1        0.0731
     44 N          -1.9070   11.0190   -1.4909 N.1     1  LIG1       -0.1907
     45 C          -2.8049   10.4731   -0.9889 C.1     1  LIG1        0.1040
     46 O          -5.5051   11.7172   -0.7531 O.3     1  LIG1       -0.4933
     47 C          -4.8984   12.7911   -0.0168 C.3     1  LIG1        0.0789
     48 H          -5.2514   13.7101   -0.4859 H       1  LIG1        0.0660
     49 H          -5.2154   12.7673    1.0323 H       1  LIG1        0.0660
     50 H          -3.8064   12.7533   -0.0738 H       1  LIG1        0.0660
@<TRIPOS>BOND
     1    19    20    3
     2    44    45    3
     3    25    22    1
     4    20    15    1
     5    21    22    1
     6    21    16    1
     7    23    22    1
     8    45    39    1
     9    22    24    1
    10    46    40    1
    11    46    47    1
    12    15    16   ar
    13    15    14   ar
    14    16    17   ar
    15    13    10    1
    16     5     1   ar
    17     5     4   ar
    18    48    47    1
    19    37    34    1
    20    39    40   ar
    21    39    38   ar
    22    30    26   ar
    23    30    29   ar
    24    40    41   ar
    25     6     1    1
    26    14     4    1
    27    14    18   ar
    28     1     2   ar
    29     4     3   ar
    30    17    26    1
    31    17    18   ar
    32    50    47    1
    33    47    49    1
    34    38    29    1
    35    38    42   ar
    36    26    27   ar
    37    29    28   ar
    38    41    43    1
    39    41    42   ar
    40     2     3   ar
    41     2     8    1
    42     3     9    1
    43    10    11    1
    44    10     9    1
    45    10    12    1
    46    27    28   ar
    47    27    32    1
    48    28    33    1
    49    34    36    1
    50    34    35    1
    51    34    33    1
    52     8     7    3
    53    32    31    3
