@<TRIPOS>MOLECULE
mol_data/opt/b3lyp/geoms/mol2/5dl5dl5dl5dl-.out
 50 53 0 0 0
SMALL
GASTEIGER

@<TRIPOS>ATOM
      1 C          -2.2899   -2.0728    0.3635 C.ar    1  LIG1       -0.0027
      2 C          -1.0060   -2.1705   -0.1288 C.ar    1  LIG1        0.1009
      3 C          -0.3547   -0.8829   -0.2256 C.ar    1  LIG1        0.1526
      4 C          -1.1721    0.1515    0.2065 C.ar    1  LIG1        0.0702
      5 S          -2.7387   -0.4568    0.7140 S.2     1  LIG1       -0.0910
      6 H          -2.9831   -2.8861    0.5234 H       1  LIG1        0.0708
      7 N          -0.0481   -4.4562   -0.8786 N.1     1  LIG1       -0.1907
      8 C          -0.4620   -3.4222   -0.5411 C.1     1  LIG1        0.1034
      9 O           0.8516   -0.6174   -0.7589 O.3     1  LIG1       -0.4927
     10 C           1.9541   -1.5100   -0.4996 C.3     1  LIG1        0.0789
     11 H           2.8412   -0.9686   -0.8257 H       1  LIG1        0.0660
     12 H           2.0351   -1.7208    0.5698 H       1  LIG1        0.0660
     13 H           1.8525   -2.4360   -1.0684 H       1  LIG1        0.0660
     14 C          -0.8732    1.5675    0.2422 C.ar    1  LIG1        0.0511
     15 C           0.2975    2.2034    0.6472 C.ar    1  LIG1        0.1093
     16 C           0.2238    3.6405    0.5534 C.ar    1  LIG1        0.1533
     17 C          -1.0063    4.0850    0.0931 C.ar    1  LIG1        0.0708
     18 S          -2.0675    2.7323   -0.2502 S.2     1  LIG1       -0.0820
     19 N           2.2505    0.9159    1.7518 N.1     1  LIG1       -0.1907
     20 C           1.3800    1.4951    1.2395 C.1     1  LIG1        0.1040
     21 O           1.1541    4.5200    0.9717 O.3     1  LIG1       -0.4926
     22 C           2.5379    4.3004    0.6239 C.3     1  LIG1        0.0789
     23 H           3.0423    5.2364    0.8601 H       1  LIG1        0.0660
     24 H           2.9673    3.4877    1.2120 H       1  LIG1        0.0660
     25 H           2.6362    4.1003   -0.4458 H       1  LIG1        0.0660
     26 C          -1.4636    5.4467   -0.0749 C.ar    1  LIG1        0.0511
     27 C          -0.7844    6.5441   -0.5970 C.ar    1  LIG1        0.1093
     28 C          -1.5773    7.7492   -0.6115 C.ar    1  LIG1        0.1533
     29 C          -2.8577    7.5552   -0.1215 C.ar    1  LIG1        0.0707
     30 S          -3.0808    5.8935    0.3908 S.2     1  LIG1       -0.0820
     31 N           1.5304    6.3365   -1.7324 N.1     1  LIG1       -0.1907
     32 C           0.4968    6.4319   -1.2045 C.1     1  LIG1        0.1040
     33 O          -1.2153    8.9305   -1.1540 O.3     1  LIG1       -0.4926
     34 C           0.0605    9.4991   -0.7880 C.3     1  LIG1        0.0789
     35 H           0.0568   10.5025   -1.2120 H       1  LIG1        0.0660
     36 H           0.1486    9.5698    0.2987 H       1  LIG1        0.0660
     37 H           0.8864    8.9234   -1.2095 H       1  LIG1        0.0660
     38 C          -3.9476    8.5064   -0.0379 C.ar    1  LIG1        0.0505
     39 C          -3.9314    9.8314    0.3784 C.ar    1  LIG1        0.1086
     40 C          -5.2357   10.4532    0.3279 C.ar    1  LIG1        0.1450
     41 C          -6.2101    9.5992   -0.1063 C.ar    1  LIG1        0.0193
     42 S          -5.5723    8.0325   -0.4776 S.2     1  LIG1       -0.0910
     43 H          -7.2632    9.8138   -0.2099 H       1  LIG1        0.0731
     44 N          -1.8737   11.0495    1.3620 N.1     1  LIG1       -0.1907
     45 C          -2.7881   10.4889    0.9082 C.1     1  LIG1        0.1040
     46 O          -5.5007   11.7182    0.7504 O.3     1  LIG1       -0.4933
     47 C          -4.9276   12.7769   -0.0333 C.3     1  LIG1        0.0789
     48 H          -5.2660   13.7053    0.4280 H       1  LIG1        0.0660
     49 H          -3.8340   12.7441   -0.0180 H       1  LIG1        0.0660
     50 H          -5.2849   12.7279   -1.0684 H       1  LIG1        0.0660
@<TRIPOS>BOND
     1    31    32    3
     2    35    34    1
     3    37    34    1
     4    32    27    1
     5    33    34    1
     6    33    28    1
     7    50    47    1
     8    13    10    1
     9     7     8    3
    10    11    10    1
    11    34    36    1
    12     9    10    1
    13     9     3    1
    14    28    27   ar
    15    28    29   ar
    16    27    26   ar
    17     8     2    1
    18    10    12    1
    19    42    41   ar
    20    42    38   ar
    21    25    22    1
    22    18    17   ar
    23    18    14   ar
    24     3     2   ar
    25     3     4   ar
    26    43    41    1
    27     2     1   ar
    28    29    38    1
    29    29    30   ar
    30    41    40   ar
    31    26    17    1
    32    26    30   ar
    33    38    39   ar
    34    47    49    1
    35    47    48    1
    36    47    46    1
    37    17    16   ar
    38     4    14    1
    39     4     5   ar
    40    14    15   ar
    41    40    39   ar
    42    40    46    1
    43     1     6    1
    44     1     5   ar
    45    39    45    1
    46    16    15   ar
    47    16    21    1
    48    22    23    1
    49    22    21    1
    50    22    24    1
    51    15    20    1
    52    45    44    3
    53    20    19    3
