@<TRIPOS>MOLECULE
mol_data/opt/b3lyp/geoms/mol2/5dl5dl5dl.out
 38 40 0 0 0
SMALL
GASTEIGER

@<TRIPOS>ATOM
      1 C          -2.2635   -2.0286    0.4440 C.ar    1  LIG1       -0.0027
      2 C          -1.0158   -2.1027   -0.1373 C.ar    1  LIG1        0.1009
      3 C          -0.3834   -0.8068   -0.2495 C.ar    1  LIG1        0.1526
      4 C          -1.1775    0.2098    0.2601 C.ar    1  LIG1        0.0702
      5 S          -2.7000   -0.4248    0.8604 S.2     1  LIG1       -0.0910
      6 H          -2.9375   -2.8520    0.6320 H       1  LIG1        0.0708
      7 N          -0.0939   -4.3617   -1.0038 N.1     1  LIG1       -0.1907
      8 C          -0.4916   -3.3394   -0.6149 C.1     1  LIG1        0.1034
      9 O           0.7825   -0.5186   -0.8572 O.3     1  LIG1       -0.4927
     10 C           1.9086   -1.4023   -0.6838 C.3     1  LIG1        0.0789
     11 H           2.7663   -0.8481   -1.0628 H       1  LIG1        0.0660
     12 H           2.0640   -1.6245    0.3749 H       1  LIG1        0.0660
     13 H           1.7782   -2.3228   -1.2556 H       1  LIG1        0.0660
     14 C          -0.8877    1.6279    0.3084 C.ar    1  LIG1        0.0511
     15 C           0.3008    2.2648    0.6517 C.ar    1  LIG1        0.1093
     16 C           0.2112    3.7038    0.5957 C.ar    1  LIG1        0.1533
     17 C          -1.0479    4.1483    0.2299 C.ar    1  LIG1        0.0707
     18 S          -2.1186    2.7949   -0.0787 S.2     1  LIG1       -0.0820
     19 N           2.3355    0.9782    1.5987 N.1     1  LIG1       -0.1907
     20 C           1.4263    1.5564    1.1569 C.1     1  LIG1        0.1040
     21 O           1.1689    4.5752    0.9752 O.3     1  LIG1       -0.4926
     22 C           2.5060    4.4029    0.4587 C.3     1  LIG1        0.0789
     23 H           3.0423    5.3052    0.7504 H       1  LIG1        0.0660
     24 H           2.9894    3.5277    0.8963 H       1  LIG1        0.0660
     25 H           2.4883    4.3339   -0.6316 H       1  LIG1        0.0660
     26 C          -1.5291    5.5113    0.1250 C.ar    1  LIG1        0.0505
     27 C          -0.9150    6.6210   -0.4409 C.ar    1  LIG1        0.1086
     28 C          -1.7252    7.8157   -0.3582 C.ar    1  LIG1        0.1450
     29 C          -2.9292    7.5946    0.2491 C.ar    1  LIG1        0.0193
     30 S          -3.1047    5.9451    0.7461 S.2     1  LIG1       -0.0910
     31 H          -3.7169    8.3151    0.4111 H       1  LIG1        0.0731
     32 N           1.3357    6.5759   -1.7132 N.1     1  LIG1       -0.1907
     33 C           0.3277    6.5812   -1.1299 C.1     1  LIG1        0.1040
     34 O          -1.3850    9.0144   -0.9027 O.3     1  LIG1       -0.4933
     35 C          -0.2696    9.6877   -0.2978 C.3     1  LIG1        0.0789
     36 H          -0.1637   10.6302   -0.8361 H       1  LIG1        0.0660
     37 H          -0.4679    9.8884    0.7615 H       1  LIG1        0.0660
     38 H           0.6539    9.1095   -0.3978 H       1  LIG1        0.0660
@<TRIPOS>BOND
     1    32    33    3
     2    13    10    1
     3    33    27    1
     4    11    10    1
     5     7     8    3
     6    34    28    1
     7    34    35    1
     8     9    10    1
     9     9     3    1
    10    36    35    1
    11    10    12    1
    12    25    22    1
    13     8     2    1
    14    27    28   ar
    15    27    26   ar
    16    38    35    1
    17    28    29   ar
    18    35    37    1
    19     3     2   ar
    20     3     4   ar
    21     2     1   ar
    22    18    17   ar
    23    18    14   ar
    24    26    17    1
    25    26    30   ar
    26    17    16   ar
    27    29    31    1
    28    29    30   ar
    29     4    14    1
    30     4     5   ar
    31    14    15   ar
    32     1     6    1
    33     1     5   ar
    34    22    23    1
    35    22    24    1
    36    22    21    1
    37    16    15   ar
    38    16    21    1
    39    15    20    1
    40    20    19    3
