@<TRIPOS>MOLECULE
mol_data/opt/b3lyp/geoms/mol2/5dl5dl-5dl.out
 38 40 0 0 0
SMALL
GASTEIGER

@<TRIPOS>ATOM
      1 C          -1.9681   -1.9157    1.3551 C.ar    1  LIG1       -0.0027
      2 C          -1.0174   -2.1098    0.3763 C.ar    1  LIG1        0.1009
      3 C          -0.4689   -0.8636   -0.1135 C.ar    1  LIG1        0.1526
      4 C          -1.0226    0.2368    0.5206 C.ar    1  LIG1        0.0702
      5 S          -2.2236   -0.2572    1.7016 S.2     1  LIG1       -0.0910
      6 H          -2.5280   -2.6819    1.8719 H       1  LIG1        0.0708
      7 N          -0.4750   -4.4880   -0.4921 N.1     1  LIG1       -0.1907
      8 C          -0.7039   -3.4133   -0.1083 C.1     1  LIG1        0.1034
      9 O           0.3918   -0.7008   -1.1363 O.3     1  LIG1       -0.4927
     10 C           1.5254   -1.5853   -1.2504 C.3     1  LIG1        0.0789
     11 H           2.1621   -1.1342   -2.0106 H       1  LIG1        0.0660
     12 H           2.0726   -1.6312   -0.3057 H       1  LIG1        0.0660
     13 H           1.2173   -2.5829   -1.5684 H       1  LIG1        0.0660
     14 C          -0.7375    1.6406    0.2875 C.ar    1  LIG1        0.0511
     15 C           0.4960    2.2762    0.1880 C.ar    1  LIG1        0.1093
     16 C           0.3854    3.6965   -0.0467 C.ar    1  LIG1        0.1533
     17 C          -0.9298    4.1263   -0.1080 C.ar    1  LIG1        0.0707
     18 S          -2.0343    2.7811    0.0895 S.2     1  LIG1       -0.0820
     19 N           2.7249    0.9837    0.4249 N.1     1  LIG1       -0.1907
     20 C           1.7241    1.5680    0.3114 C.1     1  LIG1        0.1040
     21 O           1.3963    4.5561   -0.2893 O.3     1  LIG1       -0.4926
     22 C           2.5643    4.5302    0.5575 C.3     1  LIG1        0.0789
     23 H           3.1099    5.4423    0.3182 H       1  LIG1        0.0660
     24 H           2.2757    4.5538    1.6112 H       1  LIG1        0.0660
     25 H           3.1860    3.6589    0.3462 H       1  LIG1        0.0660
     26 C          -1.4268    5.4679   -0.3436 C.ar    1  LIG1        0.0505
     27 C          -0.9941    6.6727    0.1945 C.ar    1  LIG1        0.1086
     28 C          -1.7549    7.8067   -0.2799 C.ar    1  LIG1        0.1450
     29 C          -2.7473    7.4486   -1.1486 C.ar    1  LIG1        0.0193
     30 S          -2.7737    5.7393   -1.4237 S.2     1  LIG1       -0.0910
     31 H          -3.4631    8.1033   -1.6227 H       1  LIG1        0.0731
     32 N           0.8259    6.9085    2.0164 N.1     1  LIG1       -0.1907
     33 C           0.0146    6.7863    1.1899 C.1     1  LIG1        0.1040
     34 O          -1.5779    9.0847    0.1502 O.3     1  LIG1       -0.4933
     35 C          -0.3443    9.7124   -0.2338 C.3     1  LIG1        0.0789
     36 H          -0.3873   10.7246    0.1696 H       1  LIG1        0.0660
     37 H           0.5213    9.1925    0.1877 H       1  LIG1        0.0660
     38 H          -0.2557    9.7539   -1.3256 H       1  LIG1        0.0660
@<TRIPOS>BOND
     1    11    10    1
     2    31    29    1
     3    13    10    1
     4    30    29   ar
     5    30    26   ar
     6    38    35    1
     7    10     9    1
     8    10    12    1
     9    29    28   ar
    10     9     3    1
    11     7     8    3
    12    26    17    1
    13    26    27   ar
    14    21    16    1
    15    21    22    1
    16    28    34    1
    17    28    27   ar
    18    35    34    1
    19    35    36    1
    20    35    37    1
    21     3     2   ar
    22     3     4   ar
    23     8     2    1
    24    17    16   ar
    25    17    18   ar
    26    16    15   ar
    27    18    14   ar
    28    15    14   ar
    29    15    20    1
    30    27    33    1
    31    14     4    1
    32    20    19    3
    33    23    22    1
    34    25    22    1
    35     2     1   ar
    36     4     5   ar
    37    22    24    1
    38    33    32    3
    39     1     5   ar
    40     1     6    1
