@<TRIPOS>MOLECULE
mol_data/opt/b3lyp/geoms/mol2/5dl5dl5dl5dl.out
 50 53 0 0 0
SMALL
GASTEIGER

@<TRIPOS>ATOM
      1 C          -2.3185   -2.0737    0.2502 C.ar    1  LIG1       -0.0027
      2 C          -1.0202   -2.1692   -0.2031 C.ar    1  LIG1        0.1009
      3 C          -0.3631   -0.8823   -0.2645 C.ar    1  LIG1        0.1526
      4 C          -1.1910    0.1491    0.1543 C.ar    1  LIG1        0.0702
      5 S          -2.7741   -0.4607    0.6057 S.2     1  LIG1       -0.0910
      6 H          -3.0183   -2.8869    0.3789 H       1  LIG1        0.0708
      7 N          -0.0450   -4.4485   -0.9499 N.1     1  LIG1       -0.1907
      8 C          -0.4667   -3.4174   -0.6132 C.1     1  LIG1        0.1034
      9 O           0.8598   -0.6139   -0.7569 O.3     1  LIG1       -0.4927
     10 C           1.9516   -1.5125   -0.4738 C.3     1  LIG1        0.0789
     11 H           2.8496   -0.9700   -0.7664 H       1  LIG1        0.0660
     12 H           1.9991   -1.7354    0.5951 H       1  LIG1        0.0660
     13 H           1.8654   -2.4318   -1.0558 H       1  LIG1        0.0660
     14 C          -0.8900    1.5638    0.2159 C.ar    1  LIG1        0.0511
     15 C           0.2691    2.1917    0.6643 C.ar    1  LIG1        0.1093
     16 C           0.2019    3.6300    0.5852 C.ar    1  LIG1        0.1533
     17 C          -1.0123    4.0833    0.0923 C.ar    1  LIG1        0.0708
     18 S          -2.0656    2.7376   -0.2995 S.2     1  LIG1       -0.0820
     19 N           2.1838    0.8862    1.8139 N.1     1  LIG1       -0.1907
     20 C           1.3310    1.4736    1.2816 C.1     1  LIG1        0.1040
     21 O           1.1208    4.5020    1.0423 O.3     1  LIG1       -0.4926
     22 C           2.5143    4.2823    0.7352 C.3     1  LIG1        0.0789
     23 H           3.0133    5.2145    0.9968 H       1  LIG1        0.0660
     24 H           2.9233    3.4623    1.3276 H       1  LIG1        0.0660
     25 H           2.6452    4.0932   -0.3330 H       1  LIG1        0.0660
     26 C          -1.4608    5.4481   -0.0739 C.ar    1  LIG1        0.0511
     27 C          -0.7629    6.5495   -0.5617 C.ar    1  LIG1        0.1093
     28 C          -1.5520    7.7570   -0.5867 C.ar    1  LIG1        0.1533
     29 C          -2.8475    7.5610   -0.1390 C.ar    1  LIG1        0.0707
     30 S          -3.0906    5.8941    0.3465 S.2     1  LIG1       -0.0820
     31 N           1.5854    6.3488   -1.6272 N.1     1  LIG1       -0.1907
     32 C           0.5361    6.4408   -1.1305 C.1     1  LIG1        0.1040
     33 O          -1.1703    8.9434   -1.1039 O.3     1  LIG1       -0.4926
     34 C           0.0948    9.5041   -0.6914 C.3     1  LIG1        0.0789
     35 H           0.1068   10.5125   -1.1033 H       1  LIG1        0.0660
     36 H           0.1490    9.5617    0.3983 H       1  LIG1        0.0660
     37 H           0.9321    8.9311   -1.0937 H       1  LIG1        0.0660
     38 C          -3.9371    8.5143   -0.0783 C.ar    1  LIG1        0.0505
     39 C          -3.9306    9.8342    0.3540 C.ar    1  LIG1        0.1086
     40 C          -5.2310   10.4604    0.2702 C.ar    1  LIG1        0.1450
     41 C          -6.1935    9.6144   -0.2043 C.ar    1  LIG1        0.0193
     42 S          -5.5485    8.0504   -0.5742 S.2     1  LIG1       -0.0910
     43 H          -7.2424    9.8333   -0.3383 H       1  LIG1        0.0731
     44 N          -1.9016   11.0347    1.4159 N.1     1  LIG1       -0.1907
     45 C          -2.8027   10.4821    0.9271 C.1     1  LIG1        0.1040
     46 O          -5.5058   11.7211    0.6992 O.3     1  LIG1       -0.4933
     47 C          -4.9056   12.7873   -0.0535 C.3     1  LIG1        0.0789
     48 H          -5.2556   13.7111    0.4083 H       1  LIG1        0.0660
     49 H          -3.8132   12.7507   -0.0046 H       1  LIG1        0.0660
     50 H          -5.2307   12.7518   -1.0997 H       1  LIG1        0.0660
@<TRIPOS>BOND
     1    31    32    3
     2    32    27    1
     3    33    34    1
     4    33    28    1
     5    35    34    1
     6    50    47    1
     7    37    34    1
     8    13    10    1
     9     7     8    3
    10    11    10    1
    11     9    10    1
    12     9     3    1
    13    34    36    1
    14     8     2    1
    15    28    27   ar
    16    28    29   ar
    17    42    41   ar
    18    42    38   ar
    19    27    26   ar
    20    10    12    1
    21    43    41    1
    22    25    22    1
    23    18    17   ar
    24    18    14   ar
    25     3     2   ar
    26     3     4   ar
    27    41    40   ar
    28     2     1   ar
    29    29    38    1
    30    29    30   ar
    31    38    39   ar
    32    26    17    1
    33    26    30   ar
    34    47    49    1
    35    47    48    1
    36    47    46    1
    37    17    16   ar
    38     4    14    1
    39     4     5   ar
    40    14    15   ar
    41     1     6    1
    42     1     5   ar
    43    40    39   ar
    44    40    46    1
    45    39    45    1
    46    16    15   ar
    47    16    21    1
    48    15    20    1
    49    22    23    1
    50    22    21    1
    51    22    24    1
    52    45    44    3
    53    20    19    3
