@<TRIPOS>MOLECULE
mol_data/opt/b3lyp/geoms/mol2/5dl5dl5dl-5dl-.out
 50 53 0 0 0
SMALL
GASTEIGER

@<TRIPOS>ATOM
      1 C          -1.6099   -1.9754    1.7653 C.ar    1  LIG1       -0.0027
      2 C          -0.9731   -2.1377    0.5538 C.ar    1  LIG1        0.1009
      3 C          -0.5500   -0.8779   -0.0186 C.ar    1  LIG1        0.1526
      4 C          -0.8773    0.1998    0.7891 C.ar    1  LIG1        0.0702
      5 S          -1.7168   -0.3316    2.2364 S.2     1  LIG1       -0.0910
      6 H          -2.0239   -2.7570    2.3862 H       1  LIG1        0.0708
      7 N          -0.7538   -4.4826   -0.5220 N.1     1  LIG1       -0.1907
      8 C          -0.8395   -3.4226   -0.0493 C.1     1  LIG1        0.1034
      9 O          -0.0031   -0.6784   -1.2322 O.3     1  LIG1       -0.4927
     10 C           1.0170   -1.5820   -1.7051 C.3     1  LIG1        0.0789
     11 H           1.4339   -1.1016   -2.5893 H       1  LIG1        0.0660
     12 H           1.8033   -1.6982   -0.9552 H       1  LIG1        0.0660
     13 H           0.5918   -2.5505   -1.9739 H       1  LIG1        0.0660
     14 C          -0.6303    1.6080    0.5438 C.ar    1  LIG1        0.0511
     15 C           0.5425    2.2275    0.1204 C.ar    1  LIG1        0.1093
     16 C           0.4113    3.6585   -0.0106 C.ar    1  LIG1        0.1533
     17 C          -0.8524    4.1129    0.3378 C.ar    1  LIG1        0.0708
     18 S          -1.8948    2.7761    0.7816 S.2     1  LIG1       -0.0820
     19 N           2.7068    0.8810   -0.3237 N.1     1  LIG1       -0.1907
     20 C           1.7341    1.4916   -0.1327 C.1     1  LIG1        0.1040
     21 O           1.3239    4.5206   -0.4948 O.3     1  LIG1       -0.4926
     22 C           2.7150    4.3718   -0.1461 C.3     1  LIG1        0.0789
     23 H           3.1737    5.3290   -0.3905 H       1  LIG1        0.0660
     24 H           2.8280    4.1842    0.9244 H       1  LIG1        0.0660
     25 H           3.1808    3.5738   -0.7265 H       1  LIG1        0.0660
     26 C          -1.3481    5.4720    0.3271 C.ar    1  LIG1        0.0511
     27 C          -0.7125    6.6412    0.7356 C.ar    1  LIG1        0.1093
     28 C          -1.5341    7.8175    0.5858 C.ar    1  LIG1        0.1533
     29 C          -2.7937    7.5323    0.0867 C.ar    1  LIG1        0.0707
     30 S          -2.9591    5.8171   -0.2356 S.2     1  LIG1       -0.0820
     31 N           1.5686    6.6358    1.9553 N.1     1  LIG1       -0.1907
     32 C           0.5504    6.6381    1.3902 C.1     1  LIG1        0.1040
     33 O          -1.2160    9.0628    0.9975 O.3     1  LIG1       -0.4926
     34 C           0.0512    9.6223    0.5893 C.3     1  LIG1        0.0789
     35 H           0.0183   10.6635    0.9080 H       1  LIG1        0.0660
     36 H           0.8845    9.1136    1.0770 H       1  LIG1        0.0660
     37 H           0.1517    9.5833   -0.4979 H       1  LIG1        0.0660
     38 C          -3.9050    8.4362   -0.1330 C.ar    1  LIG1        0.0505
     39 C          -3.9119    9.7040   -0.7000 C.ar    1  LIG1        0.1086
     40 C          -5.2319   10.2916   -0.7490 C.ar    1  LIG1        0.1450
     41 C          -6.1948    9.4674   -0.2382 C.ar    1  LIG1        0.0193
     42 S          -5.5274    7.9722    0.3255 S.2     1  LIG1       -0.0910
     43 H          -7.2552    9.6632   -0.1826 H       1  LIG1        0.0731
     44 N          -1.8618   10.8582   -1.7727 N.1     1  LIG1       -0.1907
     45 C          -2.7730   10.3283   -1.2775 C.1     1  LIG1        0.1040
     46 O          -5.5167   11.4915   -1.3221 O.3     1  LIG1       -0.4933
     47 C          -4.9971   12.6492   -0.6490 C.3     1  LIG1        0.0789
     48 H          -5.3346   13.5079   -1.2302 H       1  LIG1        0.0660
     49 H          -5.3953   12.7143    0.3703 H       1  LIG1        0.0660
     50 H          -3.9034   12.6414   -0.6184 H       1  LIG1        0.0660
@<TRIPOS>BOND
     1    11    10    1
     2    13    10    1
     3    44    45    3
     4    10     9    1
     5    10    12    1
     6    46    40    1
     7    46    47    1
     8    45    39    1
     9     9     3    1
    10    48    47    1
    11    40    39   ar
    12    40    41   ar
    13    25    22    1
    14    39    38   ar
    15    47    50    1
    16    47    49    1
    17     7     8    3
    18    37    34    1
    19    21    22    1
    20    21    16    1
    21    23    22    1
    22    19    20    3
    23    41    43    1
    24    41    42   ar
    25    30    29   ar
    26    30    26   ar
    27    22    24    1
    28    38    29    1
    29    38    42   ar
    30    20    15    1
    31     8     2    1
    32     3     2   ar
    33     3     4   ar
    34    16    15   ar
    35    16    17   ar
    36    29    28   ar
    37    15    14   ar
    38    26    17    1
    39    26    27   ar
    40    17    18   ar
    41    14    18   ar
    42    14     4    1
    43     2     1   ar
    44    28    27   ar
    45    28    33    1
    46    34    35    1
    47    34    33    1
    48    34    36    1
    49    27    32    1
    50     4     5   ar
    51    32    31    3
    52     1     5   ar
    53     1     6    1
