@<TRIPOS>MOLECULE
mol_data/opt/b3lyp/geoms/mol2/5ea.out
 11 11 0 0 0
SMALL
GASTEIGER

@<TRIPOS>ATOM
      1 C          -2.0823   -1.6895   -0.0001 C.ar    1  LIG1       -0.0089
      2 C          -0.7036   -1.6757   -0.0002 C.ar    1  LIG1        0.0317
      3 C          -0.1799   -0.3337    0.0001 C.ar    1  LIG1       -0.0393
      4 C          -1.1568    0.6166    0.0004 C.ar    1  LIG1       -0.0231
      5 S          -2.7422   -0.0936    0.0003 S.2     1  LIG1       -0.1038
      6 H          -2.7294   -2.5543   -0.0002 H       1  LIG1        0.0706
      7 H          -1.0456    1.6917    0.0006 H       1  LIG1        0.0694
      8 C           0.1055   -2.8476   -0.0005 C.1     1  LIG1       -0.0691
      9 C           0.8055   -3.8348   -0.0008 C.1     1  LIG1       -0.1139
     10 H           1.4167   -4.7071   -0.0013 H       1  LIG1        0.1232
     11 H           0.8807   -0.1135    0.0001 H       1  LIG1        0.0635
@<TRIPOS>BOND
     1    10     9    1
     2     9     8    3
     3     8     2    1
     4     6     1    1
     5     2     1   ar
     6     2     3   ar
     7     1     5   ar
     8    11     3    1
     9     3     4   ar
    10     5     4   ar
    11     4     7    1
