@<TRIPOS>MOLECULE
mol_data/opt/b3lyp/geoms/mol2/5ea5ea5ea-.out
 29 31 0 0 0
SMALL
GASTEIGER

@<TRIPOS>ATOM
      1 C          -2.1178   -1.9034    0.0512 C.ar    1  LIG1       -0.0083
      2 C          -0.7610   -1.9221   -0.1990 C.ar    1  LIG1        0.0323
      3 C          -0.1920   -0.6068   -0.1975 C.ar    1  LIG1       -0.0310
      4 C          -1.1077    0.3893    0.0541 C.ar    1  LIG1        0.0283
      5 S          -2.7079   -0.3038    0.3054 S.2     1  LIG1       -0.0949
      6 H          -2.7876   -2.7495    0.1026 H       1  LIG1        0.0706
      7 C          -0.0148   -3.1108   -0.4413 C.1     1  LIG1       -0.0691
      8 C           0.6266   -4.1156   -0.6479 C.1     1  LIG1       -0.1139
      9 H           1.1884   -5.0021   -0.8306 H       1  LIG1        0.1232
     10 H           0.8541   -0.4140   -0.3892 H       1  LIG1        0.0641
     11 C          -0.8922    1.8192    0.1283 C.ar    1  LIG1        0.0419
     12 C           0.2861    2.5196    0.3926 C.ar    1  LIG1        0.0405
     13 C           0.1022    3.9367    0.3938 C.ar    1  LIG1       -0.0304
     14 C          -1.1877    4.3364    0.1364 C.ar    1  LIG1        0.0289
     15 S          -2.2089    2.9349   -0.1513 S.2     1  LIG1       -0.0859
     16 C           1.5463    1.9248    0.6762 C.1     1  LIG1       -0.0685
     17 C           2.6380    1.4616    0.9207 C.1     1  LIG1       -0.1139
     18 H           3.5923    1.0442    1.1449 H       1  LIG1        0.1232
     19 H           0.9051    4.6295    0.6030 H       1  LIG1        0.0641
     20 C          -1.7270    5.6789    0.0760 C.ar    1  LIG1        0.0413
     21 C          -1.0619    6.8817   -0.1650 C.ar    1  LIG1        0.0399
     22 C          -1.9470    8.0131   -0.1445 C.ar    1  LIG1       -0.0387
     23 C          -3.2444    7.6795    0.0998 C.ar    1  LIG1       -0.0225
     24 S          -3.4343    5.9721    0.3341 S.2     1  LIG1       -0.0949
     25 H          -4.1045    8.3308    0.1625 H       1  LIG1        0.0694
     26 C           0.3274    7.0138   -0.4329 C.1     1  LIG1       -0.0685
     27 C           1.5050    7.1758   -0.6651 C.1     1  LIG1       -0.1139
     28 H           2.5410    7.3058   -0.8772 H       1  LIG1        0.1232
     29 H          -1.6022    9.0251   -0.3171 H       1  LIG1        0.0635
@<TRIPOS>BOND
     1    28    27    1
     2     9     8    1
     3    27    26    3
     4     8     7    3
     5     7     2    1
     6    26    21    1
     7    10     3    1
     8    29    22    1
     9     2     3   ar
    10     2     1   ar
    11     3     4   ar
    12    21    22   ar
    13    21    20   ar
    14    15    11   ar
    15    15    14   ar
    16    22    23   ar
    17     1     6    1
    18     1     5   ar
    19     4    11    1
    20     4     5   ar
    21    20    14    1
    22    20    24   ar
    23    23    25    1
    24    23    24   ar
    25    11    12   ar
    26    14    13   ar
    27    12    13   ar
    28    12    16    1
    29    13    19    1
    30    16    17    3
    31    17    18    1
