@<TRIPOS>MOLECULE
mol_data/opt/b3lyp/geoms/mol2/5ea5ea5ea5ea.out
 38 41 0 0 0
SMALL
GASTEIGER

@<TRIPOS>ATOM
      1 C          -2.1368   -1.9416    0.2129 C.ar    1  LIG1       -0.0083
      2 C          -0.7872   -1.9995   -0.0689 C.ar    1  LIG1        0.0323
      3 C          -0.1916   -0.6979   -0.1344 C.ar    1  LIG1       -0.0310
      4 C          -1.0806    0.3271    0.0984 C.ar    1  LIG1        0.0283
      5 S          -2.6878   -0.3211    0.4159 S.2     1  LIG1       -0.0949
      6 H          -2.8221   -2.7704    0.3153 H       1  LIG1        0.0706
      7 C          -0.0717   -3.2127   -0.2805 C.1     1  LIG1       -0.0691
      8 C           0.5437   -4.2385   -0.4611 C.1     1  LIG1       -0.1139
      9 H           1.0824   -5.1435   -0.6210 H       1  LIG1        0.1232
     10 H           0.8531   -0.5355   -0.3594 H       1  LIG1        0.0641
     11 C          -0.8348    1.7535    0.1075 C.ar    1  LIG1        0.0419
     12 C           0.3647    2.4396    0.3103 C.ar    1  LIG1        0.0405
     13 C           0.2104    3.8578    0.2557 C.ar    1  LIG1       -0.0304
     14 C          -1.0792    4.2751    0.0156 C.ar    1  LIG1        0.0289
     15 S          -2.1365    2.8838   -0.1829 S.2     1  LIG1       -0.0859
     16 C           1.6199    1.8302    0.5855 C.1     1  LIG1       -0.0685
     17 C           2.7078    1.3538    0.8213 C.1     1  LIG1       -0.1139
     18 H           3.6589    0.9255    1.0384 H       1  LIG1        0.1232
     19 H           1.0327    4.5412    0.4140 H       1  LIG1        0.0641
     20 C          -1.5925    5.6215   -0.0868 C.ar    1  LIG1        0.0419
     21 C          -0.9067    6.8099   -0.3525 C.ar    1  LIG1        0.0405
     22 C          -1.7649    7.9507   -0.3858 C.ar    1  LIG1       -0.0304
     23 C          -3.0901    7.6658   -0.1531 C.ar    1  LIG1        0.0289
     24 S          -3.2949    5.9466    0.1505 S.2     1  LIG1       -0.0859
     25 C           0.4880    6.9121   -0.6087 C.1     1  LIG1       -0.0685
     26 C           1.6706    7.0468   -0.8317 C.1     1  LIG1       -0.1139
     27 H           2.7106    7.1548   -1.0367 H       1  LIG1        0.1232
     28 H          -1.4036    8.9469   -0.5993 H       1  LIG1        0.0641
     29 C          -4.2216    8.5683   -0.1273 C.ar    1  LIG1        0.0413
     30 C          -4.2400    9.9467    0.0909 C.ar    1  LIG1        0.0399
     31 C          -5.5671   10.4938    0.0391 C.ar    1  LIG1       -0.0387
     32 C          -6.5272    9.5597   -0.2062 C.ar    1  LIG1       -0.0225
     33 S          -5.8472    7.9772   -0.4031 S.2     1  LIG1       -0.0949
     34 H          -7.5953    9.7012   -0.2894 H       1  LIG1        0.0694
     35 C          -3.1012   10.7513    0.3645 C.1     1  LIG1       -0.0685
     36 C          -2.1606   11.4769    0.6005 C.1     1  LIG1       -0.1139
     37 H          -1.3273   12.1049    0.8163 H       1  LIG1        0.1232
     38 H          -5.7690   11.5470    0.1911 H       1  LIG1        0.0635
@<TRIPOS>BOND
     1    27    26    1
     2    26    25    3
     3     9     8    1
     4    25    21    1
     5    28    22    1
     6     8     7    3
     7    33    32   ar
     8    33    29   ar
     9    22    21   ar
    10    22    23   ar
    11    10     3    1
    12    21    20   ar
    13    34    32    1
    14     7     2    1
    15    32    31   ar
    16    15    14   ar
    17    15    11   ar
    18    23    29    1
    19    23    24   ar
    20     3     2   ar
    21     3     4   ar
    22    29    30   ar
    23    20    14    1
    24    20    24   ar
    25     2     1   ar
    26    14    13   ar
    27    31    30   ar
    28    31    38    1
    29    30    35    1
    30     4    11    1
    31     4     5   ar
    32    11    12   ar
    33     1     6    1
    34     1     5   ar
    35    13    12   ar
    36    13    19    1
    37    12    16    1
    38    35    36    3
    39    16    17    3
    40    36    37    1
    41    17    18    1
