@<TRIPOS>MOLECULE
mol_data/opt/b3lyp/geoms/mol2/5ea5ea5ea5ea-.out
 38 41 0 0 0
SMALL
GASTEIGER

@<TRIPOS>ATOM
      1 C          -2.1526   -1.9425    0.0985 C.ar    1  LIG1       -0.0083
      2 C          -0.7928   -1.9992   -0.1290 C.ar    1  LIG1        0.0323
      3 C          -0.1933   -0.6980   -0.1538 C.ar    1  LIG1       -0.0310
      4 C          -1.0896    0.3257    0.0558 C.ar    1  LIG1        0.0283
      5 S          -2.7093   -0.3236    0.2997 S.2     1  LIG1       -0.0949
      6 H          -2.8425   -2.7714    0.1624 H       1  LIG1        0.0706
      7 C          -0.0709   -3.2109   -0.3268 C.1     1  LIG1       -0.0691
      8 C           0.5498   -4.2356   -0.4954 C.1     1  LIG1       -0.1139
      9 H           1.0934   -5.1396   -0.6447 H       1  LIG1        0.1232
     10 H           0.8598   -0.5347   -0.3341 H       1  LIG1        0.0641
     11 C          -0.8427    1.7514    0.0930 C.ar    1  LIG1        0.0419
     12 C           0.3484    2.4329    0.3530 C.ar    1  LIG1        0.0405
     13 C           0.1980    3.8519    0.3103 C.ar    1  LIG1       -0.0304
     14 C          -1.0804    4.2743    0.0236 C.ar    1  LIG1        0.0289
     15 S          -2.1304    2.8874   -0.2353 S.2     1  LIG1       -0.0859
     16 C           1.5907    1.8179    0.6709 C.1     1  LIG1       -0.0685
     17 C           2.6677    1.3369    0.9443 C.1     1  LIG1       -0.1139
     18 H           3.6089    0.9045    1.1939 H       1  LIG1        0.1232
     19 H           1.0139    4.5319    0.5104 H       1  LIG1        0.0641
     20 C          -1.5877    5.6227   -0.0823 C.ar    1  LIG1        0.0419
     21 C          -0.8904    6.8134   -0.3045 C.ar    1  LIG1        0.0405
     22 C          -1.7453    7.9559   -0.3581 C.ar    1  LIG1       -0.0304
     23 C          -3.0792    7.6701   -0.1833 C.ar    1  LIG1        0.0289
     24 S          -3.2979    5.9475    0.0896 S.2     1  LIG1       -0.0859
     25 C           0.5137    6.9167   -0.5022 C.1     1  LIG1       -0.0685
     26 C           1.7046    7.0524   -0.6751 C.1     1  LIG1       -0.1139
     27 H           2.7522    7.1613   -0.8362 H       1  LIG1        0.1232
     28 H          -1.3746    8.9542   -0.5439 H       1  LIG1        0.0641
     29 C          -4.2099    8.5739   -0.1921 C.ar    1  LIG1        0.0413
     30 C          -4.2358    9.9493    0.0434 C.ar    1  LIG1        0.0399
     31 C          -5.5591   10.4992   -0.0556 C.ar    1  LIG1       -0.0387
     32 C          -6.5092    9.5699   -0.3525 C.ar    1  LIG1       -0.0225
     33 S          -5.8234    7.9890   -0.5422 S.2     1  LIG1       -0.0949
     34 H          -7.5730    9.7141   -0.4776 H       1  LIG1        0.0694
     35 C          -3.1083   10.7484    0.3742 C.1     1  LIG1       -0.0685
     36 C          -2.1773   11.4692    0.6582 C.1     1  LIG1       -0.1139
     37 H          -1.3528   12.0927    0.9163 H       1  LIG1        0.1232
     38 H          -5.7660   11.5505    0.1019 H       1  LIG1        0.0635
@<TRIPOS>BOND
     1    27    26    1
     2    26    25    3
     3     9     8    1
     4    28    22    1
     5    33    32   ar
     6    33    29   ar
     7    25    21    1
     8     8     7    3
     9    34    32    1
    10    22    21   ar
    11    22    23   ar
    12    32    31   ar
    13    10     3    1
    14     7     2    1
    15    21    20   ar
    16    15    14   ar
    17    15    11   ar
    18    29    23    1
    19    29    30   ar
    20    23    24   ar
    21     3     2   ar
    22     3     4   ar
    23     2     1   ar
    24    20    14    1
    25    20    24   ar
    26    31    30   ar
    27    31    38    1
    28    14    13   ar
    29    30    35    1
    30     4    11    1
    31     4     5   ar
    32    11    12   ar
    33     1     6    1
    34     1     5   ar
    35    13    12   ar
    36    13    19    1
    37    12    16    1
    38    35    36    3
    39    36    37    1
    40    16    17    3
    41    17    18    1
