@<TRIPOS>MOLECULE
mol_data/opt/b3lyp/geoms/mol2/5ea5ea.out
 20 21 0 0 0
SMALL
GASTEIGER

@<TRIPOS>ATOM
      1 C          -2.0718   -1.8029    0.4063 C.ar    1  LIG1       -0.0083
      2 C          -0.7546   -1.8271   -0.0022 C.ar    1  LIG1        0.0323
      3 C          -0.2245   -0.5092   -0.1988 C.ar    1  LIG1       -0.0310
      4 C          -1.1295    0.4925    0.0614 C.ar    1  LIG1        0.0282
      5 S          -2.6689   -0.1939    0.5715 S.2     1  LIG1       -0.0949
      6 H          -2.7085   -2.6491    0.6202 H       1  LIG1        0.0706
      7 C          -0.0109   -3.0230   -0.2153 C.1     1  LIG1       -0.0691
      8 C           0.6284   -4.0337   -0.3984 C.1     1  LIG1       -0.1139
      9 H           1.1883   -4.9255   -0.5599 H       1  LIG1        0.1232
     10 H           0.7863   -0.3212   -0.5326 H       1  LIG1        0.0641
     11 C          -0.9425    1.9284   -0.0322 C.ar    1  LIG1        0.0413
     12 C           0.2362    2.6660    0.0661 C.ar    1  LIG1        0.0399
     13 C           0.0160    4.0783   -0.0833 C.ar    1  LIG1       -0.0387
     14 C          -1.2910    4.4020   -0.2849 C.ar    1  LIG1       -0.0225
     15 S          -2.3016    2.9933   -0.3206 S.2     1  LIG1       -0.0949
     16 H          -1.7267    5.3818   -0.4200 H       1  LIG1        0.0694
     17 C           1.5264    2.1227    0.3130 C.1     1  LIG1       -0.0685
     18 C           2.6439    1.7050    0.5209 C.1     1  LIG1       -0.1139
     19 H           3.6211    1.3263    0.7127 H       1  LIG1        0.1232
     20 H           0.8199    4.8020   -0.0291 H       1  LIG1        0.0635
@<TRIPOS>BOND
     1     9     8    1
     2    10     3    1
     3    16    14    1
     4     8     7    3
     5    15    14   ar
     6    15    11   ar
     7    14    13   ar
     8     7     2    1
     9     3     2   ar
    10     3     4   ar
    11    13    20    1
    12    13    12   ar
    13    11     4    1
    14    11    12   ar
    15     2     1   ar
    16     4     5   ar
    17    12    17    1
    18    17    18    3
    19     1     5   ar
    20     1     6    1
    21    18    19    1
