@<TRIPOS>MOLECULE
mol_data/opt/b3lyp/geoms/mol2/5ea5ea-.out
 20 21 0 0 0
SMALL
GASTEIGER

@<TRIPOS>ATOM
      1 C          -2.1494   -1.8119    0.0001 C.ar    1  LIG1       -0.0083
      2 C          -0.7708   -1.8333   -0.0002 C.ar    1  LIG1        0.0323
      3 C          -0.2076   -0.5152    0.0002 C.ar    1  LIG1       -0.0310
      4 C          -1.1493    0.4893    0.0008 C.ar    1  LIG1        0.0282
      5 S          -2.7700   -0.2036    0.0008 S.2     1  LIG1       -0.0949
      6 H          -2.8213   -2.6579   -0.0001 H       1  LIG1        0.0706
      7 C           0.0047   -3.0280   -0.0008 C.1     1  LIG1       -0.0691
      8 C           0.6707   -4.0381   -0.0013 C.1     1  LIG1       -0.1139
      9 H           1.2545   -4.9292   -0.0018 H       1  LIG1        0.1232
     10 H           0.8564   -0.3291    0.0001 H       1  LIG1        0.0641
     11 C          -0.9505    1.9268    0.0013 C.ar    1  LIG1        0.0413
     12 C           0.2395    2.6571    0.0015 C.ar    1  LIG1        0.0399
     13 C           0.0170    4.0771    0.0020 C.ar    1  LIG1       -0.0387
     14 C          -1.3001    4.4183    0.0022 C.ar    1  LIG1       -0.0225
     15 S          -2.3219    3.0179    0.0017 S.2     1  LIG1       -0.0949
     16 H          -1.7397    5.4055    0.0025 H       1  LIG1        0.0694
     17 C           1.5529    2.1148    0.0013 C.1     1  LIG1       -0.0685
     18 C           2.6956    1.7128    0.0011 C.1     1  LIG1       -0.1139
     19 H           3.6964    1.3473    0.0010 H       1  LIG1        0.1232
     20 H           0.8305    4.7921    0.0022 H       1  LIG1        0.0635
@<TRIPOS>BOND
     1     9     8    1
     2     8     7    3
     3     7     2    1
     4     2     1   ar
     5     2     3   ar
     6     6     1    1
     7    10     3    1
     8     1     5   ar
     9     3     4   ar
    10     4     5   ar
    11     4    11    1
    12    19    18    1
    13    18    17    3
    14    17    12    1
    15    11    12   ar
    16    11    15   ar
    17    12    13   ar
    18    15    14   ar
    19    13    14   ar
    20    13    20    1
    21    14    16    1
