@<TRIPOS>MOLECULE
mol_data/opt/b3lyp/geoms/mol2/5ea5ea5ea-5ea-.out
 38 41 0 0 0
SMALL
GASTEIGER

@<TRIPOS>ATOM
      1 C          -2.1368   -1.9314   -0.1179 C.ar    1  LIG1       -0.0083
      2 C          -0.7733   -1.9740   -0.3259 C.ar    1  LIG1        0.0323
      3 C          -0.1754   -0.6732   -0.2639 C.ar    1  LIG1       -0.0310
      4 C          -1.0766    0.3357   -0.0090 C.ar    1  LIG1        0.0283
      5 S          -2.6991   -0.3275    0.1690 S.2     1  LIG1       -0.0949
      6 H          -2.8266   -2.7629   -0.1150 H       1  LIG1        0.0706
      7 C          -0.0465   -3.1716   -0.5829 C.1     1  LIG1       -0.0691
      8 C           0.5784   -4.1842   -0.8015 C.1     1  LIG1       -0.1139
      9 H           1.1256   -5.0775   -0.9950 H       1  LIG1        0.1232
     10 H           0.8803   -0.4988   -0.4164 H       1  LIG1        0.0641
     11 C          -0.8315    1.7564    0.1196 C.ar    1  LIG1        0.0419
     12 C           0.3526    2.4199    0.4480 C.ar    1  LIG1        0.0405
     13 C           0.2021    3.8389    0.4894 C.ar    1  LIG1       -0.0304
     14 C          -1.0700    4.2793    0.2005 C.ar    1  LIG1        0.0289
     15 S          -2.1122    2.9112   -0.1677 S.2     1  LIG1       -0.0859
     16 C           1.5877    1.7856    0.7561 C.1     1  LIG1       -0.0685
     17 C           2.6582    1.2873    1.0241 C.1     1  LIG1       -0.1139
     18 H           3.5934    0.8391    1.2682 H       1  LIG1        0.1232
     19 H           1.0128    4.5044    0.7499 H       1  LIG1        0.0641
     20 C          -1.5761    5.6320    0.1686 C.ar    1  LIG1        0.0419
     21 C          -0.8732    6.8362    0.0706 C.ar    1  LIG1        0.0405
     22 C          -1.7274    7.9804    0.0729 C.ar    1  LIG1       -0.0304
     23 C          -3.0675    7.6837    0.1623 C.ar    1  LIG1        0.0289
     24 S          -3.2957    5.9429    0.2549 S.2     1  LIG1       -0.0859
     25 C           0.5392    6.9573   -0.0373 C.1     1  LIG1       -0.0685
     26 C           1.7369    7.1100   -0.1315 C.1     1  LIG1       -0.1139
     27 H           2.7912    7.2347   -0.2211 H       1  LIG1        0.1232
     28 H          -1.3491    8.9911    0.0131 H       1  LIG1        0.0641
     29 C          -4.1978    8.5879    0.1878 C.ar    1  LIG1        0.0413
     30 C          -4.2740    9.9111   -0.2506 C.ar    1  LIG1        0.0399
     31 C          -5.5787   10.4802   -0.0575 C.ar    1  LIG1       -0.0387
     32 C          -6.4671    9.6160    0.5064 C.ar    1  LIG1       -0.0225
     33 S          -5.7408    8.0779    0.8414 S.2     1  LIG1       -0.0949
     34 H          -7.5056    9.7861    0.7523 H       1  LIG1        0.0694
     35 C          -3.2145   10.6425   -0.8518 C.1     1  LIG1       -0.0685
     36 C          -2.3434   11.3068   -1.3683 C.1     1  LIG1       -0.1139
     37 H          -1.5724   11.8791   -1.8302 H       1  LIG1        0.1232
     38 H          -5.8188   11.4962   -0.3455 H       1  LIG1        0.0635
@<TRIPOS>BOND
     1    37    36    1
     2    36    35    3
     3     9     8    1
     4    35    30    1
     5     8     7    3
     6     7     2    1
     7    10     3    1
     8    38    31    1
     9     2     3   ar
    10     2     1   ar
    11     3     4   ar
    12    30    31   ar
    13    30    29   ar
    14    27    26    1
    15    15    11   ar
    16    15    14   ar
    17    26    25    3
    18     1     6    1
    19     1     5   ar
    20    31    32   ar
    21    25    21    1
    22     4    11    1
    23     4     5   ar
    24    28    22    1
    25    21    22   ar
    26    21    20   ar
    27    22    23   ar
    28    11    12   ar
    29    23    29    1
    30    23    24   ar
    31    20    14    1
    32    20    24   ar
    33    29    33   ar
    34    14    13   ar
    35    12    13   ar
    36    12    16    1
    37    13    19    1
    38    32    34    1
    39    32    33   ar
    40    16    17    3
    41    17    18    1
