@<TRIPOS>MOLECULE
mol_data/opt/b3lyp/geoms/mol2/5ea5ea-5ea5ea.out
 38 41 0 0 0
SMALL
GASTEIGER

@<TRIPOS>ATOM
      1 C          -2.1342   -1.9425    0.2071 C.ar    1  LIG1       -0.0083
      2 C          -0.7865   -1.9990   -0.0840 C.ar    1  LIG1        0.0323
      3 C          -0.1915   -0.6971   -0.1481 C.ar    1  LIG1       -0.0310
      4 C          -1.0790    0.3268    0.0949 C.ar    1  LIG1        0.0283
      5 S          -2.6840   -0.3230    0.4207 S.2     1  LIG1       -0.0949
      6 H          -2.8187   -2.7720    0.3106 H       1  LIG1        0.0706
      7 C          -0.0723   -3.2112   -0.3054 C.1     1  LIG1       -0.0691
      8 C           0.5419   -4.2363   -0.4944 C.1     1  LIG1       -0.1139
      9 H           1.0797   -5.1405   -0.6617 H       1  LIG1        0.1232
     10 H           0.8516   -0.5336   -0.3794 H       1  LIG1        0.0641
     11 C          -0.8334    1.7533    0.1084 C.ar    1  LIG1        0.0419
     12 C           0.3673    2.4387    0.3058 C.ar    1  LIG1        0.0405
     13 C           0.2123    3.8572    0.2583 C.ar    1  LIG1       -0.0304
     14 C          -1.0790    4.2751    0.0289 C.ar    1  LIG1        0.0289
     15 S          -2.1374    2.8844   -0.1682 S.2     1  LIG1       -0.0859
     16 C           1.6245    1.8284    0.5697 C.1     1  LIG1       -0.0685
     17 C           2.7141    1.3514    0.7959 C.1     1  LIG1       -0.1139
     18 H           3.6668    0.9224    1.0044 H       1  LIG1        0.1232
     19 H           1.0355    4.5401    0.4138 H       1  LIG1        0.0641
     20 C          -1.5934    5.6218   -0.0643 C.ar    1  LIG1        0.0419
     21 C          -0.9096    6.8115   -0.3294 C.ar    1  LIG1        0.0405
     22 C          -1.7683    7.9523   -0.3520 C.ar    1  LIG1       -0.0304
     23 C          -3.0918    7.6660   -0.1116 C.ar    1  LIG1        0.0289
     24 S          -3.2941    5.9455    0.1858 S.2     1  LIG1       -0.0859
     25 C           0.4833    6.9152   -0.5945 C.1     1  LIG1       -0.0685
     26 C           1.6644    7.0513   -0.8249 C.1     1  LIG1       -0.1139
     27 H           2.7029    7.1605   -1.0365 H       1  LIG1        0.1232
     28 H          -1.4086    8.9495   -0.5637 H       1  LIG1        0.0641
     29 C          -4.2234    8.5680   -0.0744 C.ar    1  LIG1        0.0413
     30 C          -4.2406    9.9455    0.1502 C.ar    1  LIG1        0.0399
     31 C          -5.5682   10.4924    0.1097 C.ar    1  LIG1       -0.0387
     32 C          -6.5296    9.5592   -0.1335 C.ar    1  LIG1       -0.0225
     33 S          -5.8506    7.9778   -0.3422 S.2     1  LIG1       -0.0949
     34 H          -7.5984    9.7007   -0.2090 H       1  LIG1        0.0694
     35 C          -3.1002   10.7491    0.4200 C.1     1  LIG1       -0.0685
     36 C          -2.1582   11.4738    0.6530 C.1     1  LIG1       -0.1139
     37 H          -1.3236   12.1010    0.8660 H       1  LIG1        0.1232
     38 H          -5.7693   11.5448    0.2677 H       1  LIG1        0.0635
@<TRIPOS>BOND
     1    27    26    1
     2    26    25    3
     3     9     8    1
     4    25    21    1
     5    28    22    1
     6     8     7    3
     7    10     3    1
     8    22    21   ar
     9    22    23   ar
    10    33    32   ar
    11    33    29   ar
    12    21    20   ar
    13     7     2    1
    14    34    32    1
    15    15    14   ar
    16    15    11   ar
    17     3     2   ar
    18     3     4   ar
    19    32    31   ar
    20    23    29    1
    21    23    24   ar
    22     2     1   ar
    23    29    30   ar
    24    20    14    1
    25    20    24   ar
    26    14    13   ar
    27     4    11    1
    28     4     5   ar
    29    11    12   ar
    30    31    30   ar
    31    31    38    1
    32    30    35    1
    33     1     6    1
    34     1     5   ar
    35    13    12   ar
    36    13    19    1
    37    12    16    1
    38    35    36    3
    39    16    17    3
    40    36    37    1
    41    17    18    1
