@<TRIPOS>MOLECULE
mol_data/opt/b3lyp/geoms/mol2/5ea5ea-5ea5ea-.out
 38 41 0 0 0
SMALL
GASTEIGER

@<TRIPOS>ATOM
      1 C          -2.2122   -1.9387    0.0006 C.ar    1  LIG1       -0.0083
      2 C          -0.8355   -2.0270   -0.0001 C.ar    1  LIG1        0.0323
      3 C          -0.2093   -0.7391    0.0001 C.ar    1  LIG1       -0.0310
      4 C          -1.1025    0.3112    0.0011 C.ar    1  LIG1        0.0283
      5 S          -2.7553   -0.3030    0.0017 S.2     1  LIG1       -0.0949
      6 H          -2.9238   -2.7515    0.0006 H       1  LIG1        0.0706
      7 C          -0.1194   -3.2583   -0.0011 C.1     1  LIG1       -0.0691
      8 C           0.4959   -4.2999   -0.0019 C.1     1  LIG1       -0.1139
      9 H           1.0349   -5.2188   -0.0025 H       1  LIG1        0.1232
     10 H           0.8623   -0.6043   -0.0004 H       1  LIG1        0.0641
     11 C          -0.8346    1.7330    0.0016 C.ar    1  LIG1        0.0419
     12 C           0.3897    2.4090    0.0015 C.ar    1  LIG1        0.0405
     13 C           0.2451    3.8282    0.0021 C.ar    1  LIG1       -0.0304
     14 C          -1.0615    4.2655    0.0028 C.ar    1  LIG1        0.0289
     15 S          -2.1519    2.8849    0.0026 S.2     1  LIG1       -0.0859
     16 C           1.6751    1.8009    0.0007 C.1     1  LIG1       -0.0685
     17 C           2.7942    1.3381    0.0001 C.1     1  LIG1       -0.1139
     18 H           3.7749    0.9214   -0.0005 H       1  LIG1        0.1232
     19 H           1.0923    4.4982    0.0021 H       1  LIG1        0.0641
     20 C          -1.5705    5.6161    0.0036 C.ar    1  LIG1        0.0419
     21 C          -0.8753    6.8304    0.0039 C.ar    1  LIG1        0.0405
     22 C          -1.7376    7.9672    0.0047 C.ar    1  LIG1       -0.0304
     23 C          -3.0800    7.6620    0.0050 C.ar    1  LIG1        0.0289
     24 S          -3.2951    5.9163    0.0043 S.2     1  LIG1       -0.0859
     25 C           0.5385    6.9781    0.0035 C.1     1  LIG1       -0.0685
     26 C           1.7356    7.1628    0.0031 C.1     1  LIG1       -0.1139
     27 H           2.7899    7.3164    0.0028 H       1  LIG1        0.1232
     28 H          -1.3620    8.9801    0.0050 H       1  LIG1        0.0641
     29 C          -4.2201    8.5530    0.0058 C.ar    1  LIG1        0.0413
     30 C          -4.2533    9.9505    0.0064 C.ar    1  LIG1        0.0399
     31 C          -5.5922   10.4705    0.0071 C.ar    1  LIG1       -0.0387
     32 C          -6.5492    9.5026    0.0071 C.ar    1  LIG1       -0.0225
     33 S          -5.8531    7.9152    0.0063 S.2     1  LIG1       -0.0949
     34 H          -7.6235    9.6189    0.0076 H       1  LIG1        0.0694
     35 C          -3.1241   10.8123    0.0063 C.1     1  LIG1       -0.0685
     36 C          -2.2009   11.5968    0.0062 C.1     1  LIG1       -0.1139
     37 H          -1.3818   12.2782    0.0060 H       1  LIG1        0.1232
     38 H          -5.8024   11.5328    0.0076 H       1  LIG1        0.0635
@<TRIPOS>BOND
     1     9     8    1
     2     8     7    3
     3     7     2    1
     4    18    17    1
     5    10     3    1
     6     2     3   ar
     7     2     1   ar
     8     3     4   ar
     9    17    16    3
    10     1     6    1
    11     1     5   ar
    12    16    12    1
    13     4    11    1
    14     4     5   ar
    15    12    11   ar
    16    12    13   ar
    17    11    15   ar
    18    19    13    1
    19    13    14   ar
    20    15    14   ar
    21    27    26    1
    22    14    20    1
    23    26    25    3
    24    25    21    1
    25    20    21   ar
    26    20    24   ar
    27    21    22   ar
    28    24    23   ar
    29    22    28    1
    30    22    23   ar
    31    23    29    1
    32    29    33   ar
    33    29    30   ar
    34    37    36    1
    35    36    35    3
    36    35    30    1
    37    33    32   ar
    38    30    31   ar
    39    31    32   ar
    40    31    38    1
    41    32    34    1
