@<TRIPOS>MOLECULE
mol_data/opt/b3lyp/geoms/mol2/5ea5ea-5ea.out
 29 31 0 0 0
SMALL
GASTEIGER

@<TRIPOS>ATOM
      1 C          -2.1806   -1.9004    0.0004 C.ar    1  LIG1       -0.0083
      2 C          -0.8024   -1.9553   -0.0001 C.ar    1  LIG1        0.0323
      3 C          -0.2075   -0.6524    0.0002 C.ar    1  LIG1       -0.0310
      4 C          -1.1257    0.3758    0.0010 C.ar    1  LIG1        0.0283
      5 S          -2.7630   -0.2782    0.0014 S.2     1  LIG1       -0.0949
      6 H          -2.8724   -2.7301    0.0004 H       1  LIG1        0.0706
      7 C          -0.0566   -3.1688   -0.0009 C.1     1  LIG1       -0.0691
      8 C           0.5841   -4.1951   -0.0017 C.1     1  LIG1       -0.1139
      9 H           1.1454   -5.1005   -0.0030 H       1  LIG1        0.1232
     10 H           0.8606   -0.4920   -0.0002 H       1  LIG1        0.0641
     11 C          -0.8923    1.8043    0.0015 C.ar    1  LIG1        0.0419
     12 C           0.3140    2.5100    0.0015 C.ar    1  LIG1        0.0405
     13 C           0.1335    3.9265    0.0021 C.ar    1  LIG1       -0.0304
     14 C          -1.1818    4.3305    0.0026 C.ar    1  LIG1        0.0289
     15 S          -2.2374    2.9237    0.0023 S.2     1  LIG1       -0.0859
     16 C           1.6142    1.9345    0.0010 C.1     1  LIG1       -0.0685
     17 C           2.7448    1.5004    0.0006 C.1     1  LIG1       -0.1139
     18 H           3.7357    1.1087    0.0010 H       1  LIG1        0.1232
     19 H           0.9642    4.6171    0.0022 H       1  LIG1        0.0641
     20 C          -1.7267    5.6714    0.0033 C.ar    1  LIG1        0.0413
     21 C          -1.0594    6.8995    0.0036 C.ar    1  LIG1        0.0399
     22 C          -1.9614    8.0176    0.0043 C.ar    1  LIG1       -0.0387
     23 C          -3.2732    7.6553    0.0044 C.ar    1  LIG1       -0.0225
     24 S          -3.4601    5.9319    0.0038 S.2     1  LIG1       -0.0949
     25 H          -4.1469    8.2912    0.0049 H       1  LIG1        0.0694
     26 C           0.3490    7.0843    0.0034 C.1     1  LIG1       -0.0685
     27 C           1.5403    7.3046    0.0033 C.1     1  LIG1       -0.1139
     28 H           2.5901    7.4869    0.0034 H       1  LIG1        0.1232
     29 H          -1.6143    9.0435    0.0047 H       1  LIG1        0.0635
@<TRIPOS>BOND
     1     9     8    1
     2     8     7    3
     3     7     2    1
     4    10     3    1
     5     2     3   ar
     6     2     1   ar
     7     3     4   ar
     8     6     1    1
     9     1     5   ar
    10    17    18    1
    11    17    16    3
    12     4     5   ar
    13     4    11    1
    14    16    12    1
    15    11    12   ar
    16    11    15   ar
    17    12    13   ar
    18    13    19    1
    19    13    14   ar
    20    15    14   ar
    21    14    20    1
    22    27    28    1
    23    27    26    3
    24    20    21   ar
    25    20    24   ar
    26    26    21    1
    27    21    22   ar
    28    24    23   ar
    29    22    23   ar
    30    22    29    1
    31    23    25    1
