@<TRIPOS>MOLECULE
mol_data/opt/b3lyp/geoms/mol2/5ea5ea5ea-5ea.out
 38 41 0 0 0
SMALL
GASTEIGER

@<TRIPOS>ATOM
      1 C          -2.1569   -1.9429    0.0420 C.ar    1  LIG1       -0.0083
      2 C          -0.7951   -1.9985   -0.1736 C.ar    1  LIG1        0.0323
      3 C          -0.1948   -0.6974   -0.1823 C.ar    1  LIG1       -0.0310
      4 C          -1.0925    0.3249    0.0274 C.ar    1  LIG1        0.0283
      5 S          -2.7146   -0.3255    0.2512 S.2     1  LIG1       -0.0949
      6 H          -2.8478   -2.7719    0.0929 H       1  LIG1        0.0706
      7 C          -0.0720   -3.2090   -0.3746 C.1     1  LIG1       -0.0691
      8 C           0.5499   -4.2325   -0.5458 C.1     1  LIG1       -0.1139
      9 H           1.0944   -5.1355   -0.6975 H       1  LIG1        0.1232
     10 H           0.8600   -0.5333   -0.3517 H       1  LIG1        0.0641
     11 C          -0.8452    1.7502    0.0786 C.ar    1  LIG1        0.0419
     12 C           0.3438    2.4288    0.3550 C.ar    1  LIG1        0.0405
     13 C           0.1945    3.8482    0.3225 C.ar    1  LIG1       -0.0304
     14 C          -1.0810    4.2737    0.0274 C.ar    1  LIG1        0.0289
     15 S          -2.1292    2.8896   -0.2524 S.2     1  LIG1       -0.0859
     16 C           1.5828    1.8105    0.6793 C.1     1  LIG1       -0.0685
     17 C           2.6569    1.3266    0.9588 C.1     1  LIG1       -0.1139
     18 H           3.5954    0.8915    1.2138 H       1  LIG1        0.1232
     19 H           1.0089    4.5261    0.5356 H       1  LIG1        0.0641
     20 C          -1.5866    5.6232   -0.0721 C.ar    1  LIG1        0.0419
     21 C          -0.8866    6.8152   -0.2784 C.ar    1  LIG1        0.0405
     22 C          -1.7404    7.9587   -0.3304 C.ar    1  LIG1       -0.0304
     23 C          -3.0759    7.6723   -0.1699 C.ar    1  LIG1        0.0289
     24 S          -3.2981    5.9477    0.0871 S.2     1  LIG1       -0.0859
     25 C           0.5193    6.9192   -0.4628 C.1     1  LIG1       -0.0685
     26 C           1.7117    7.0557   -0.6240 C.1     1  LIG1       -0.1139
     27 H           2.7607    7.1653   -0.7749 H       1  LIG1        0.1232
     28 H          -1.3674    8.9582   -0.5048 H       1  LIG1        0.0641
     29 C          -4.2061    8.5768   -0.1815 C.ar    1  LIG1        0.0413
     30 C          -4.2332    9.9505    0.0643 C.ar    1  LIG1        0.0399
     31 C          -5.5554   10.5018   -0.0417 C.ar    1  LIG1       -0.0387
     32 C          -6.5034    9.5755   -0.3539 C.ar    1  LIG1       -0.0225
     33 S          -5.8168    7.9957   -0.5498 S.2     1  LIG1       -0.0949
     34 H          -7.5659    9.7212   -0.4871 H       1  LIG1        0.0694
     35 C          -3.1082   10.7463    0.4109 C.1     1  LIG1       -0.0685
     36 C          -2.1795   11.4645    0.7084 C.1     1  LIG1       -0.1139
     37 H          -1.3570   12.0858    0.9782 H       1  LIG1        0.1232
     38 H          -5.7630   11.5520    0.1221 H       1  LIG1        0.0635
@<TRIPOS>BOND
     1    27    26    1
     2     9     8    1
     3    26    25    3
     4    33    32   ar
     5    33    29   ar
     6     8     7    3
     7    28    22    1
     8    34    32    1
     9    25    21    1
    10     7     2    1
    11    32    31   ar
    12    10     3    1
    13    22    21   ar
    14    22    23   ar
    15    21    20   ar
    16    15    14   ar
    17    15    11   ar
    18     3     2   ar
    19     3     4   ar
    20    29    23    1
    21    29    30   ar
    22     2     1   ar
    23    23    24   ar
    24    20    14    1
    25    20    24   ar
    26    31    30   ar
    27    31    38    1
    28    14    13   ar
    29     4    11    1
    30     4     5   ar
    31     1     6    1
    32     1     5   ar
    33    30    35    1
    34    11    12   ar
    35    13    12   ar
    36    13    19    1
    37    12    16    1
    38    35    36    3
    39    16    17    3
    40    36    37    1
    41    17    18    1
