@<TRIPOS>MOLECULE
mol_data/opt/b3lyp/geoms/mol2/5ea5ea-5ea-5ea-.out
 38 41 0 0 0
SMALL
GASTEIGER

@<TRIPOS>ATOM
      1 C          -2.1361   -1.9405   -0.2498 C.ar    1  LIG1       -0.0083
      2 C          -0.7911   -1.9999    0.0529 C.ar    1  LIG1        0.0323
      3 C          -0.1959   -0.6988    0.1313 C.ar    1  LIG1       -0.0310
      4 C          -1.0805    0.3274   -0.1125 C.ar    1  LIG1        0.0283
      5 S          -2.6830   -0.3191   -0.4570 S.2     1  LIG1       -0.0949
      6 H          -2.8201   -2.7687   -0.3652 H       1  LIG1        0.0706
      7 C          -0.0797   -3.2141    0.2723 C.1     1  LIG1       -0.0691
      8 C           0.5322   -4.2409    0.4597 C.1     1  LIG1       -0.1139
      9 H           1.0678   -5.1466    0.6255 H       1  LIG1        0.1232
     10 H           0.8452   -0.5377    0.3729 H       1  LIG1        0.0641
     11 C          -0.8340    1.7536   -0.1139 C.ar    1  LIG1        0.0419
     12 C           0.3689    2.4397   -0.2958 C.ar    1  LIG1        0.0405
     13 C           0.2143    3.8579   -0.2398 C.ar    1  LIG1       -0.0304
     14 C          -1.0787    4.2751   -0.0190 C.ar    1  LIG1        0.0289
     15 S          -2.1397    2.8837    0.1591 S.2     1  LIG1       -0.0859
     16 C           1.6280    1.8305   -0.5527 C.1     1  LIG1       -0.0685
     17 C           2.7193    1.3543   -0.7725 C.1     1  LIG1       -0.1139
     18 H           3.6737    0.9262   -0.9755 H       1  LIG1        0.1232
     19 H           1.0393    4.5413   -0.3833 H       1  LIG1        0.0641
     20 C          -1.5932    5.6214    0.0789 C.ar    1  LIG1        0.0419
     21 C          -0.9111    6.8089    0.3582 C.ar    1  LIG1        0.0405
     22 C          -1.7693    7.9500    0.3812 C.ar    1  LIG1       -0.0304
     23 C          -3.0908    7.6661    0.1273 C.ar    1  LIG1        0.0289
     24 S          -3.2915    5.9478   -0.1838 S.2     1  LIG1       -0.0859
     25 C           0.4795    6.9099    0.6362 C.1     1  LIG1       -0.0685
     26 C           1.6585    7.0437    0.8778 C.1     1  LIG1       -0.1139
     27 H           2.6952    7.1509    1.0993 H       1  LIG1        0.1232
     28 H          -1.4110    8.9455    0.6028 H       1  LIG1        0.0641
     29 C          -4.2216    8.5691    0.0863 C.ar    1  LIG1        0.0413
     30 C          -4.2361    9.9481   -0.1288 C.ar    1  LIG1        0.0399
     31 C          -5.5637   10.4955   -0.0961 C.ar    1  LIG1       -0.0387
     32 C          -6.5277    9.5612    0.1321 C.ar    1  LIG1       -0.0225
     33 S          -5.8514    7.9780    0.3357 S.2     1  LIG1       -0.0949
     34 H          -7.5970    9.7028    0.1992 H       1  LIG1        0.0694
     35 C          -3.0929   10.7529   -0.3829 C.1     1  LIG1       -0.0685
     36 C          -2.1485   11.4787   -0.6026 C.1     1  LIG1       -0.1139
     37 H          -1.3118   12.1068   -0.8039 H       1  LIG1        0.1232
     38 H          -5.7628   11.5491   -0.2486 H       1  LIG1        0.0635
@<TRIPOS>BOND
     1    18    17    1
     2    37    36    1
     3    17    16    3
     4    36    35    3
     5    16    12    1
     6     5     1   ar
     7     5     4   ar
     8    19    13    1
     9    35    30    1
    10     6     1    1
    11    12    13   ar
    12    12    11   ar
    13     1     2   ar
    14    38    31    1
    15    13    14   ar
    16    24    20   ar
    17    24    23   ar
    18    30    31   ar
    19    30    29   ar
    20    11     4    1
    21    11    15   ar
    22     4     3   ar
    23    31    32   ar
    24    14    20    1
    25    14    15   ar
    26     2     3   ar
    27     2     7    1
    28    20    21   ar
    29    29    23    1
    30    29    33   ar
    31    23    22   ar
    32     3    10    1
    33    32    34    1
    34    32    33   ar
    35     7     8    3
    36    21    22   ar
    37    21    25    1
    38    22    28    1
    39     8     9    1
    40    25    26    3
    41    26    27    1
