@<TRIPOS>MOLECULE
mol_data/opt/b3lyp/geoms/mol2/5ea5ea5ea.out
 29 31 0 0 0
SMALL
GASTEIGER

@<TRIPOS>ATOM
      1 C          -2.1218   -1.9012    0.0952 C.ar    1  LIG1       -0.0083
      2 C          -0.7663   -1.9235   -0.1613 C.ar    1  LIG1        0.0323
      3 C          -0.1961   -0.6088   -0.1746 C.ar    1  LIG1       -0.0310
      4 C          -1.1098    0.3905    0.0721 C.ar    1  LIG1        0.0283
      5 S          -2.7093   -0.2988    0.3374 S.2     1  LIG1       -0.0949
      6 H          -2.7921   -2.7462    0.1577 H       1  LIG1        0.0706
      7 C          -0.0222   -3.1150   -0.3962 C.1     1  LIG1       -0.0691
      8 C           0.6174   -4.1222   -0.5965 C.1     1  LIG1       -0.1139
      9 H           1.1776   -5.0109   -0.7737 H       1  LIG1        0.1232
     10 H           0.8493   -0.4187   -0.3731 H       1  LIG1        0.0641
     11 C          -0.8925    1.8208    0.1321 C.ar    1  LIG1        0.0419
     12 C           0.2877    2.5223    0.3843 C.ar    1  LIG1        0.0405
     13 C           0.1052    3.9396    0.3732 C.ar    1  LIG1       -0.0304
     14 C          -1.1856    4.3382    0.1182 C.ar    1  LIG1        0.0289
     15 S          -2.2095    2.9351   -0.1515 S.2     1  LIG1       -0.0859
     16 C           1.5487    1.9289    0.6673 C.1     1  LIG1       -0.0685
     17 C           2.6411    1.4670    0.9109 C.1     1  LIG1       -0.1139
     18 H           3.5961    1.0506    1.1343 H       1  LIG1        0.1232
     19 H           0.9098    4.6335    0.5722 H       1  LIG1        0.0641
     20 C          -1.7238    5.6806    0.0480 C.ar    1  LIG1        0.0413
     21 C          -1.0586    6.8804   -0.2077 C.ar    1  LIG1        0.0399
     22 C          -1.9424    8.0129   -0.1933 C.ar    1  LIG1       -0.0387
     23 C          -3.2390    7.6830    0.0606 C.ar    1  LIG1       -0.0225
     24 S          -3.4294    5.9780    0.3118 S.2     1  LIG1       -0.0949
     25 H          -4.0981    8.3358    0.1214 H       1  LIG1        0.0694
     26 C           0.3295    7.0084   -0.4837 C.1     1  LIG1       -0.0685
     27 C           1.5060    7.1670   -0.7234 C.1     1  LIG1       -0.1139
     28 H           2.5410    7.2939   -0.9419 H       1  LIG1        0.1232
     29 H          -1.5974    9.0229   -0.3771 H       1  LIG1        0.0635
@<TRIPOS>BOND
     1    28    27    1
     2     9     8    1
     3    27    26    3
     4     8     7    3
     5    26    21    1
     6     7     2    1
     7    29    22    1
     8    10     3    1
     9    21    22   ar
    10    21    20   ar
    11    22    23   ar
    12     3     2   ar
    13     3     4   ar
    14     2     1   ar
    15    15    14   ar
    16    15    11   ar
    17    20    14    1
    18    20    24   ar
    19    23    25    1
    20    23    24   ar
    21     4    11    1
    22     4     5   ar
    23     1     6    1
    24     1     5   ar
    25    14    13   ar
    26    11    12   ar
    27    13    12   ar
    28    13    19    1
    29    12    16    1
    30    16    17    3
    31    17    18    1
