@<TRIPOS>MOLECULE
mol_data/opt/b3lyp/geoms/mol2/5ea5ea-5ea-5ea.out
 38 41 0 0 0
SMALL
GASTEIGER

@<TRIPOS>ATOM
      1 C          -2.1262   -1.9405   -0.2705 C.ar    1  LIG1       -0.0083
      2 C          -0.7782   -1.9987    0.0184 C.ar    1  LIG1        0.0323
      3 C          -0.1847   -0.6969    0.0974 C.ar    1  LIG1       -0.0310
      4 C          -1.0738    0.3287   -0.1324 C.ar    1  LIG1        0.0283
      5 S          -2.6782   -0.3192   -0.4642 S.2     1  LIG1       -0.0949
      6 H          -2.8098   -2.7694   -0.3831 H       1  LIG1        0.0706
      7 C          -0.0622   -3.2126    0.2246 C.1     1  LIG1       -0.0691
      8 C           0.5535   -4.2391    0.4008 C.1     1  LIG1       -0.1139
      9 H           1.0925   -5.1446    0.5567 H       1  LIG1        0.1232
     10 H           0.8584   -0.5349    0.3295 H       1  LIG1        0.0641
     11 C          -0.8300    1.7555   -0.1290 C.ar    1  LIG1        0.0419
     12 C           0.3697    2.4448   -0.3195 C.ar    1  LIG1        0.0405
     13 C           0.2130    3.8624   -0.2549 C.ar    1  LIG1       -0.0304
     14 C          -1.0786    4.2759   -0.0192 C.ar    1  LIG1        0.0289
     15 S          -2.1350    2.8816    0.1623 S.2     1  LIG1       -0.0859
     16 C           1.6274    1.8393   -0.5919 C.1     1  LIG1       -0.0685
     17 C           2.7174    1.3665   -0.8249 C.1     1  LIG1       -0.1139
     18 H           3.6705    0.9413   -1.0395 H       1  LIG1        0.1232
     19 H           1.0352    4.5481   -0.4030 H       1  LIG1        0.0641
     20 C          -1.5946    5.6207    0.0907 C.ar    1  LIG1        0.0419
     21 C          -0.9121    6.8081    0.3691 C.ar    1  LIG1        0.0405
     22 C          -1.7723    7.9474    0.4064 C.ar    1  LIG1       -0.0304
     23 C          -3.0957    7.6622    0.1644 C.ar    1  LIG1        0.0289
     24 S          -3.2961    5.9451   -0.1534 S.2     1  LIG1       -0.0859
     25 C           0.4811    6.9106    0.6336 C.1     1  LIG1       -0.0685
     26 C           1.6622    7.0455    0.8641 C.1     1  LIG1       -0.1139
     27 H           2.7009    7.1536    1.0756 H       1  LIG1        0.1232
     28 H          -1.4137    8.9425    0.6294 H       1  LIG1        0.0641
     29 C          -4.2286    8.5631    0.1395 C.ar    1  LIG1        0.0413
     30 C          -4.2480    9.9431   -0.0684 C.ar    1  LIG1        0.0399
     31 C          -5.5763   10.4877   -0.0197 C.ar    1  LIG1       -0.0387
     32 C          -6.5361    9.5502    0.2135 C.ar    1  LIG1       -0.0225
     33 S          -5.8546    7.9674    0.4021 S.2     1  LIG1       -0.0949
     34 H          -7.6049    9.6893    0.2920 H       1  LIG1        0.0694
     35 C          -3.1090   10.7516   -0.3298 C.1     1  LIG1       -0.0685
     36 C          -2.1684   11.4804   -0.5553 C.1     1  LIG1       -0.1139
     37 H          -1.3350   12.1113   -0.7617 H       1  LIG1        0.1232
     38 H          -5.7791   11.5416   -0.1648 H       1  LIG1        0.0635
@<TRIPOS>BOND
     1    18    17    1
     2    17    16    3
     3    37    36    1
     4    16    12    1
     5    36    35    3
     6     5     1   ar
     7     5     4   ar
     8    19    13    1
     9     6     1    1
    10    35    30    1
    11    12    13   ar
    12    12    11   ar
    13     1     2   ar
    14    13    14   ar
    15    38    31    1
    16    24    20   ar
    17    24    23   ar
    18     4    11    1
    19     4     3   ar
    20    11    15   ar
    21    30    31   ar
    22    30    29   ar
    23    31    32   ar
    24    14    20    1
    25    14    15   ar
    26     2     3   ar
    27     2     7    1
    28    20    21   ar
    29     3    10    1
    30    29    23    1
    31    29    33   ar
    32    23    22   ar
    33    32    34    1
    34    32    33   ar
    35     7     8    3
    36    21    22   ar
    37    21    25    1
    38     8     9    1
    39    22    28    1
    40    25    26    3
    41    26    27    1
