@<TRIPOS>MOLECULE
mol_data/opt/b3lyp/geoms/mol2/5ea5ea-5ea-.out
 29 31 0 0 0
SMALL
GASTEIGER

@<TRIPOS>ATOM
      1 C          -2.0811   -1.9070   -0.2847 C.ar    1  LIG1       -0.0083
      2 C          -0.7383   -1.9277    0.0324 C.ar    1  LIG1        0.0323
      3 C          -0.1792   -0.6103    0.1069 C.ar    1  LIG1       -0.0310
      4 C          -1.0883    0.3895   -0.1542 C.ar    1  LIG1        0.0283
      5 S          -2.6690   -0.3024   -0.5103 S.2     1  LIG1       -0.0949
      6 H          -2.7414   -2.7542   -0.4001 H       1  LIG1        0.0706
      7 C           0.0033   -3.1205    0.2688 C.1     1  LIG1       -0.0691
      8 C           0.6407   -4.1287    0.4709 C.1     1  LIG1       -0.1139
      9 H           1.1988   -5.0183    0.6495 H       1  LIG1        0.1232
     10 H           0.8546   -0.4191    0.3576 H       1  LIG1        0.0641
     11 C          -0.8795    1.8223   -0.1660 C.ar    1  LIG1        0.0419
     12 C           0.3057    2.5380   -0.3452 C.ar    1  LIG1        0.0405
     13 C           0.1121    3.9532   -0.3046 C.ar    1  LIG1       -0.0304
     14 C          -1.1920    4.3365   -0.0982 C.ar    1  LIG1        0.0289
     15 S          -2.2164    2.9202    0.0870 S.2     1  LIG1       -0.0859
     16 C           1.5827    1.9605   -0.5862 C.1     1  LIG1       -0.0685
     17 C           2.6886    1.5124   -0.7920 C.1     1  LIG1       -0.1139
     18 H           3.6559    1.1085   -0.9826 H       1  LIG1        0.1232
     19 H           0.9195    4.6574   -0.4480 H       1  LIG1        0.0641
     20 C          -1.7430    5.6731   -0.0168 C.ar    1  LIG1        0.0413
     21 C          -1.0993    6.8699    0.3006 C.ar    1  LIG1        0.0399
     22 C          -1.9903    7.9966    0.2764 C.ar    1  LIG1       -0.0387
     23 C          -3.2715    7.6653   -0.0446 C.ar    1  LIG1       -0.0225
     24 S          -3.4373    5.9665   -0.3494 S.2     1  LIG1       -0.0949
     25 H          -4.1319    8.3139   -0.1269 H       1  LIG1        0.0694
     26 C           0.2739    6.9994    0.6424 C.1     1  LIG1       -0.0685
     27 C           1.4372    7.1590    0.9391 C.1     1  LIG1       -0.1139
     28 H           2.4604    7.2866    1.2075 H       1  LIG1        0.1232
     29 H          -1.6617    9.0034    0.5024 H       1  LIG1        0.0635
@<TRIPOS>BOND
     1    18    17    1
     2    17    16    3
     3    16    12    1
     4     5     1   ar
     5     5     4   ar
     6    19    13    1
     7     6     1    1
     8    24    23   ar
     9    24    20   ar
    10    12    13   ar
    11    12    11   ar
    12    13    14   ar
    13     1     2   ar
    14    11     4    1
    15    11    15   ar
    16     4     3   ar
    17    25    23    1
    18    14    20    1
    19    14    15   ar
    20    23    22   ar
    21    20    21   ar
    22     2     3   ar
    23     2     7    1
    24     3    10    1
    25     7     8    3
    26    22    21   ar
    27    22    29    1
    28    21    26    1
    29     8     9    1
    30    26    27    3
    31    27    28    1
