@<TRIPOS>MOLECULE
mol_data/opt/b3lyp/geoms/mol2/5ed.out
 12 12 0 0 0
SMALL
GASTEIGER

@<TRIPOS>ATOM
      1 C          -2.1161   -1.7071    0.0001 C.ar    1  LIG1       -0.0077
      2 C          -0.7409   -1.7040   -0.0003 C.ar    1  LIG1        0.0490
      3 C          -0.2179   -0.3506   -0.0001 C.ar    1  LIG1        0.0741
      4 C          -1.2083    0.6016    0.0003 C.ar    1  LIG1       -0.0057
      5 S          -2.7782   -0.1103    0.0006 S.2     1  LIG1       -0.1025
      6 H          -2.7646   -2.5709    0.0002 H       1  LIG1        0.0706
      7 H          -1.0848    1.6748    0.0004 H       1  LIG1        0.0707
      8 C           0.0685   -2.8720   -0.0008 C.1     1  LIG1       -0.0678
      9 C           0.7656   -3.8598   -0.0011 C.1     1  LIG1       -0.1139
     10 H           1.3876   -4.7251   -0.0010 H       1  LIG1        0.1232
     11 N           2.3050    0.2321   -0.0007 N.1     1  LIG1       -0.1908
     12 C           1.1726   -0.0338   -0.0004 C.1     1  LIG1        0.1009
@<TRIPOS>BOND
     1     9    10    1
     2     9     8    3
     3     8     2    1
     4    11    12    3
     5    12     3    1
     6     2     3   ar
     7     2     1   ar
     8     3     4   ar
     9     1     6    1
    10     1     5   ar
    11     4     7    1
    12     4     5   ar
