@<TRIPOS>MOLECULE
mol_data/opt/b3lyp/geoms/mol2/5ed5ed5ed-5ed-.out
 42 45 0 0 0
SMALL
GASTEIGER

@<TRIPOS>ATOM
      1 C          -1.9722   -1.9193   -0.3957 C.ar    1  LIG1       -0.0070
      2 C          -0.7195   -1.9478    0.1708 C.ar    1  LIG1        0.0496
      3 C          -0.1535   -0.6197    0.2822 C.ar    1  LIG1        0.0824
      4 C          -0.9842    0.3724   -0.2152 C.ar    1  LIG1        0.0457
      5 S          -2.4724   -0.3239   -0.8142 S.2     1  LIG1       -0.0935
      6 H          -2.6174   -2.7644   -0.5872 H       1  LIG1        0.0706
      7 C          -0.0639   -3.1291    0.6106 C.1     1  LIG1       -0.0678
      8 C           0.5000   -4.1302    0.9864 C.1     1  LIG1       -0.1139
      9 H           1.0042   -5.0074    1.3217 H       1  LIG1        0.1232
     10 N           2.1130   -0.1950    1.4555 N.1     1  LIG1       -0.1908
     11 C           1.0985   -0.3741    0.9152 C.1     1  LIG1        0.1015
     12 C          -0.7627    1.8071   -0.2774 C.ar    1  LIG1        0.0444
     13 C           0.3399    2.4954   -0.7650 C.ar    1  LIG1        0.0579
     14 C           0.1698    3.9275   -0.6779 C.ar    1  LIG1        0.0830
     15 C          -1.0443    4.3112   -0.1301 C.ar    1  LIG1        0.0463
     16 S          -1.9920    2.9095    0.2951 S.2     1  LIG1       -0.0846
     17 C           1.4792    1.8925   -1.3547 C.1     1  LIG1       -0.0672
     18 C           2.4576    1.4046   -1.8704 C.1     1  LIG1       -0.1138
     19 H           3.3276    0.9717   -2.3088 H       1  LIG1        0.1232
     20 N           1.9128    5.5647   -1.6663 N.1     1  LIG1       -0.1908
     21 C           1.1299    4.8377   -1.2066 C.1     1  LIG1        0.1016
     22 C          -1.5610    5.6466    0.1087 C.ar    1  LIG1        0.0444
     23 C          -0.9390    6.7175    0.7371 C.ar    1  LIG1        0.0579
     24 C          -1.7986    7.8761    0.8132 C.ar    1  LIG1        0.0830
     25 C          -3.0494    7.6796    0.2497 C.ar    1  LIG1        0.0463
     26 S          -3.1825    6.0640   -0.3937 S.2     1  LIG1       -0.0846
     27 C           0.3541    6.6807    1.3158 C.1     1  LIG1       -0.0672
     28 C           1.4502    6.6695    1.8255 C.1     1  LIG1       -0.1138
     29 H           2.4238    6.6600    2.2600 H       1  LIG1        0.1232
     30 N          -1.0851   10.0153    2.0823 N.1     1  LIG1       -0.1908
     31 C          -1.4102    9.0637    1.4979 C.1     1  LIG1        0.1016
     32 C          -4.1626    8.6065    0.1409 C.ar    1  LIG1        0.0438
     33 C          -4.1583    9.9140   -0.3278 C.ar    1  LIG1        0.0573
     34 C          -5.4827   10.4969   -0.2946 C.ar    1  LIG1        0.0747
     35 C          -6.4407    9.6320    0.1748 C.ar    1  LIG1       -0.0051
     36 S          -5.7774    8.1052    0.6027 S.2     1  LIG1       -0.0935
     37 H          -7.4968    9.8287    0.2926 H       1  LIG1        0.0707
     38 C          -3.0253   10.5965   -0.8357 C.1     1  LIG1       -0.0672
     39 C          -2.0761   11.1969   -1.2831 C.1     1  LIG1       -0.1138
     40 H          -1.2322   11.7281   -1.6606 H       1  LIG1        0.1232
     41 N          -6.0253   12.9057   -1.0743 N.1     1  LIG1       -0.1908
     42 C          -5.7740   11.8257   -0.7239 C.1     1  LIG1        0.1009
@<TRIPOS>BOND
     1    19    18    1
     2    18    17    3
     3    20    21    3
     4    40    39    1
     5    17    13    1
     6    39    38    3
     7    21    14    1
     8    41    42    3
     9    38    33    1
    10     5     1   ar
    11     5     4   ar
    12    13    14   ar
    13    13    12   ar
    14    42    34    1
    15    14    15   ar
    16     6     1    1
    17     1     2   ar
    18    26    22   ar
    19    26    25   ar
    20    33    34   ar
    21    33    32   ar
    22    34    35   ar
    23    12     4    1
    24    12    16   ar
    25     4     3   ar
    26    15    22    1
    27    15    16   ar
    28    22    23   ar
    29    32    25    1
    30    32    36   ar
    31     2     3   ar
    32     2     7    1
    33    35    37    1
    34    35    36   ar
    35    25    24   ar
    36     3    11    1
    37     7     8    3
    38    23    24   ar
    39    23    27    1
    40    24    31    1
    41    11    10    3
    42     8     9    1
    43    27    28    3
    44    31    30    3
    45    28    29    1
