@<TRIPOS>MOLECULE
mol_data/opt/b3lyp/geoms/mol2/5ed5ed-5ed5ed-.out
 42 45 0 0 0
SMALL
GASTEIGER

@<TRIPOS>ATOM
      1 C          -1.0970   -1.7982    1.6892 C.ar    1  LIG1       -0.0070
      2 C          -0.6410   -1.9158    0.3972 C.ar    1  LIG1        0.0496
      3 C          -0.3827   -0.6210   -0.1974 C.ar    1  LIG1        0.0824
      4 C          -0.6361    0.4362    0.6622 C.ar    1  LIG1        0.0457
      5 S          -1.2022   -0.1576    2.2063 S.2     1  LIG1       -0.0935
      6 H          -1.3707   -2.6025    2.3565 H       1  LIG1        0.0706
      7 C          -0.4602   -3.1508   -0.2815 C.1     1  LIG1       -0.0678
      8 C          -0.3035   -4.1979   -0.8651 C.1     1  LIG1       -0.1139
      9 H          -0.1636   -5.1162   -1.3879 H       1  LIG1        0.1232
     10 N           0.3227   -0.3708   -2.6741 N.1     1  LIG1       -0.1908
     11 C           0.0175   -0.4707   -1.5562 C.1     1  LIG1        0.1015
     12 C          -0.4921    1.8635    0.4259 C.ar    1  LIG1        0.0444
     13 C           0.6035    2.5528   -0.0747 C.ar    1  LIG1        0.0579
     14 C           0.3601    3.9747   -0.1596 C.ar    1  LIG1        0.0830
     15 C          -0.8913    4.3526    0.3004 C.ar    1  LIG1        0.0463
     16 S          -1.7993    2.9556    0.8176 S.2     1  LIG1       -0.0846
     17 C           1.8408    1.9625   -0.4355 C.1     1  LIG1       -0.0672
     18 C           2.9090    1.4861   -0.7411 C.1     1  LIG1       -0.1138
     19 H           3.8435    1.0619   -1.0296 H       1  LIG1        0.1232
     20 N           2.0924    5.5940   -1.1951 N.1     1  LIG1       -0.1908
     21 C           1.3114    4.8757   -0.7189 C.1     1  LIG1        0.1016
     22 C          -1.4769    5.6800    0.3760 C.ar    1  LIG1        0.0444
     23 C          -0.9373    6.8349    0.9257 C.ar    1  LIG1        0.0579
     24 C          -1.8459    7.9546    0.8375 C.ar    1  LIG1        0.0830
     25 C          -3.0518    7.6459    0.2282 C.ar    1  LIG1        0.0463
     26 S          -3.0806    5.9707   -0.2555 S.2     1  LIG1       -0.0846
     27 C           0.3206    6.9169    1.5740 C.1     1  LIG1       -0.0672
     28 C           1.3844    7.0119    2.1402 C.1     1  LIG1       -0.1138
     29 H           2.3311    7.0992    2.6226 H       1  LIG1        0.1232
     30 N          -1.2952   10.2373    1.9245 N.1     1  LIG1       -0.1908
     31 C          -1.5471    9.2201    1.4201 C.1     1  LIG1        0.1016
     32 C          -4.1927    8.5062   -0.0338 C.ar    1  LIG1        0.0438
     33 C          -4.2120    9.7597   -0.6316 C.ar    1  LIG1        0.0573
     34 C          -5.5575   10.2847   -0.7262 C.ar    1  LIG1        0.0747
     35 C          -6.5064    9.4295   -0.2221 C.ar    1  LIG1       -0.0051
     36 S          -5.8104    7.9827    0.3915 S.2     1  LIG1       -0.0935
     37 H          -7.5742    9.5904   -0.1802 H       1  LIG1        0.0707
     38 C          -3.0789   10.4372   -1.1459 C.1     1  LIG1       -0.0672
     39 C          -2.1292   11.0306   -1.6014 C.1     1  LIG1       -0.1138
     40 H          -1.2862   11.5573   -1.9871 H       1  LIG1        0.1232
     41 N          -6.1469   12.5793   -1.7711 N.1     1  LIG1       -0.1908
     42 C          -5.8747   11.5508   -1.3017 C.1     1  LIG1        0.1009
@<TRIPOS>BOND
     1    10    11    3
     2    40    39    1
     3    41    42    3
     4    39    38    3
     5    11     3    1
     6     9     8    1
     7    42    34    1
     8    20    21    3
     9    38    33    1
    10    19    18    1
    11     8     7    3
    12    18    17    3
    13    34    33   ar
    14    34    35   ar
    15    21    14    1
    16    33    32   ar
    17    17    13    1
    18     7     2    1
    19    26    25   ar
    20    26    22   ar
    21    35    37    1
    22    35    36   ar
    23     3     2   ar
    24     3     4   ar
    25    14    13   ar
    26    14    15   ar
    27    13    12   ar
    28    32    25    1
    29    32    36   ar
    30    25    24   ar
    31    15    22    1
    32    15    16   ar
    33    22    23   ar
    34     2     1   ar
    35    12     4    1
    36    12    16   ar
    37     4     5   ar
    38    24    23   ar
    39    24    31    1
    40    23    27    1
    41    31    30    3
    42    27    28    3
    43     1     5   ar
    44     1     6    1
    45    28    29    1
