@<TRIPOS>MOLECULE
mol_data/opt/b3lyp/geoms/mol2/5ed5ed5ed.out
 32 34 0 0 0
SMALL
GASTEIGER

@<TRIPOS>ATOM
      1 C          -1.9037   -1.8989   -0.5384 C.ar    1  LIG1       -0.0070
      2 C          -0.7493   -1.8848    0.2084 C.ar    1  LIG1        0.0496
      3 C          -0.2154   -0.5453    0.3413 C.ar    1  LIG1        0.0824
      4 C          -0.9698    0.4122   -0.3187 C.ar    1  LIG1        0.0457
      5 S          -2.3473   -0.3306   -1.0991 S.2     1  LIG1       -0.0935
      6 H          -2.5074   -2.7605   -0.7840 H       1  LIG1        0.0706
      7 C          -0.1582   -3.0362    0.7947 C.1     1  LIG1       -0.0678
      8 C           0.3505   -4.0116    1.2960 C.1     1  LIG1       -0.1139
      9 H           0.8054   -4.8658    1.7427 H       1  LIG1        0.1232
     10 N           1.8512   -0.0389    1.8134 N.1     1  LIG1       -0.1908
     11 C           0.9282   -0.2549    1.1391 C.1     1  LIG1        0.1015
     12 C          -0.7505    1.8454   -0.4159 C.ar    1  LIG1        0.0444
     13 C           0.4062    2.5241   -0.7738 C.ar    1  LIG1        0.0579
     14 C           0.2162    3.9565   -0.7828 C.ar    1  LIG1        0.0830
     15 C          -1.0661    4.3498   -0.4347 C.ar    1  LIG1        0.0463
     16 S          -2.0554    2.9581   -0.0793 S.2     1  LIG1       -0.0846
     17 C           1.6224    1.9087   -1.1635 C.1     1  LIG1       -0.0672
     18 C           2.6678    1.4092   -1.5084 C.1     1  LIG1       -0.1138
     19 H           3.5946    0.9674   -1.7952 H       1  LIG1        0.1232
     20 N           2.0745    5.5684   -1.5856 N.1     1  LIG1       -0.1908
     21 C           1.2372    4.8538   -1.2099 C.1     1  LIG1        0.1016
     22 C          -1.6191    5.6897   -0.3365 C.ar    1  LIG1        0.0438
     23 C          -1.1033    6.7922    0.3322 C.ar    1  LIG1        0.0573
     24 C          -1.9679    7.9461    0.2048 C.ar    1  LIG1        0.0747
     25 C          -3.1004    7.6928   -0.5295 C.ar    1  LIG1       -0.0051
     26 S          -3.1507    6.0715   -1.0984 S.2     1  LIG1       -0.0935
     27 H          -3.8959    8.3858   -0.7629 H       1  LIG1        0.0707
     28 C           0.0884    6.7988    1.0986 C.1     1  LIG1       -0.0672
     29 C           1.0957    6.8270    1.7665 C.1     1  LIG1       -0.1138
     30 H           1.9940    6.8512    2.3403 H       1  LIG1        0.1232
     31 N          -1.4748   10.2511    1.2764 N.1     1  LIG1       -0.1908
     32 C          -1.6888    9.2138    0.7963 C.1     1  LIG1        0.1009
@<TRIPOS>BOND
     1    19    18    1
     2    20    21    3
     3    18    17    3
     4    21    14    1
     5    17    13    1
     6     5     1   ar
     7     5     4   ar
     8    26    25   ar
     9    26    22   ar
    10     6     1    1
    11    14    13   ar
    12    14    15   ar
    13    13    12   ar
    14    27    25    1
    15     1     2   ar
    16    25    24   ar
    17    15    22    1
    18    15    16   ar
    19    12     4    1
    20    12    16   ar
    21    22    23   ar
    22     4     3   ar
    23    24    23   ar
    24    24    32    1
    25     2     3   ar
    26     2     7    1
    27    23    28    1
    28     3    11    1
    29     7     8    3
    30    32    31    3
    31    28    29    3
    32    11    10    3
    33     8     9    1
    34    29    30    1
