@<TRIPOS>MOLECULE
mol_data/opt/b3lyp/geoms/mol2/5ed5ed-.out
 22 23 0 0 0
SMALL
GASTEIGER

@<TRIPOS>ATOM
      1 C          -1.9059   -1.7645    0.8422 C.ar    1  LIG1       -0.0070
      2 C          -0.7290   -1.8739    0.1399 C.ar    1  LIG1        0.0496
      3 C          -0.2352   -0.5785   -0.2797 C.ar    1  LIG1        0.0824
      4 C          -1.0415    0.4725    0.1268 C.ar    1  LIG1        0.0457
      5 S          -2.4172   -0.1283    1.0227 S.2     1  LIG1       -0.0935
      6 H          -2.4892   -2.5718    1.2609 H       1  LIG1        0.0706
      7 C          -0.0820   -3.1039   -0.1556 C.1     1  LIG1       -0.0678
      8 C           0.4738   -4.1469   -0.4102 C.1     1  LIG1       -0.1139
      9 H           0.9703   -5.0615   -0.6402 H       1  LIG1        0.1232
     10 N           1.8650   -0.3365   -1.7717 N.1     1  LIG1       -0.1908
     11 C           0.9260   -0.4303   -1.0915 C.1     1  LIG1        0.1015
     12 C          -0.8707    1.8995   -0.0968 C.ar    1  LIG1        0.0438
     13 C           0.2477    2.6862    0.1419 C.ar    1  LIG1        0.0573
     14 C           0.0099    4.0727   -0.2000 C.ar    1  LIG1        0.0747
     15 C          -1.2607    4.3017   -0.6680 C.ar    1  LIG1       -0.0051
     16 S          -2.1947    2.8597   -0.7255 S.2     1  LIG1       -0.0935
     17 H          -1.6802    5.2464   -0.9832 H       1  LIG1        0.0707
     18 C           1.4666    2.2259    0.7004 C.1     1  LIG1       -0.0672
     19 C           2.5139    1.8630    1.1833 C.1     1  LIG1       -0.1138
     20 H           3.4431    1.5373    1.5916 H       1  LIG1        0.1232
     21 N           1.7668    5.9548    0.0747 N.1     1  LIG1       -0.1908
     22 C           0.9834    5.1042   -0.0483 C.1     1  LIG1        0.1009
@<TRIPOS>BOND
     1    10    11    3
     2    11     3    1
     3    17    15    1
     4    16    15   ar
     5    16    12   ar
     6    15    14   ar
     7     9     8    1
     8     8     7    3
     9     3     4   ar
    10     3     2   ar
    11    14    22    1
    12    14    13   ar
    13     7     2    1
    14    12     4    1
    15    12    13   ar
    16    22    21    3
    17     4     5   ar
    18     2     1   ar
    19    13    18    1
    20    18    19    3
    21     1     5   ar
    22     1     6    1
    23    19    20    1
