@<TRIPOS>MOLECULE
mol_data/opt/b3lyp/geoms/mol2/5ed5ed-5ed.out
 32 34 0 0 0
SMALL
GASTEIGER

@<TRIPOS>ATOM
      1 C          -1.9126   -1.8977   -0.5199 C.ar    1  LIG1       -0.0070
      2 C          -0.7520   -1.8844    0.2173 C.ar    1  LIG1        0.0496
      3 C          -0.2158   -0.5452    0.3452 C.ar    1  LIG1        0.0824
      4 C          -0.9748    0.4127   -0.3089 C.ar    1  LIG1        0.0457
      5 S          -2.3594   -0.3292   -1.0776 S.2     1  LIG1       -0.0935
      6 H          -2.5192   -2.7588   -0.7602 H       1  LIG1        0.0706
      7 C          -0.1571   -3.0361    0.7991 C.1     1  LIG1       -0.0678
      8 C           0.3547   -4.0118    1.2965 C.1     1  LIG1       -0.1139
      9 H           0.8125   -4.8662    1.7398 H       1  LIG1        0.1232
     10 N           1.8631   -0.0404    1.8004 N.1     1  LIG1       -0.1908
     11 C           0.9344   -0.2557    1.1337 C.1     1  LIG1        0.1015
     12 C          -0.7550    1.8456   -0.4083 C.ar    1  LIG1        0.0444
     13 C           0.3995    2.5230   -0.7757 C.ar    1  LIG1        0.0579
     14 C           0.2107    3.9556   -0.7838 C.ar    1  LIG1        0.0830
     15 C          -1.0684    4.3502   -0.4258 C.ar    1  LIG1        0.0463
     16 S          -2.0563    2.9597   -0.0621 S.2     1  LIG1       -0.0846
     17 C           1.6119    1.9064   -1.1748 C.1     1  LIG1       -0.0672
     18 C           2.6541    1.4057   -1.5279 C.1     1  LIG1       -0.1138
     19 H           3.5782    0.9630   -1.8218 H       1  LIG1        0.1232
     20 N           2.0644    5.5653   -1.6014 N.1     1  LIG1       -0.1908
     21 C           1.2293    4.8517   -1.2190 C.1     1  LIG1        0.1016
     22 C          -1.6194    5.6908   -0.3240 C.ar    1  LIG1        0.0438
     23 C          -1.0972    6.7931    0.3399 C.ar    1  LIG1        0.0573
     24 C          -1.9614    7.9479    0.2187 C.ar    1  LIG1        0.0747
     25 C          -3.0999    7.6953   -0.5066 C.ar    1  LIG1       -0.0051
     26 S          -3.1565    6.0738   -1.0742 S.2     1  LIG1       -0.0935
     27 H          -3.8965    8.3891   -0.7342 H       1  LIG1        0.0707
     28 C           0.1006    6.7988    1.0970 C.1     1  LIG1       -0.0672
     29 C           1.1132    6.8263    1.7569 C.1     1  LIG1       -0.1138
     30 H           2.0159    6.8499    2.3236 H       1  LIG1        0.1232
     31 N          -1.4575   10.2530    1.2851 N.1     1  LIG1       -0.1908
     32 C          -1.6764    9.2156    0.8073 C.1     1  LIG1        0.1009
@<TRIPOS>BOND
     1    19    18    1
     2    20    21    3
     3    18    17    3
     4    21    14    1
     5    17    13    1
     6     5     1   ar
     7     5     4   ar
     8    26    25   ar
     9    26    22   ar
    10    14    13   ar
    11    14    15   ar
    12    13    12   ar
    13     6     1    1
    14    27    25    1
    15     1     2   ar
    16    25    24   ar
    17    15    22    1
    18    15    16   ar
    19    12     4    1
    20    12    16   ar
    21    22    23   ar
    22     4     3   ar
    23     2     3   ar
    24     2     7    1
    25    24    23   ar
    26    24    32    1
    27    23    28    1
    28     3    11    1
    29     7     8    3
    30    32    31    3
    31    28    29    3
    32    11    10    3
    33     8     9    1
    34    29    30    1
