@<TRIPOS>MOLECULE
mol_data/opt/b3lyp/geoms/mol2/5ed5ed.out
 22 23 0 0 0
SMALL
GASTEIGER

@<TRIPOS>ATOM
      1 C          -1.9101   -1.7572    0.8651 C.ar    1  LIG1       -0.0070
      2 C          -0.7316   -1.8723    0.1664 C.ar    1  LIG1        0.0496
      3 C          -0.2359   -0.5802   -0.2609 C.ar    1  LIG1        0.0824
      4 C          -1.0422    0.4742    0.1364 C.ar    1  LIG1        0.0457
      5 S          -2.4206   -0.1194    1.0332 S.2     1  LIG1       -0.0935
      6 H          -2.4951   -2.5611    1.2878 H       1  LIG1        0.0706
      7 C          -0.0846   -3.1047   -0.1192 C.1     1  LIG1       -0.0678
      8 C           0.4712   -4.1498   -0.3649 C.1     1  LIG1       -0.1139
      9 H           0.9677   -5.0662   -0.5876 H       1  LIG1        0.1232
     10 N           1.8680   -0.3490   -1.7492 N.1     1  LIG1       -0.1908
     11 C           0.9273   -0.4382   -1.0709 C.1     1  LIG1        0.1015
     12 C          -0.8697    1.8994   -0.0962 C.ar    1  LIG1        0.0438
     13 C           0.2487    2.6867    0.1403 C.ar    1  LIG1        0.0573
     14 C           0.0129    4.0711   -0.2119 C.ar    1  LIG1        0.0747
     15 C          -1.2562    4.2979   -0.6850 C.ar    1  LIG1       -0.0051
     16 S          -2.1912    2.8561   -0.7352 S.2     1  LIG1       -0.0935
     17 H          -1.6741    5.2406   -1.0077 H       1  LIG1        0.0707
     18 C           1.4656    2.2294    0.7053 C.1     1  LIG1       -0.0672
     19 C           2.5113    1.8690    1.1932 C.1     1  LIG1       -0.1138
     20 H           3.4395    1.5454    1.6057 H       1  LIG1        0.1232
     21 N           1.7707    5.9536    0.0547 N.1     1  LIG1       -0.1908
     22 C           0.9869    5.1027   -0.0646 C.1     1  LIG1        0.1009
@<TRIPOS>BOND
     1    10    11    3
     2    11     3    1
     3    17    15    1
     4    16    15   ar
     5    16    12   ar
     6    15    14   ar
     7     9     8    1
     8     8     7    3
     9     3     4   ar
    10     3     2   ar
    11    14    22    1
    12    14    13   ar
    13     7     2    1
    14    12     4    1
    15    12    13   ar
    16    22    21    3
    17     4     5   ar
    18    13    18    1
    19     2     1   ar
    20    18    19    3
    21     1     5   ar
    22     1     6    1
    23    19    20    1
