@<TRIPOS>MOLECULE
mol_data/opt/b3lyp/geoms/mol2/5ed5ed-5ed-.out
 32 34 0 0 0
SMALL
GASTEIGER

@<TRIPOS>ATOM
      1 C          -1.8851   -1.9018   -0.5546 C.ar    1  LIG1       -0.0070
      2 C          -0.7220   -1.8886    0.1786 C.ar    1  LIG1        0.0496
      3 C          -0.1935   -0.5475    0.3177 C.ar    1  LIG1        0.0824
      4 C          -0.9606    0.4120   -0.3244 C.ar    1  LIG1        0.0457
      5 S          -2.3434   -0.3307   -1.0955 S.2     1  LIG1       -0.0935
      6 H          -2.4873   -2.7643   -0.8010 H       1  LIG1        0.0706
      7 C          -0.1182   -3.0423    0.7471 C.1     1  LIG1       -0.0678
      8 C           0.4012   -4.0197    1.2332 C.1     1  LIG1       -0.1139
      9 H           0.8655   -4.8757    1.6665 H       1  LIG1        0.1232
     10 N           1.8873   -0.0437    1.7705 N.1     1  LIG1       -0.1908
     11 C           0.9577   -0.2585    1.1050 C.1     1  LIG1        0.1015
     12 C          -0.7498    1.8473   -0.4107 C.ar    1  LIG1        0.0444
     13 C           0.3992    2.5353   -0.7754 C.ar    1  LIG1        0.0579
     14 C           0.2017    3.9667   -0.7686 C.ar    1  LIG1        0.0830
     15 C          -1.0785    4.3500   -0.4023 C.ar    1  LIG1        0.0463
     16 S          -2.0565    2.9498   -0.0488 S.2     1  LIG1       -0.0846
     17 C           1.6138    1.9299   -1.1850 C.1     1  LIG1       -0.0672
     18 C           2.6575    1.4388   -1.5468 C.1     1  LIG1       -0.1138
     19 H           3.5830    1.0042   -1.8484 H       1  LIG1        0.1232
     20 N           2.0427    5.5954   -1.5772 N.1     1  LIG1       -0.1908
     21 C           1.2133    4.8732   -1.1988 C.1     1  LIG1        0.1016
     22 C          -1.6373    5.6861   -0.2853 C.ar    1  LIG1        0.0438
     23 C          -1.1193    6.7853    0.3871 C.ar    1  LIG1        0.0573
     24 C          -1.9913    7.9356    0.2805 C.ar    1  LIG1        0.0747
     25 C          -3.1313    7.6828   -0.4425 C.ar    1  LIG1       -0.0051
     26 S          -3.1799    6.0665   -1.0254 S.2     1  LIG1       -0.0935
     27 H          -3.9332    8.3737   -0.6601 H       1  LIG1        0.0707
     28 C           0.0815    6.7914    1.1393 C.1     1  LIG1       -0.0672
     29 C           1.0966    6.8191    1.7953 C.1     1  LIG1       -0.1138
     30 H           2.0015    6.8428    2.3585 H       1  LIG1        0.1232
     31 N          -1.4978   10.2336    1.3668 N.1     1  LIG1       -0.1908
     32 C          -1.7120    9.1995    0.8800 C.1     1  LIG1        0.1009
@<TRIPOS>BOND
     1    19    18    1
     2    20    21    3
     3    18    17    3
     4    21    14    1
     5    17    13    1
     6     5     1   ar
     7     5     4   ar
     8    26    25   ar
     9    26    22   ar
    10     6     1    1
    11    13    14   ar
    12    13    12   ar
    13    14    15   ar
    14    27    25    1
    15     1     2   ar
    16    25    24   ar
    17    12     4    1
    18    12    16   ar
    19    15    22    1
    20    15    16   ar
    21     4     3   ar
    22    22    23   ar
    23     2     3   ar
    24     2     7    1
    25    24    23   ar
    26    24    32    1
    27     3    11    1
    28    23    28    1
    29     7     8    3
    30    32    31    3
    31    11    10    3
    32    28    29    3
    33     8     9    1
    34    29    30    1
