@<TRIPOS>MOLECULE
mol_data/opt/b3lyp/geoms/mol2/5ed5ed-5ed-5ed-.out
 42 45 0 0 0
SMALL
GASTEIGER

@<TRIPOS>ATOM
      1 C          -1.9838   -1.9197    0.3565 C.ar    1  LIG1       -0.0070
      2 C          -0.7126   -1.9478   -0.1669 C.ar    1  LIG1        0.0496
      3 C          -0.1434   -0.6195   -0.2586 C.ar    1  LIG1        0.0824
      4 C          -0.9908    0.3723    0.2105 C.ar    1  LIG1        0.0457
      5 S          -2.4984   -0.3245    0.7582 S.2     1  LIG1       -0.0935
      6 H          -2.6351   -2.7650    0.5256 H       1  LIG1        0.0706
      7 C          -0.0421   -3.1288   -0.5844 C.1     1  LIG1       -0.0678
      8 C           0.5345   -4.1296   -0.9411 C.1     1  LIG1       -0.1139
      9 H           1.0501   -5.0066   -1.2594 H       1  LIG1        0.1232
     10 N           2.1619   -0.1941   -1.3536 N.1     1  LIG1       -0.1908
     11 C           1.1295   -0.3735   -0.8484 C.1     1  LIG1        0.1015
     12 C          -0.7718    1.8070    0.2806 C.ar    1  LIG1        0.0444
     13 C           0.3132    2.4955    0.8058 C.ar    1  LIG1        0.0579
     14 C           0.1459    3.9275    0.7133 C.ar    1  LIG1        0.0830
     15 C          -1.0487    4.3111    0.1241 C.ar    1  LIG1        0.0463
     16 S          -1.9811    2.9092   -0.3336 S.2     1  LIG1       -0.0846
     17 C           1.4319    1.8927    1.4340 C.1     1  LIG1       -0.0672
     18 C           2.3922    1.4050    1.9827 C.1     1  LIG1       -0.1138
     19 H           3.2469    0.9723    2.4505 H       1  LIG1        0.1232
     20 N           1.8533    5.5651    1.7614 N.1     1  LIG1       -0.1908
     21 C           1.0869    4.8379    1.2749 C.1     1  LIG1        0.1016
     22 C          -1.5571    5.6465   -0.1319 C.ar    1  LIG1        0.0444
     23 C          -0.9138    6.7176   -0.7382 C.ar    1  LIG1        0.0579
     24 C          -1.7703    7.8762   -0.8436 C.ar    1  LIG1        0.0830
     25 C          -3.0397    7.6796   -0.3235 C.ar    1  LIG1        0.0463
     26 S          -3.1949    6.0638    0.3146 S.2     1  LIG1       -0.0846
     27 C           0.3983    6.6807   -1.2722 C.1     1  LIG1       -0.0672
     28 C           1.5112    6.6695   -1.7440 C.1     1  LIG1       -0.1138
     29 H           2.4992    6.6599   -2.1449 H       1  LIG1        0.1232
     30 N          -1.0132   10.0155   -2.0869 N.1     1  LIG1       -0.1908
     31 C          -1.3584    9.0639   -1.5141 C.1     1  LIG1        0.1016
     32 C          -4.1561    8.6064   -0.2528 C.ar    1  LIG1        0.0438
     33 C          -4.1681    9.9138    0.2159 C.ar    1  LIG1        0.0573
     34 C          -5.4907   10.4965    0.1373 C.ar    1  LIG1        0.0747
     35 C          -6.4319    9.6316   -0.3648 C.ar    1  LIG1       -0.0051
     36 S          -5.7541    8.1049   -0.7699 S.2     1  LIG1       -0.0935
     37 H          -7.4833    9.8282   -0.5187 H       1  LIG1        0.0707
     38 C          -3.0533   10.5965    0.7625 C.1     1  LIG1       -0.0672
     39 C          -2.1203   11.1972    1.2422 C.1     1  LIG1       -0.1138
     40 H          -1.2901   11.7286    1.6486 H       1  LIG1        0.1232
     41 N          -6.0601   12.9051    0.8982 N.1     1  LIG1       -0.1908
     42 C          -5.7968   11.8252    0.5565 C.1     1  LIG1        0.1009
@<TRIPOS>BOND
     1    29    28    1
     2    30    31    3
     3    28    27    3
     4    31    24    1
     5    10    11    3
     6    27    23    1
     7     9     8    1
     8     8     7    3
     9    11     3    1
    10    24    23   ar
    11    24    25   ar
    12    36    35   ar
    13    36    32   ar
    14    23    22   ar
    15     7     2    1
    16    37    35    1
    17    35    34   ar
    18    16    15   ar
    19    16    12   ar
    20    25    32    1
    21    25    26   ar
    22     3     2   ar
    23     3     4   ar
    24    32    33   ar
    25     2     1   ar
    26    22    15    1
    27    22    26   ar
    28    15    14   ar
    29    34    33   ar
    30    34    42    1
    31     4    12    1
    32     4     5   ar
    33    33    38    1
    34    12    13   ar
    35     1     6    1
    36     1     5   ar
    37    42    41    3
    38    14    13   ar
    39    14    21    1
    40    38    39    3
    41    13    17    1
    42    39    40    1
    43    21    20    3
    44    17    18    3
    45    18    19    1
