@<TRIPOS>MOLECULE
mol_data/opt/b3lyp/geoms/mol2/5ed5ed5ed-5ed.out
 42 45 0 0 0
SMALL
GASTEIGER

@<TRIPOS>ATOM
      1 C          -1.9691   -1.9187   -0.4039 C.ar    1  LIG1       -0.0070
      2 C          -0.7165   -1.9479    0.1625 C.ar    1  LIG1        0.0496
      3 C          -0.1510   -0.6198    0.2767 C.ar    1  LIG1        0.0824
      4 C          -0.9821    0.3731   -0.2187 C.ar    1  LIG1        0.0457
      5 S          -2.4700   -0.3227   -0.8192 S.2     1  LIG1       -0.0935
      6 H          -2.6141   -2.7637   -0.5970 H       1  LIG1        0.0706
      7 C          -0.0604   -3.1299    0.5999 C.1     1  LIG1       -0.0678
      8 C           0.5038   -4.1315    0.9737 C.1     1  LIG1       -0.1139
      9 H           1.0084   -5.0091    1.3073 H       1  LIG1        0.1232
     10 N           2.1155   -0.1967    1.4507 N.1     1  LIG1       -0.1908
     11 C           1.1010   -0.3751    0.9101 C.1     1  LIG1        0.1015
     12 C          -0.7612    1.8079   -0.2781 C.ar    1  LIG1        0.0444
     13 C           0.3409    2.4979   -0.7642 C.ar    1  LIG1        0.0579
     14 C           0.1701    3.9296   -0.6744 C.ar    1  LIG1        0.0830
     15 C          -1.0443    4.3115   -0.1257 C.ar    1  LIG1        0.0463
     16 S          -1.9912    2.9085    0.2968 S.2     1  LIG1       -0.0846
     17 C           1.4806    1.8968   -1.3552 C.1     1  LIG1       -0.0672
     18 C           2.4594    1.4106   -1.8719 C.1     1  LIG1       -0.1138
     19 H           3.3297    0.9792   -2.3111 H       1  LIG1        0.1232
     20 N           1.9118    5.5700   -1.6597 N.1     1  LIG1       -0.1908
     21 C           1.1295    4.8415   -1.2014 C.1     1  LIG1        0.1016
     22 C          -1.5616    5.6462    0.1157 C.ar    1  LIG1        0.0444
     23 C          -0.9400    6.7162    0.7461 C.ar    1  LIG1        0.0579
     24 C          -1.8001    7.8742    0.8247 C.ar    1  LIG1        0.0830
     25 C          -3.0509    7.6783    0.2609 C.ar    1  LIG1        0.0463
     26 S          -3.1833    6.0638   -0.3857 S.2     1  LIG1       -0.0846
     27 C           0.3531    6.6787    1.3247 C.1     1  LIG1       -0.0672
     28 C           1.4493    6.6668    1.8343 C.1     1  LIG1       -0.1138
     29 H           2.4228    6.6567    2.2689 H       1  LIG1        0.1232
     30 N          -1.0875   10.0112    2.0980 N.1     1  LIG1       -0.1908
     31 C          -1.4121    9.0607    1.5117 C.1     1  LIG1        0.1016
     32 C          -4.1645    8.6049    0.1542 C.ar    1  LIG1        0.0438
     33 C          -4.1609    9.9134   -0.3117 C.ar    1  LIG1        0.0573
     34 C          -5.4856   10.4956   -0.2772 C.ar    1  LIG1        0.0747
     35 C          -6.4431    9.6293    0.1904 C.ar    1  LIG1       -0.0051
     36 S          -5.7791    8.1019    0.6152 S.2     1  LIG1       -0.0935
     37 H          -7.4992    9.8253    0.3087 H       1  LIG1        0.0707
     38 C          -3.0282   10.5974   -0.8184 C.1     1  LIG1       -0.0672
     39 C          -2.0794   11.1992   -1.2646 C.1     1  LIG1       -0.1138
     40 H          -1.2358   11.7315   -1.6412 H       1  LIG1        0.1232
     41 N          -6.0294   12.9057   -1.0518 N.1     1  LIG1       -0.1908
     42 C          -5.7776   11.8251   -0.7036 C.1     1  LIG1        0.1009
@<TRIPOS>BOND
     1    19    18    1
     2    18    17    3
     3    20    21    3
     4    40    39    1
     5    17    13    1
     6    39    38    3
     7    21    14    1
     8    41    42    3
     9     5     1   ar
    10     5     4   ar
    11    38    33    1
    12    13    14   ar
    13    13    12   ar
    14    42    34    1
    15    14    15   ar
    16     6     1    1
    17     1     2   ar
    18    26    22   ar
    19    26    25   ar
    20    33    34   ar
    21    33    32   ar
    22    12     4    1
    23    12    16   ar
    24    34    35   ar
    25     4     3   ar
    26    15    22    1
    27    15    16   ar
    28    22    23   ar
    29    32    25    1
    30    32    36   ar
    31     2     3   ar
    32     2     7    1
    33    35    37    1
    34    35    36   ar
    35    25    24   ar
    36     3    11    1
    37     7     8    3
    38    23    24   ar
    39    23    27    1
    40    24    31    1
    41    11    10    3
    42     8     9    1
    43    27    28    3
    44    31    30    3
    45    28    29    1
