@<TRIPOS>MOLECULE
mol_data/opt/b3lyp/geoms/mol2/5ed5ed5ed5ed.out
 42 45 0 0 0
SMALL
GASTEIGER

@<TRIPOS>ATOM
      1 C          -1.9763   -1.9195   -0.3814 C.ar    1  LIG1       -0.0070
      2 C          -0.7153   -1.9479    0.1664 C.ar    1  LIG1        0.0496
      3 C          -0.1480   -0.6196    0.2697 C.ar    1  LIG1        0.0824
      4 C          -0.9863    0.3725   -0.2149 C.ar    1  LIG1        0.0457
      5 S          -2.4831   -0.3241   -0.7920 S.2     1  LIG1       -0.0935
      6 H          -2.6241   -2.7648   -0.5635 H       1  LIG1        0.0706
      7 C          -0.0529   -3.1291    0.5960 C.1     1  LIG1       -0.0678
      8 C           0.5168   -4.1301    0.9631 C.1     1  LIG1       -0.1139
      9 H           1.0262   -5.0073    1.2906 H       1  LIG1        0.1232
     10 N           2.1357   -0.1950    1.4092 N.1     1  LIG1       -0.1908
     11 C           1.1133   -0.3740    0.8840 C.1     1  LIG1        0.1015
     12 C          -0.7662    1.8072   -0.2798 C.ar    1  LIG1        0.0444
     13 C           0.3288    2.4961   -0.7835 C.ar    1  LIG1        0.0579
     14 C           0.1596    3.9281   -0.6933 C.ar    1  LIG1        0.0830
     15 C          -1.0463    4.3111   -0.1272 C.ar    1  LIG1        0.0463
     16 S          -1.9872    2.9089    0.3115 S.2     1  LIG1       -0.0846
     17 C           1.4594    1.8939   -1.3903 C.1     1  LIG1       -0.0672
     18 C           2.4303    1.4066   -1.9207 C.1     1  LIG1       -0.1138
     19 H           3.2939    0.9744   -2.3723 H       1  LIG1        0.1232
     20 N           1.8867    5.5665   -1.7072 N.1     1  LIG1       -0.1908
     21 C           1.1112    4.8389   -1.2360 C.1     1  LIG1        0.1016
     22 C          -1.5596    5.6464    0.1198 C.ar    1  LIG1        0.0444
     23 C          -0.9284    6.7171    0.7392 C.ar    1  LIG1        0.0579
     24 C          -1.7868    7.8756    0.8287 C.ar    1  LIG1        0.0830
     25 C          -3.0459    7.6793    0.2840 C.ar    1  LIG1        0.0463
     26 S          -3.1886    6.0638   -0.3580 S.2     1  LIG1       -0.0846
     27 C           0.3731    6.6800    1.2985 C.1     1  LIG1       -0.0672
     28 C           1.4768    6.6685    1.7918 C.1     1  LIG1       -0.1138
     29 H           2.4567    6.6586    2.2118 H       1  LIG1        0.1232
     30 N          -1.0540   10.0142    2.0877 N.1     1  LIG1       -0.1908
     31 C          -1.3880    9.0630    1.5079 C.1     1  LIG1        0.1016
     32 C          -4.1608    8.6061    0.1925 C.ar    1  LIG1        0.0438
     33 C          -4.1638    9.9138   -0.2756 C.ar    1  LIG1        0.0573
     34 C          -5.4877   10.4964   -0.2223 C.ar    1  LIG1        0.0747
     35 C          -6.4383    9.6311    0.2610 C.ar    1  LIG1       -0.0051
     36 S          -5.7684    8.1042    0.6783 S.2     1  LIG1       -0.0935
     37 H          -7.4926    9.8276    0.3947 H       1  LIG1        0.0707
     38 C          -3.0387   10.5968   -0.8002 C.1     1  LIG1       -0.0672
     39 C          -2.0965   11.1978   -1.2614 C.1     1  LIG1       -0.1138
     40 H          -1.2587   11.7294   -1.6514 H       1  LIG1        0.1232
     41 N          -6.0424   12.9054   -0.9925 N.1     1  LIG1       -0.1908
     42 C          -5.7857   11.8253   -0.6464 C.1     1  LIG1        0.1009
@<TRIPOS>BOND
     1    19    18    1
     2    18    17    3
     3    20    21    3
     4    40    39    1
     5    17    13    1
     6    39    38    3
     7    21    14    1
     8    41    42    3
     9    38    33    1
    10     5     1   ar
    11     5     4   ar
    12    13    14   ar
    13    13    12   ar
    14    14    15   ar
    15    42    34    1
    16     6     1    1
    17     1     2   ar
    18    26    22   ar
    19    26    25   ar
    20    12     4    1
    21    12    16   ar
    22    33    34   ar
    23    33    32   ar
    24    34    35   ar
    25     4     3   ar
    26    15    22    1
    27    15    16   ar
    28    22    23   ar
    29     2     3   ar
    30     2     7    1
    31    32    25    1
    32    32    36   ar
    33    35    37    1
    34    35    36   ar
    35     3    11    1
    36    25    24   ar
    37     7     8    3
    38    23    24   ar
    39    23    27    1
    40    24    31    1
    41    11    10    3
    42     8     9    1
    43    27    28    3
    44    31    30    3
    45    28    29    1
