@<TRIPOS>MOLECULE
mol_data/opt/b3lyp/geoms/mol2/5ed5ed-5ed5ed.out
 42 45 0 0 0
SMALL
GASTEIGER

@<TRIPOS>ATOM
      1 C          -1.9733   -1.9183   -0.3873 C.ar    1  LIG1       -0.0070
      2 C          -0.7110   -1.9480    0.1572 C.ar    1  LIG1        0.0496
      3 C          -0.1442   -0.6198    0.2643 C.ar    1  LIG1        0.0824
      4 C          -0.9843    0.3736   -0.2146 C.ar    1  LIG1        0.0457
      5 S          -2.4820   -0.3217   -0.7906 S.2     1  LIG1       -0.0935
      6 H          -2.6211   -2.7632   -0.5710 H       1  LIG1        0.0706
      7 C          -0.0469   -3.1305    0.5808 C.1     1  LIG1       -0.0678
      8 C           0.5242   -4.1326    0.9428 C.1     1  LIG1       -0.1139
      9 H           1.0349   -5.0107    1.2658 H       1  LIG1        0.1232
     10 N           2.1421   -0.1982    1.3996 N.1     1  LIG1       -0.1908
     11 C           1.1184   -0.3759    0.8764 C.1     1  LIG1        0.1015
     12 C          -0.7651    1.8086   -0.2748 C.ar    1  LIG1        0.0444
     13 C           0.3282    2.5001   -0.7784 C.ar    1  LIG1        0.0579
     14 C           0.1584    3.9316   -0.6825 C.ar    1  LIG1        0.0830
     15 C          -1.0464    4.3118   -0.1120 C.ar    1  LIG1        0.0463
     16 S          -1.9854    2.9075    0.3236 S.2     1  LIG1       -0.0846
     17 C           1.4578    1.9009   -1.3903 C.1     1  LIG1       -0.0672
     18 C           2.4277    1.4162   -1.9248 C.1     1  LIG1       -0.1138
     19 H           3.2905    0.9862   -2.3800 H       1  LIG1        0.1232
     20 N           1.8822    5.5748   -1.6943 N.1     1  LIG1       -0.1908
     21 C           1.1082    4.8451   -1.2240 C.1     1  LIG1        0.1016
     22 C          -1.5600    5.6458    0.1412 C.ar    1  LIG1        0.0444
     23 C          -0.9279    6.7147    0.7630 C.ar    1  LIG1        0.0579
     24 C          -1.7870    7.8722    0.8590 C.ar    1  LIG1        0.0830
     25 C          -3.0473    7.6770    0.3166 C.ar    1  LIG1        0.0463
     26 S          -3.1904    6.0638   -0.3311 S.2     1  LIG1       -0.0846
     27 C           0.3750    6.6765    1.3190 C.1     1  LIG1       -0.0672
     28 C           1.4798    6.6641    1.8096 C.1     1  LIG1       -0.1138
     29 H           2.4608    6.6534    2.2272 H       1  LIG1        0.1232
     30 N          -1.0531   10.0067    2.1241 N.1     1  LIG1       -0.1908
     31 C          -1.3875    9.0573    1.5416 C.1     1  LIG1        0.1016
     32 C          -4.1629    8.6034    0.2311 C.ar    1  LIG1        0.0438
     33 C          -4.1677    9.9128   -0.2323 C.ar    1  LIG1        0.0573
     34 C          -5.4918   10.4945   -0.1736 C.ar    1  LIG1        0.0747
     35 C          -6.4408    9.6270    0.3090 C.ar    1  LIG1       -0.0051
     36 S          -5.7691    8.0990    0.7191 S.2     1  LIG1       -0.0935
     37 H          -7.4948    9.8225    0.4461 H       1  LIG1        0.0707
     38 C          -3.0443   10.5982   -0.7573 C.1     1  LIG1       -0.0672
     39 C          -2.1036   11.2012   -1.2188 C.1     1  LIG1       -0.1138
     40 H          -1.2668   11.7346   -1.6090 H       1  LIG1        0.1232
     41 N          -6.0497   12.9060   -0.9340 N.1     1  LIG1       -0.1908
     42 C          -5.7915   11.8248   -0.5924 C.1     1  LIG1        0.1009
@<TRIPOS>BOND
     1    19    18    1
     2    18    17    3
     3    20    21    3
     4    40    39    1
     5    17    13    1
     6    21    14    1
     7    39    38    3
     8    41    42    3
     9     5     1   ar
    10     5     4   ar
    11    13    14   ar
    12    13    12   ar
    13    38    33    1
    14    14    15   ar
    15    42    34    1
    16     6     1    1
    17     1     2   ar
    18    26    22   ar
    19    26    25   ar
    20    12     4    1
    21    12    16   ar
    22    33    34   ar
    23    33    32   ar
    24     4     3   ar
    25    34    35   ar
    26    15    22    1
    27    15    16   ar
    28    22    23   ar
    29     2     3   ar
    30     2     7    1
    31    32    25    1
    32    32    36   ar
    33     3    11    1
    34    35    37    1
    35    35    36   ar
    36    25    24   ar
    37     7     8    3
    38    23    24   ar
    39    23    27    1
    40    24    31    1
    41    11    10    3
    42     8     9    1
    43    27    28    3
    44    31    30    3
    45    28    29    1
