@<TRIPOS>MOLECULE
mol_data/opt/b3lyp/geoms/mol2/5ed5ed-5ed-5ed.out
 42 45 0 0 0
SMALL
GASTEIGER

@<TRIPOS>ATOM
      1 C          -1.9824   -1.9203    0.3515 C.ar    1  LIG1       -0.0070
      2 C          -0.7130   -1.9474   -0.1763 C.ar    1  LIG1        0.0496
      3 C          -0.1440   -0.6190   -0.2674 C.ar    1  LIG1        0.0824
      4 C          -0.9898    0.3720    0.2064 C.ar    1  LIG1        0.0457
      5 S          -2.4956   -0.3259    0.7580 S.2     1  LIG1       -0.0935
      6 H          -2.6331   -2.7659    0.5213 H       1  LIG1        0.0706
      7 C          -0.0440   -3.1277   -0.5984 C.1     1  LIG1       -0.0678
      8 C           0.5314   -4.1279   -0.9589 C.1     1  LIG1       -0.1139
      9 H           1.0457   -5.0043   -1.2805 H       1  LIG1        0.1232
     10 N           2.1575   -0.1919   -1.3694 N.1     1  LIG1       -0.1908
     11 C           1.1269   -0.3720   -0.8610 C.1     1  LIG1        0.1015
     12 C          -0.7707    1.8065    0.2784 C.ar    1  LIG1        0.0444
     13 C           0.3162    2.4941    0.8010 C.ar    1  LIG1        0.0579
     14 C           0.1485    3.9263    0.7117 C.ar    1  LIG1        0.0830
     15 C          -1.0483    4.3109    0.1274 C.ar    1  LIG1        0.0463
     16 S          -1.9822    2.9098   -0.3295 S.2     1  LIG1       -0.0846
     17 C           1.4371    1.8904    1.4242 C.1     1  LIG1       -0.0672
     18 C           2.3996    1.4019    1.9685 C.1     1  LIG1       -0.1138
     19 H           3.2561    0.9686    2.4323 H       1  LIG1        0.1232
     20 N           1.8594    5.5621    1.7568 N.1     1  LIG1       -0.1908
     21 C           1.0914    4.8358    1.2716 C.1     1  LIG1        0.1016
     22 C          -1.5577    5.6467   -0.1244 C.ar    1  LIG1        0.0444
     23 C          -0.9166    6.7190   -0.7309 C.ar    1  LIG1        0.0579
     24 C          -1.7736    7.8777   -0.8311 C.ar    1  LIG1        0.0830
     25 C          -3.0412    7.6800   -0.3070 C.ar    1  LIG1        0.0463
     26 S          -3.1941    6.0630    0.3285 S.2     1  LIG1       -0.0846
     27 C           0.3936    6.6834   -1.2694 C.1     1  LIG1       -0.0672
     28 C           1.5050    6.6733   -1.7450 C.1     1  LIG1       -0.1138
     29 H           2.4915    6.6646   -2.1494 H       1  LIG1        0.1232
     30 N          -1.0212   10.0197   -2.0727 N.1     1  LIG1       -0.1908
     31 C          -1.3642    9.0669   -1.5007 C.1     1  LIG1        0.1016
     32 C          -4.1574    8.6066   -0.2310 C.ar    1  LIG1        0.0438
     33 C          -4.1677    9.9130    0.2406 C.ar    1  LIG1        0.0573
     34 C          -5.4905   10.4961    0.1676 C.ar    1  LIG1        0.0747
     35 C          -6.4334    9.6323   -0.3334 C.ar    1  LIG1       -0.0051
     36 S          -5.7571    8.1064   -0.7439 S.2     1  LIG1       -0.0935
     37 H          -7.4853    9.8293   -0.4835 H       1  LIG1        0.0707
     38 C          -3.0511   10.5944    0.7850 C.1     1  LIG1       -0.0672
     39 C          -2.1163   11.1939    1.2630 C.1     1  LIG1       -0.1138
     40 H          -1.2847   11.7243    1.6677 H       1  LIG1        0.1232
     41 N          -6.0572   12.9031    0.9354 N.1     1  LIG1       -0.1908
     42 C          -5.7951   11.8239    0.5906 C.1     1  LIG1        0.1009
@<TRIPOS>BOND
     1    29    28    1
     2    30    31    3
     3    28    27    3
     4    31    24    1
     5    10    11    3
     6     9     8    1
     7    27    23    1
     8     8     7    3
     9    11     3    1
    10    24    23   ar
    11    24    25   ar
    12    36    35   ar
    13    36    32   ar
    14    23    22   ar
    15     7     2    1
    16    37    35    1
    17    35    34   ar
    18    16    15   ar
    19    16    12   ar
    20    25    32    1
    21    25    26   ar
    22     3     2   ar
    23     3     4   ar
    24    32    33   ar
    25     2     1   ar
    26    22    15    1
    27    22    26   ar
    28    15    14   ar
    29    34    33   ar
    30    34    42    1
    31     4    12    1
    32     4     5   ar
    33    33    38    1
    34    12    13   ar
    35     1     6    1
    36     1     5   ar
    37    42    41    3
    38    14    13   ar
    39    14    21    1
    40    38    39    3
    41    13    17    1
    42    39    40    1
    43    21    20    3
    44    17    18    3
    45    18    19    1
