@<TRIPOS>MOLECULE
mol_data/opt/b3lyp/geoms/mol2/5ed5ed5ed5ed-.out
 42 45 0 0 0
SMALL
GASTEIGER

@<TRIPOS>ATOM
      1 C          -1.9721   -1.9203   -0.3772 C.ar    1  LIG1       -0.0070
      2 C          -0.7127   -1.9474    0.1742 C.ar    1  LIG1        0.0496
      3 C          -0.1462   -0.6187    0.2771 C.ar    1  LIG1        0.0824
      4 C          -0.9834    0.3723   -0.2117 C.ar    1  LIG1        0.0457
      5 S          -2.4783   -0.3258   -0.7920 S.2     1  LIG1       -0.0935
      6 H          -2.6191   -2.7661   -0.5599 H       1  LIG1        0.0706
      7 C          -0.0512   -3.1277    0.6076 C.1     1  LIG1       -0.0678
      8 C           0.5177   -4.1279    0.9781 C.1     1  LIG1       -0.1139
      9 H           1.0263   -5.0044    1.3085 H       1  LIG1        0.1232
     10 N           2.1342   -0.1919    1.4224 N.1     1  LIG1       -0.1908
     11 C           1.1133   -0.3718    0.8946 C.1     1  LIG1        0.1015
     12 C          -0.7638    1.8070   -0.2783 C.ar    1  LIG1        0.0444
     13 C           0.3324    2.4957   -0.7795 C.ar    1  LIG1        0.0579
     14 C           0.1621    3.9277   -0.6921 C.ar    1  LIG1        0.0830
     15 C          -1.0458    4.3110   -0.1305 C.ar    1  LIG1        0.0463
     16 S          -1.9873    2.9090    0.3074 S.2     1  LIG1       -0.0846
     17 C           1.4654    1.8933   -1.3817 C.1     1  LIG1       -0.0672
     18 C           2.4384    1.4060   -1.9081 C.1     1  LIG1       -0.1138
     19 H           3.3038    0.9736   -2.3561 H       1  LIG1        0.1232
     20 N           1.8915    5.5657   -1.7029 N.1     1  LIG1       -0.1908
     21 C           1.1149    4.8383   -1.2332 C.1     1  LIG1        0.1016
     22 C          -1.5606    5.6464    0.1127 C.ar    1  LIG1        0.0444
     23 C          -0.9319    6.7185    0.7324 C.ar    1  LIG1        0.0579
     24 C          -1.7912    7.8767    0.8170 C.ar    1  LIG1        0.0830
     25 C          -3.0484    7.6789    0.2683 C.ar    1  LIG1        0.0463
     26 S          -3.1882    6.0623   -0.3714 S.2     1  LIG1       -0.0846
     27 C           0.3677    6.6829    1.2960 C.1     1  LIG1       -0.0672
     28 C           1.4697    6.6728    1.7929 C.1     1  LIG1       -0.1138
     29 H           2.4483    6.6642    2.2162 H       1  LIG1        0.1232
     30 N          -1.0638   10.0179    2.0747 N.1     1  LIG1       -0.1908
     31 C          -1.3953    9.0654    1.4954 C.1     1  LIG1        0.1016
     32 C          -4.1634    8.6050    0.1716 C.ar    1  LIG1        0.0438
     33 C          -4.1652    9.9120   -0.2987 C.ar    1  LIG1        0.0573
     34 C          -5.4894   10.4943   -0.2507 C.ar    1  LIG1        0.0747
     35 C          -6.4414    9.6294    0.2309 C.ar    1  LIG1       -0.0051
     36 S          -5.7724    8.1034    0.6529 S.2     1  LIG1       -0.0935
     37 H          -7.4961    9.8257    0.3608 H       1  LIG1        0.0707
     38 C          -3.0385   10.5945   -0.8206 C.1     1  LIG1       -0.0672
     39 C          -2.0951   11.1951   -1.2796 C.1     1  LIG1       -0.1138
     40 H          -1.2560   11.7263   -1.6676 H       1  LIG1        0.1232
     41 N          -6.0424   12.9019   -1.0266 N.1     1  LIG1       -0.1908
     42 C          -5.7865   11.8224   -0.6779 C.1     1  LIG1        0.1009
@<TRIPOS>BOND
     1    19    18    1
     2    18    17    3
     3    20    21    3
     4    40    39    1
     5    17    13    1
     6    39    38    3
     7    21    14    1
     8    41    42    3
     9    38    33    1
    10     5     1   ar
    11     5     4   ar
    12    13    14   ar
    13    13    12   ar
    14    14    15   ar
    15    42    34    1
    16     6     1    1
    17     1     2   ar
    18    26    22   ar
    19    26    25   ar
    20    33    34   ar
    21    33    32   ar
    22    12     4    1
    23    12    16   ar
    24    34    35   ar
    25     4     3   ar
    26    15    22    1
    27    15    16   ar
    28    22    23   ar
    29    32    25    1
    30    32    36   ar
    31     2     3   ar
    32     2     7    1
    33    35    37    1
    34    35    36   ar
    35    25    24   ar
    36     3    11    1
    37     7     8    3
    38    23    24   ar
    39    23    27    1
    40    24    31    1
    41    11    10    3
    42     8     9    1
    43    27    28    3
    44    31    30    3
    45    28    29    1
