@<TRIPOS>MOLECULE
mol_data/opt/b3lyp/geoms/mol2/5ed5ed5ed-.out
 32 34 0 0 0
SMALL
GASTEIGER

@<TRIPOS>ATOM
      1 C          -1.9113   -1.8955   -0.5429 C.ar    1  LIG1       -0.0070
      2 C          -0.7653   -1.8835    0.2169 C.ar    1  LIG1        0.0496
      3 C          -0.2293   -0.5452    0.3540 C.ar    1  LIG1        0.0824
      4 C          -0.9736    0.4134   -0.3159 C.ar    1  LIG1        0.0457
      5 S          -2.3443   -0.3268   -1.1108 S.2     1  LIG1       -0.0935
      6 H          -2.5146   -2.7557   -0.7940 H       1  LIG1        0.0706
      7 C          -0.1842   -3.0357    0.8115 C.1     1  LIG1       -0.0678
      8 C           0.3160   -4.0118    1.3199 C.1     1  LIG1       -0.1139
      9 H           0.7635   -4.8665    1.7730 H       1  LIG1        0.1232
     10 N           1.8220   -0.0427    1.8486 N.1     1  LIG1       -0.1908
     11 C           0.9060   -0.2570    1.1643 C.1     1  LIG1        0.1015
     12 C          -0.7492    1.8459   -0.4123 C.ar    1  LIG1        0.0444
     13 C           0.4134    2.5209   -0.7577 C.ar    1  LIG1        0.0579
     14 C           0.2275    3.9538   -0.7703 C.ar    1  LIG1        0.0830
     15 C          -1.0575    4.3511   -0.4375 C.ar    1  LIG1        0.0463
     16 S          -2.0548    2.9627   -0.0920 S.2     1  LIG1       -0.0846
     17 C           1.6322    1.9018   -1.1328 C.1     1  LIG1       -0.0672
     18 C           2.6801    1.3990   -1.4651 C.1     1  LIG1       -0.1138
     19 H           3.6090    0.9545   -1.7408 H       1  LIG1        0.1232
     20 N           2.0996    5.5596   -1.5530 N.1     1  LIG1       -0.1908
     21 C           1.2560    4.8478   -1.1864 C.1     1  LIG1        0.1016
     22 C          -1.6077    5.6928   -0.3472 C.ar    1  LIG1        0.0438
     23 C          -1.0962    6.7945    0.3261 C.ar    1  LIG1        0.0573
     24 C          -1.9553    7.9511    0.1871 C.ar    1  LIG1        0.0747
     25 C          -3.0800    7.7004   -0.5601 C.ar    1  LIG1       -0.0051
     26 S          -3.1289    6.0786   -1.1277 S.2     1  LIG1       -0.0935
     27 H          -3.8706    8.3957   -0.8036 H       1  LIG1        0.0707
     28 C           0.0865    6.7982    1.1064 C.1     1  LIG1       -0.0672
     29 C           1.0862    6.8243    1.7858 C.1     1  LIG1       -0.1138
     30 H           1.9779    6.8467    2.3698 H       1  LIG1        0.1232
     31 N          -1.4676   10.2559    1.2616 N.1     1  LIG1       -0.1908
     32 C          -1.6792    9.2186    0.7803 C.1     1  LIG1        0.1009
@<TRIPOS>BOND
     1    19    18    1
     2    20    21    3
     3    18    17    3
     4    21    14    1
     5    17    13    1
     6    26    25   ar
     7    26    22   ar
     8     5     1   ar
     9     5     4   ar
    10    27    25    1
    11     6     1    1
    12    14    13   ar
    13    14    15   ar
    14    13    12   ar
    15    25    24   ar
    16     1     2   ar
    17    15    22    1
    18    15    16   ar
    19    12     4    1
    20    12    16   ar
    21    22    23   ar
    22     4     3   ar
    23    24    23   ar
    24    24    32    1
    25     2     3   ar
    26     2     7    1
    27    23    28    1
    28     3    11    1
    29    32    31    3
    30     7     8    3
    31    28    29    3
    32    11    10    3
    33     8     9    1
    34    29    30    1
