@<TRIPOS>MOLECULE
mol_data/opt/b3lyp/geoms/mol2/5ee.out
 13 13 0 0 0
SMALL
GASTEIGER

@<TRIPOS>ATOM
      1 C          -2.1177   -1.7126    0.0002 C.ar    1  LIG1       -0.0077
      2 C          -0.7428   -1.7040   -0.0003 C.ar    1  LIG1        0.0470
      3 C          -0.2091   -0.3506   -0.0003 C.ar    1  LIG1        0.0470
      4 C          -1.2082    0.5940    0.0002 C.ar    1  LIG1       -0.0077
      5 S          -2.7829   -0.1177    0.0007 S.2     1  LIG1       -0.1026
      6 H          -2.7635   -2.5786    0.0004 H       1  LIG1        0.0706
      7 H          -1.0892    1.6676    0.0003 H       1  LIG1        0.0706
      8 C           0.0593   -2.8781   -0.0007 C.1     1  LIG1       -0.0679
      9 C           0.7396   -3.8781   -0.0011 C.1     1  LIG1       -0.1139
     10 H           1.3433   -4.7558   -0.0012 H       1  LIG1        0.1232
     11 C           1.1783   -0.0400   -0.0007 C.1     1  LIG1       -0.0679
     12 C           2.3581    0.2266   -0.0012 C.1     1  LIG1       -0.1139
     13 H           3.3985    0.4554   -0.0015 H       1  LIG1        0.1232
@<TRIPOS>BOND
     1    13    12    1
     2    10     9    1
     3    12    11    3
     4     9     8    3
     5    11     3    1
     6     8     2    1
     7     3     2   ar
     8     3     4   ar
     9     2     1   ar
    10     4     7    1
    11     4     5   ar
    12     1     6    1
    13     1     5   ar
