@<TRIPOS>MOLECULE
mol_data/opt/b3lyp/geoms/mol2/5ee5ee-5ee5ee-.out
 46 49 0 0 0
SMALL
GASTEIGER

@<TRIPOS>ATOM
      1 C          -1.1250   -1.3155    2.5252 C.ar    1  LIG1       -0.0071
      2 C          -0.7429   -1.6770    1.2551 C.ar    1  LIG1        0.0477
      3 C          -0.4205   -0.5263    0.4306 C.ar    1  LIG1        0.0553
      4 C          -0.5566    0.6713    1.1178 C.ar    1  LIG1        0.0437
      5 S          -1.0904    0.3905    2.7627 S.2     1  LIG1       -0.0936
      6 H          -1.4205   -1.9769    3.3268 H       1  LIG1        0.0706
      7 C          -0.6867   -3.0222    0.7980 C.1     1  LIG1       -0.0679
      8 C          -0.6404   -4.1687    0.4157 C.1     1  LIG1       -0.1139
      9 H          -0.5980   -5.1764    0.0728 H       1  LIG1        0.1232
     10 C          -0.0718   -0.6339   -0.9405 C.1     1  LIG1       -0.0673
     11 C           0.2064   -0.7455   -2.1121 C.1     1  LIG1       -0.1138
     12 H           0.4572   -0.8331   -3.1437 H       1  LIG1        0.1232
     13 C          -0.3329    2.0274    0.6415 C.ar    1  LIG1        0.0443
     14 C           0.7926    2.5603    0.0306 C.ar    1  LIG1        0.0559
     15 C           0.6371    3.9604   -0.3091 C.ar    1  LIG1        0.0559
     16 C          -0.5902    4.4749    0.0822 C.ar    1  LIG1        0.0443
     17 S          -1.5740    3.2418    0.8339 S.2     1  LIG1       -0.0846
     18 C           1.9946    1.8432   -0.2035 C.1     1  LIG1       -0.0673
     19 C           3.0325    1.2522   -0.3930 C.1     1  LIG1       -0.1138
     20 H           3.9407    0.7214   -0.5612 H       1  LIG1        0.1232
     21 C           1.6287    4.6941   -1.0107 C.1     1  LIG1       -0.0673
     22 C           2.4760    5.2992   -1.6258 C.1     1  LIG1       -0.1138
     23 H           3.2187    5.8426   -2.1624 H       1  LIG1        0.1232
     24 C          -1.1062    5.8249   -0.0801 C.ar    1  LIG1        0.0443
     25 C          -0.5313    7.0274    0.3042 C.ar    1  LIG1        0.0559
     26 C          -1.3507    8.1741   -0.0329 C.ar    1  LIG1        0.0559
     27 C          -2.5491    7.8198   -0.6347 C.ar    1  LIG1        0.0443
     28 S          -2.6666    6.0868   -0.8218 S.2     1  LIG1       -0.0846
     29 C           0.7017    7.1430    0.9971 C.1     1  LIG1       -0.0673
     30 C           1.7408    7.2579    1.6049 C.1     1  LIG1       -0.1138
     31 H           2.6603    7.3489    2.1351 H       1  LIG1        0.1232
     32 C          -0.9310    9.5104    0.1951 C.1     1  LIG1       -0.0673
     33 C          -0.5498   10.6432    0.3793 C.1     1  LIG1       -0.1138
     34 H          -0.2256   11.6447    0.5428 H       1  LIG1        0.1232
     35 C          -3.6228    8.6807   -1.1059 C.ar    1  LIG1        0.0437
     36 C          -4.3153    9.6654   -0.4162 C.ar    1  LIG1        0.0553
     37 C          -5.3278   10.3068   -1.2355 C.ar    1  LIG1        0.0477
     38 C          -5.3796    9.7804   -2.5044 C.ar    1  LIG1       -0.0071
     39 S          -4.2181    8.5313   -2.7470 S.2     1  LIG1       -0.0936
     40 H          -6.0457   10.0750   -3.3024 H       1  LIG1        0.0706
     41 C          -4.1183    9.9807    0.9531 C.1     1  LIG1       -0.0673
     42 C          -3.9778   10.2516    2.1233 C.1     1  LIG1       -0.1138
     43 H          -3.8426   10.4861    3.1536 H       1  LIG1        0.1232
     44 C          -6.1798   11.3478   -0.7749 C.1     1  LIG1       -0.0679
     45 C          -6.9071   12.2340   -0.3897 C.1     1  LIG1       -0.1139
     46 H          -7.5451   13.0141   -0.0442 H       1  LIG1        0.1232
@<TRIPOS>BOND
     1    40    38    1
     2    12    11    1
     3    39    38   ar
     4    39    35   ar
     5    38    37   ar
     6    23    22    1
     7    11    10    3
     8    22    21    3
     9    37    44    1
    10    37    36   ar
    11    35    27    1
    12    35    36   ar
    13    21    15    1
    14    10     3    1
    15    28    27   ar
    16    28    24   ar
    17    44    45    3
    18    27    26   ar
    19    20    19    1
    20    36    41    1
    21    19    18    3
    22    45    46    1
    23    15    14   ar
    24    15    16   ar
    25    18    14    1
    26    24    16    1
    27    24    25   ar
    28    26    32    1
    29    26    25   ar
    30    14    13   ar
    31     9     8    1
    32    16    17   ar
    33    32    33    3
    34    25    29    1
    35    33    34    1
    36     8     7    3
    37     3     4   ar
    38     3     2   ar
    39    13    17   ar
    40    13     4    1
    41     7     2    1
    42    41    42    3
    43    29    30    3
    44     4     5   ar
    45     2     1   ar
    46    30    31    1
    47    42    43    1
    48     1     5   ar
    49     1     6    1
