@<TRIPOS>MOLECULE
mol_data/opt/b3lyp/geoms/mol2/5ee5ee5ee-5ee-.out
 46 49 0 0 0
SMALL
GASTEIGER

@<TRIPOS>ATOM
      1 C          -0.9091   -1.7059    2.0109 C.ar    1  LIG1       -0.0071
      2 C          -0.5483   -1.8582    0.6932 C.ar    1  LIG1        0.0477
      3 C          -0.3118   -0.5843    0.0382 C.ar    1  LIG1        0.0553
      4 C          -0.4882    0.4922    0.8957 C.ar    1  LIG1        0.0437
      5 S          -0.9555   -0.0528    2.4941 S.2     1  LIG1       -0.0936
      6 H          -1.1448   -2.4916    2.7142 H       1  LIG1        0.0706
      7 C          -0.4368   -3.1180    0.0436 C.1     1  LIG1       -0.0679
      8 C          -0.3429   -4.1928   -0.5029 C.1     1  LIG1       -0.1139
      9 H          -0.2589   -5.1365   -0.9902 H       1  LIG1        0.1232
     10 C          -0.0011   -0.4733   -1.3418 C.1     1  LIG1       -0.0673
     11 C           0.2454   -0.3988   -2.5234 C.1     1  LIG1       -0.1138
     12 H           0.4676   -0.3225   -3.5625 H       1  LIG1        0.1232
     13 C          -0.3511    1.9130    0.6170 C.ar    1  LIG1        0.0443
     14 C           0.7241    2.5913    0.0624 C.ar    1  LIG1        0.0559
     15 C           0.4844    4.0146   -0.0670 C.ar    1  LIG1        0.0559
     16 C          -0.7547    4.3975    0.4262 C.ar    1  LIG1        0.0443
     17 S          -1.6474    3.0149    1.0151 S.2     1  LIG1       -0.0846
     18 C           1.9539    1.9846   -0.3028 C.1     1  LIG1       -0.0673
     19 C           3.0149    1.4868   -0.6012 C.1     1  LIG1       -0.1138
     20 H           3.9438    1.0380   -0.8668 H       1  LIG1        0.1232
     21 C           1.4119    4.8946   -0.6822 C.1     1  LIG1       -0.0673
     22 C           2.2057    5.6262   -1.2273 C.1     1  LIG1       -0.1138
     23 H           2.9005    6.2801   -1.7011 H       1  LIG1        0.1232
     24 C          -1.3483    5.7232    0.4754 C.ar    1  LIG1        0.0443
     25 C          -0.8217    6.8959    0.9978 C.ar    1  LIG1        0.0559
     26 C          -1.7290    8.0195    0.8807 C.ar    1  LIG1        0.0559
     27 C          -2.9289    7.6806    0.2722 C.ar    1  LIG1        0.0443
     28 S          -2.9515    5.9899   -0.1666 S.2     1  LIG1       -0.0846
     29 C           0.4299    6.9884    1.6601 C.1     1  LIG1       -0.0673
     30 C           1.4854    7.0805    2.2431 C.1     1  LIG1       -0.1138
     31 H           2.4191    7.1518    2.7509 H       1  LIG1        0.1232
     32 C          -1.4351    9.3003    1.4166 C.1     1  LIG1       -0.0673
     33 C          -1.1757   10.3808    1.8936 C.1     1  LIG1       -0.1138
     34 H          -0.9546   11.3376    2.3065 H       1  LIG1        0.1232
     35 C          -4.0822    8.5211   -0.0047 C.ar    1  LIG1        0.0437
     36 C          -4.1358    9.7377   -0.6701 C.ar    1  LIG1        0.0553
     37 C          -5.4856   10.2665   -0.7482 C.ar    1  LIG1        0.0477
     38 C          -6.4058    9.4321   -0.1594 C.ar    1  LIG1       -0.0071
     39 S          -5.6808    8.0195    0.5096 S.2     1  LIG1       -0.0936
     40 H          -7.4724    9.5890   -0.0887 H       1  LIG1        0.0706
     41 C          -3.0221   10.3776   -1.2725 C.1     1  LIG1       -0.0673
     42 C          -2.0895   10.9303   -1.8086 C.1     1  LIG1       -0.1138
     43 H          -1.2604   11.4112   -2.2736 H       1  LIG1        0.1232
     44 C          -5.8214   11.4969   -1.3767 C.1     1  LIG1       -0.0679
     45 C          -6.1138   12.5428   -1.9089 C.1     1  LIG1       -0.1139
     46 H          -6.3650   13.4649   -2.3797 H       1  LIG1        0.1232
@<TRIPOS>BOND
     1    12    11    1
     2    11    10    3
     3    46    45    1
     4    43    42    1
     5    45    44    3
     6    42    41    3
     7    23    22    1
     8    44    37    1
     9    10     3    1
    10    41    36    1
    11    22    21    3
    12     9     8    1
    13    20    19    1
    14    37    36   ar
    15    37    38   ar
    16    21    15    1
    17    36    35   ar
    18    19    18    3
    19     8     7    3
    20    18    14    1
    21    28    27   ar
    22    28    24   ar
    23    38    40    1
    24    38    39   ar
    25    15    14   ar
    26    15    16   ar
    27    35    27    1
    28    35    39   ar
    29     3     2   ar
    30     3     4   ar
    31     7     2    1
    32    14    13   ar
    33    27    26   ar
    34    16    24    1
    35    16    17   ar
    36    24    25   ar
    37    13     4    1
    38    13    17   ar
    39     2     1   ar
    40    26    25   ar
    41    26    32    1
    42     4     5   ar
    43    25    29    1
    44    32    33    3
    45    29    30    3
    46    33    34    1
    47     1     5   ar
    48     1     6    1
    49    30    31    1
