@<TRIPOS>MOLECULE
mol_data/opt/b3lyp/geoms/mol2/5ee5ee-5ee-.out
 35 37 0 0 0
SMALL
GASTEIGER

@<TRIPOS>ATOM
      1 C          -1.8990   -1.8748   -0.6037 C.ar    1  LIG1       -0.0071
      2 C          -0.7611   -1.8662    0.1674 C.ar    1  LIG1        0.0477
      3 C          -0.2016   -0.5337    0.3063 C.ar    1  LIG1        0.0553
      4 C          -0.9336    0.4218   -0.3845 C.ar    1  LIG1        0.0437
      5 S          -2.3101   -0.3069   -1.1882 S.2     1  LIG1       -0.0936
      6 H          -2.5073   -2.7320   -0.8534 H       1  LIG1        0.0706
      7 C          -0.2069   -3.0271    0.7731 C.1     1  LIG1       -0.0679
      8 C           0.2598   -4.0186    1.2848 C.1     1  LIG1       -0.1139
      9 H           0.6758   -4.8881    1.7385 H       1  LIG1        0.1232
     10 C           0.9281   -0.2538    1.1175 C.1     1  LIG1       -0.0673
     11 C           1.8816   -0.0344    1.8284 C.1     1  LIG1       -0.1138
     12 H           2.7236    0.1693    2.4483 H       1  LIG1        0.1232
     13 C          -0.7016    1.8531   -0.4881 C.ar    1  LIG1        0.0443
     14 C           0.4527    2.5246   -0.8642 C.ar    1  LIG1        0.0559
     15 C           0.2894    3.9644   -0.8663 C.ar    1  LIG1        0.0559
     16 C          -0.9860    4.3615   -0.4917 C.ar    1  LIG1        0.0443
     17 S          -1.9887    2.9779   -0.1270 S.2     1  LIG1       -0.0846
     18 C           1.6477    1.8886   -1.2898 C.1     1  LIG1       -0.0673
     19 C           2.6672    1.3621   -1.6718 C.1     1  LIG1       -0.1138
     20 H           3.5626    0.8891   -2.0024 H       1  LIG1        0.1232
     21 C           1.3122    4.8506   -1.2934 C.1     1  LIG1       -0.0673
     22 C           2.1887    5.5905   -1.6765 C.1     1  LIG1       -0.1138
     23 H           2.9560    6.2511   -2.0076 H       1  LIG1        0.1232
     24 C          -1.5327    5.7048   -0.3923 C.ar    1  LIG1        0.0437
     25 C          -1.0342    6.8017    0.2961 C.ar    1  LIG1        0.0553
     26 C          -1.8779    7.9747    0.1533 C.ar    1  LIG1        0.0477
     27 C          -2.9881    7.7260   -0.6181 C.ar    1  LIG1       -0.0071
     28 S          -3.0367    6.1044   -1.1986 S.2     1  LIG1       -0.0936
     29 H          -3.7728    8.4245   -0.8705 H       1  LIG1        0.0706
     30 C           0.1291    6.7846    1.1080 C.1     1  LIG1       -0.0673
     31 C           1.1070    6.7869    1.8195 C.1     1  LIG1       -0.1138
     32 H           1.9728    6.7791    2.4401 H       1  LIG1        0.1232
     33 C          -1.5986    9.2319    0.7560 C.1     1  LIG1       -0.0679
     34 C          -1.3664   10.3040    1.2652 C.1     1  LIG1       -0.1139
     35 H          -1.1565   11.2458    1.7167 H       1  LIG1        0.1232
@<TRIPOS>BOND
     1    23    22    1
     2    20    19    1
     3    22    21    3
     4    19    18    3
     5    21    15    1
     6    18    14    1
     7    28    27   ar
     8    28    24   ar
     9     5     1   ar
    10     5     4   ar
    11    29    27    1
    12    15    14   ar
    13    15    16   ar
    14    14    13   ar
    15     6     1    1
    16    27    26   ar
    17     1     2   ar
    18    16    24    1
    19    16    17   ar
    20    13     4    1
    21    13    17   ar
    22    24    25   ar
    23     4     3   ar
    24    26    25   ar
    25    26    33    1
    26     2     3   ar
    27     2     7    1
    28    25    30    1
    29     3    10    1
    30    33    34    3
    31     7     8    3
    32    30    31    3
    33    10    11    3
    34    34    35    1
    35     8     9    1
    36    31    32    1
    37    11    12    1
