@<TRIPOS>MOLECULE
mol_data/opt/b3lyp/geoms/mol2/5ee5ee-5ee-5ee.out
 46 49 0 0 0
SMALL
GASTEIGER

@<TRIPOS>ATOM
      1 C          -2.1837   -1.7384    0.2165 C.ar    1  LIG1       -0.0071
      2 C          -0.9282   -1.7526    0.7762 C.ar    1  LIG1        0.0477
      3 C          -0.2665   -0.4645    0.6737 C.ar    1  LIG1        0.0553
      4 C          -1.0457    0.4796    0.0198 C.ar    1  LIG1        0.0437
      5 S          -2.5886   -0.2036   -0.4538 S.2     1  LIG1       -0.0936
      6 H          -2.8819   -2.5614    0.1678 H       1  LIG1        0.0706
      7 C          -0.3526   -2.8937    1.3993 C.1     1  LIG1       -0.0679
      8 C           0.1315   -3.8682    1.9272 C.1     1  LIG1       -0.1139
      9 H           0.5633   -4.7230    2.3939 H       1  LIG1        0.1232
     10 C           1.0058   -0.2048    1.2449 C.1     1  LIG1       -0.0673
     11 C           2.0832    0.0001    1.7548 C.1     1  LIG1       -0.1138
     12 H           3.0338    0.1900    2.1965 H       1  LIG1        0.1232
     13 C          -0.7422    1.8705   -0.2741 C.ar    1  LIG1        0.0443
     14 C           0.3678    2.4050   -0.9122 C.ar    1  LIG1        0.0559
     15 C           0.3032    3.8470   -1.0378 C.ar    1  LIG1        0.0559
     16 C          -0.8546    4.3827   -0.4922 C.ar    1  LIG1        0.0443
     17 S          -1.8662    3.1275    0.1821 S.2     1  LIG1       -0.0846
     18 C           1.4223    1.6344   -1.4675 C.1     1  LIG1       -0.0673
     19 C           2.3198    0.9917   -1.9613 C.1     1  LIG1       -0.1138
     20 H           3.1082    0.4168   -2.3887 H       1  LIG1        0.1232
     21 C           1.2878    4.6000   -1.7287 C.1     1  LIG1       -0.0673
     22 C           2.1268    5.2241   -2.3361 C.1     1  LIG1       -0.1138
     23 H           2.8626    5.7839   -2.8653 H       1  LIG1        0.1232
     24 C          -1.2843    5.7702   -0.4430 C.ar    1  LIG1        0.0443
     25 C          -0.5963    6.8800    0.0262 C.ar    1  LIG1        0.0559
     26 C          -1.3603    8.1055   -0.0939 C.ar    1  LIG1        0.0559
     27 C          -2.6282    7.8998   -0.6171 C.ar    1  LIG1        0.0443
     28 S          -2.8817    6.2134   -0.9972 S.2     1  LIG1       -0.0846
     29 C           0.6955    6.8371    0.6115 C.1     1  LIG1       -0.0673
     30 C           1.7872    6.8167    1.1314 C.1     1  LIG1       -0.1138
     31 H           2.7515    6.7888    1.5831 H       1  LIG1        0.1232
     32 C          -0.8304    9.3763    0.2498 C.1     1  LIG1       -0.0673
     33 C          -0.3567   10.4533    0.5293 C.1     1  LIG1       -0.1138
     34 H           0.0496   11.4060    0.7786 H       1  LIG1        0.1232
     35 C          -3.6767    8.8735   -0.8779 C.ar    1  LIG1        0.0437
     36 C          -4.2358    9.8034   -0.0132 C.ar    1  LIG1        0.0553
     37 C          -5.2704   10.5987   -0.6494 C.ar    1  LIG1        0.0477
     38 C          -5.4711   10.2374   -1.9605 C.ar    1  LIG1       -0.0071
     39 S          -4.4246    8.9632   -2.4599 S.2     1  LIG1       -0.0936
     40 H          -6.1836   10.6665   -2.6500 H       1  LIG1        0.0706
     41 C          -3.8972    9.9344    1.3585 C.1     1  LIG1       -0.0673
     42 C          -3.6353   10.0490    2.5336 C.1     1  LIG1       -0.1138
     43 H          -3.3937   10.1449    3.5667 H       1  LIG1        0.1232
     44 C          -6.0043   11.6220    0.0109 C.1     1  LIG1       -0.0679
     45 C          -6.6315   12.4941    0.5665 C.1     1  LIG1       -0.1139
     46 H          -7.1810   13.2608    1.0617 H       1  LIG1        0.1232
@<TRIPOS>BOND
     1    23    22    1
     2    40    38    1
     3    39    38   ar
     4    39    35   ar
     5    20    19    1
     6    22    21    3
     7    19    18    3
     8    38    37   ar
     9    21    15    1
    10    18    14    1
    11    15    14   ar
    12    15    16   ar
    13    28    27   ar
    14    28    24   ar
    15    14    13   ar
    16    35    27    1
    17    35    36   ar
    18    37    36   ar
    19    37    44    1
    20    27    26   ar
    21    16    24    1
    22    16    17   ar
    23     5     4   ar
    24     5     1   ar
    25    24    25   ar
    26    13     4    1
    27    13    17   ar
    28    26    25   ar
    29    26    32    1
    30    36    41    1
    31    44    45    3
    32     4     3   ar
    33    25    29    1
    34     6     1    1
    35     1     2   ar
    36    32    33    3
    37    33    34    1
    38    45    46    1
    39    29    30    3
    40     3     2   ar
    41     3    10    1
    42     2     7    1
    43    30    31    1
    44    10    11    3
    45    41    42    3
    46     7     8    3
    47    11    12    1
    48     8     9    1
    49    42    43    1
