@<TRIPOS>MOLECULE
mol_data/opt/b3lyp/geoms/mol2/5ee5ee-5ee-5ee-.out
 46 49 0 0 0
SMALL
GASTEIGER

@<TRIPOS>ATOM
      1 C          -2.0072   -1.8928   -0.2250 C.ar    1  LIG1       -0.0071
      2 C          -0.7243   -1.9192    0.2679 C.ar    1  LIG1        0.0477
      3 C          -0.1267   -0.5969    0.3153 C.ar    1  LIG1        0.0553
      4 C          -0.9807    0.3867   -0.1637 C.ar    1  LIG1        0.0437
      5 S          -2.5148   -0.3036   -0.6554 S.2     1  LIG1       -0.0936
      6 H          -2.6698   -2.7362   -0.3556 H       1  LIG1        0.0706
      7 C          -0.0661   -3.1039    0.6979 C.1     1  LIG1       -0.0679
      8 C           0.4885   -4.1155    1.0610 C.1     1  LIG1       -0.1139
      9 H           0.9822   -5.0030    1.3828 H       1  LIG1        0.1232
     10 C           1.1609   -0.3534    0.8586 C.1     1  LIG1       -0.0673
     11 C           2.2533   -0.1661    1.3427 C.1     1  LIG1       -0.1138
     12 H           3.2162    0.0096    1.7629 H       1  LIG1        0.1232
     13 C          -0.7569    1.8188   -0.2726 C.ar    1  LIG1        0.0443
     14 C           0.2945    2.4950   -0.8744 C.ar    1  LIG1        0.0559
     15 C           0.1560    3.9350   -0.7936 C.ar    1  LIG1        0.0559
     16 C          -0.9984    4.3276   -0.1309 C.ar    1  LIG1        0.0443
     17 S          -1.9161    2.9388    0.4014 S.2     1  LIG1       -0.0846
     18 C           1.3554    1.8661   -1.5763 C.1     1  LIG1       -0.0673
     19 C           2.2566    1.3466   -2.1930 C.1     1  LIG1       -0.1138
     20 H           3.0489    0.8792   -2.7303 H       1  LIG1        0.1232
     21 C           1.0695    4.8273   -1.4122 C.1     1  LIG1       -0.0673
     22 C           1.8484    5.5723   -1.9607 C.1     1  LIG1       -0.1138
     23 H           2.5309    6.2372   -2.4370 H       1  LIG1        0.1232
     24 C          -1.4927    5.6684    0.1300 C.ar    1  LIG1        0.0443
     25 C          -0.8378    6.7431    0.7148 C.ar    1  LIG1        0.0559
     26 C          -1.6773    7.9189    0.8258 C.ar    1  LIG1        0.0559
     27 C          -2.9550    7.7169    0.3241 C.ar    1  LIG1        0.0443
     28 S          -3.1348    6.0920   -0.2922 S.2     1  LIG1       -0.0846
     29 C           0.4804    6.6923    1.2373 C.1     1  LIG1       -0.0673
     30 C           1.5955    6.6615    1.7043 C.1     1  LIG1       -0.1138
     31 H           2.5803    6.6252    2.1088 H       1  LIG1        0.1232
     32 C          -1.2453    9.1106    1.4635 C.1     1  LIG1       -0.0673
     33 C          -0.8669   10.1125    2.0253 C.1     1  LIG1       -0.1138
     34 H          -0.5418   11.0011    2.5146 H       1  LIG1        0.1232
     35 C          -4.0746    8.6424    0.2730 C.ar    1  LIG1        0.0437
     36 C          -4.1199    9.9311   -0.2402 C.ar    1  LIG1        0.0553
     37 C          -5.4352   10.5322   -0.1108 C.ar    1  LIG1        0.0477
     38 C          -6.3408    9.6803    0.4754 C.ar    1  LIG1       -0.0071
     39 S          -5.6409    8.1635    0.8971 S.2     1  LIG1       -0.0936
     40 H          -7.3828    9.8809    0.6790 H       1  LIG1        0.0706
     41 C          -3.0367   10.5820   -0.8848 C.1     1  LIG1       -0.0673
     42 C          -2.1322   11.1479   -1.4543 C.1     1  LIG1       -0.1138
     43 H          -1.3273   11.6390   -1.9501 H       1  LIG1        0.1232
     44 C          -5.7558   11.8443   -0.5547 C.1     1  LIG1       -0.0679
     45 C          -6.0350   12.9599   -0.9293 C.1     1  LIG1       -0.1139
     46 H          -6.2747   13.9433   -1.2616 H       1  LIG1        0.1232
@<TRIPOS>BOND
     1    20    19    1
     2    23    22    1
     3    19    18    3
     4    22    21    3
     5    43    42    1
     6    18    14    1
     7    42    41    3
     8    21    15    1
     9    46    45    1
    10    45    44    3
    11    41    36    1
    12    14    15   ar
    13    14    13   ar
    14    15    16   ar
    15     5     1   ar
    16     5     4   ar
    17    44    37    1
    18     6     1    1
    19    28    24   ar
    20    28    27   ar
    21    13     4    1
    22    13    17   ar
    23    36    37   ar
    24    36    35   ar
    25     1     2   ar
    26     4     3   ar
    27    16    24    1
    28    16    17   ar
    29    37    38   ar
    30    24    25   ar
    31     2     3   ar
    32     2     7    1
    33    35    27    1
    34    35    39   ar
    35     3    10    1
    36    27    26   ar
    37    38    40    1
    38    38    39   ar
    39     7     8    3
    40    25    26   ar
    41    25    29    1
    42    26    32    1
    43    10    11    3
    44     8     9    1
    45    29    30    3
    46    11    12    1
    47    32    33    3
    48    30    31    1
    49    33    34    1
