@<TRIPOS>MOLECULE
mol_data/opt/b3lyp/geoms/mol2/5ee5ee-5ee.out
 35 37 0 0 0
SMALL
GASTEIGER

@<TRIPOS>ATOM
      1 C          -1.6158   -1.5935    1.6752 C.ar    1  LIG1       -0.0071
      2 C          -0.7310   -1.8478    0.6544 C.ar    1  LIG1        0.0477
      3 C          -0.2398   -0.6288    0.0374 C.ar    1  LIG1        0.0553
      4 C          -0.7628    0.5117    0.6296 C.ar    1  LIG1        0.0437
      5 S          -1.8626    0.0928    1.9279 S.2     1  LIG1       -0.0936
      6 H          -2.1269   -2.3224    2.2876 H       1  LIG1        0.0706
      7 C          -0.3544   -3.1549    0.2405 C.1     1  LIG1       -0.0679
      8 C          -0.0377   -4.2695   -0.1061 C.1     1  LIG1       -0.1139
      9 H           0.2450   -5.2487   -0.4163 H       1  LIG1        0.1232
     10 C           0.6263   -0.6290   -1.0864 C.1     1  LIG1       -0.0673
     11 C           1.3504   -0.6511   -2.0549 C.1     1  LIG1       -0.1138
     12 H           1.9924   -0.6591   -2.9049 H       1  LIG1        0.1232
     13 C          -0.5221    1.9067    0.2957 C.ar    1  LIG1        0.0443
     14 C           0.6857    2.5786    0.1806 C.ar    1  LIG1        0.0559
     15 C           0.5204    3.9735   -0.1771 C.ar    1  LIG1        0.0559
     16 C          -0.8109    4.3445   -0.2924 C.ar    1  LIG1        0.0443
     17 S          -1.8663    2.9835    0.0016 S.2     1  LIG1       -0.0846
     18 C           1.9556    1.9955    0.4278 C.1     1  LIG1       -0.0673
     19 C           3.0440    1.5191    0.6534 C.1     1  LIG1       -0.1138
     20 H           3.9987    1.0887    0.8485 H       1  LIG1        0.1232
     21 C           1.6190    4.8372   -0.4244 C.1     1  LIG1       -0.0673
     22 C           2.5659    5.5547   -0.6500 C.1     1  LIG1       -0.1138
     23 H           3.3937    6.1962   -0.8450 H       1  LIG1        0.1232
     24 C          -1.3710    5.6447   -0.6263 C.ar    1  LIG1        0.0437
     25 C          -1.1287    6.8759   -0.0344 C.ar    1  LIG1        0.0553
     26 C          -1.8913    7.9463   -0.6513 C.ar    1  LIG1        0.0477
     27 C          -2.6924    7.4922   -1.6719 C.ar    1  LIG1       -0.0071
     28 S          -2.5386    5.7949   -1.9242 S.2     1  LIG1       -0.0936
     29 H          -3.3598    8.0814   -2.2842 H       1  LIG1        0.0706
     30 C          -0.2865    7.0787    1.0893 C.1     1  LIG1       -0.0673
     31 C           0.4124    7.2695    2.0577 C.1     1  LIG1       -0.1138
     32 H           1.0349    7.4273    2.9076 H       1  LIG1        0.1232
     33 C          -1.8305    9.3053   -0.2376 C.1     1  LIG1       -0.0679
     34 C          -1.7828   10.4631    0.1088 C.1     1  LIG1       -0.1139
     35 H          -1.7364   11.4812    0.4188 H       1  LIG1        0.1232
@<TRIPOS>BOND
     1    12    11    1
     2    29    27    1
     3    11    10    3
     4    28    27   ar
     5    28    24   ar
     6    27    26   ar
     7    10     3    1
     8    23    22    1
     9    26    33    1
    10    26    25   ar
    11    22    21    3
    12    24    16    1
    13    24    25   ar
    14    21    15    1
    15     9     8    1
    16    16    15   ar
    17    16    17   ar
    18    33    34    3
    19    15    14   ar
    20     8     7    3
    21    25    30    1
    22    17    13   ar
    23     3     4   ar
    24     3     2   ar
    25    34    35    1
    26    14    13   ar
    27    14    18    1
    28     7     2    1
    29    13     4    1
    30    18    19    3
    31     4     5   ar
    32    19    20    1
    33     2     1   ar
    34    30    31    3
    35     1     5   ar
    36     1     6    1
    37    31    32    1
