@<TRIPOS>MOLECULE
mol_data/opt/b3lyp/geoms/mol2/5ee5ee-5ee5ee.out
 46 49 0 0 0
SMALL
GASTEIGER

@<TRIPOS>ATOM
      1 C          -2.0150   -1.8859    0.3701 C.ar    1  LIG1       -0.0071
      2 C          -0.7361   -1.9237   -0.1323 C.ar    1  LIG1        0.0477
      3 C          -0.1369   -0.6035   -0.2094 C.ar    1  LIG1        0.0553
      4 C          -0.9855    0.3904    0.2576 C.ar    1  LIG1        0.0437
      5 S          -2.5168   -0.2880    0.7744 S.2     1  LIG1       -0.0936
      6 H          -2.6778   -2.7255    0.5218 H       1  LIG1        0.0706
      7 C          -0.0831   -3.1175   -0.5449 C.1     1  LIG1       -0.0679
      8 C           0.4670   -4.1367   -0.8931 C.1     1  LIG1       -0.1139
      9 H           0.9569   -5.0309   -1.2020 H       1  LIG1        0.1232
     10 C           1.1468   -0.3726   -0.7673 C.1     1  LIG1       -0.0673
     11 C           2.2356   -0.1961   -1.2635 C.1     1  LIG1       -0.1138
     12 H           3.1955   -0.0298   -1.6944 H       1  LIG1        0.1232
     13 C          -0.7588    1.8239    0.3374 C.ar    1  LIG1        0.0443
     14 C           0.2983    2.5098    0.9181 C.ar    1  LIG1        0.0559
     15 C           0.1612    3.9482    0.8113 C.ar    1  LIG1        0.0559
     16 C          -0.9978    4.3300    0.1503 C.ar    1  LIG1        0.0443
     17 S          -1.9217    2.9328   -0.3484 S.2     1  LIG1       -0.0846
     18 C           1.3639    1.8925    1.6233 C.1     1  LIG1       -0.0673
     19 C           2.2692    1.3833    2.2426 C.1     1  LIG1       -0.1138
     20 H           3.0650    0.9247    2.7823 H       1  LIG1        0.1232
     21 C           1.0806    4.8505    1.4061 C.1     1  LIG1       -0.0673
     22 C           1.8646    5.6045    1.9347 C.1     1  LIG1       -0.1138
     23 H           2.5514    6.2773    2.3934 H       1  LIG1        0.1232
     24 C          -1.4923    5.6664   -0.1319 C.ar    1  LIG1        0.0443
     25 C          -0.8402    6.7294   -0.7409 C.ar    1  LIG1        0.0559
     26 C          -1.6791    7.9038   -0.8679 C.ar    1  LIG1        0.0559
     27 C          -2.9536    7.7127   -0.3540 C.ar    1  LIG1        0.0443
     28 S          -3.1311    6.0998    0.2933 S.2     1  LIG1       -0.0846
     29 C           0.4742    6.6672   -1.2716 C.1     1  LIG1       -0.0673
     30 C           1.5859    6.6260   -1.7460 C.1     1  LIG1       -0.1138
     31 H           2.5677    6.5806   -2.1568 H       1  LIG1        0.1232
     32 C          -1.2502    9.0832   -1.5304 C.1     1  LIG1       -0.0673
     33 C          -0.8747   10.0742   -2.1130 C.1     1  LIG1       -0.1138
     34 H          -0.5521   10.9534   -2.6206 H       1  LIG1        0.1232
     35 C          -4.0718    8.6405   -0.3127 C.ar    1  LIG1        0.0437
     36 C          -4.1122    9.9384    0.1772 C.ar    1  LIG1        0.0553
     37 C          -5.4274   10.5388    0.0452 C.ar    1  LIG1        0.0477
     38 C          -6.3380    9.6776   -0.5194 C.ar    1  LIG1       -0.0071
     39 S          -5.6426    8.1524   -0.9178 S.2     1  LIG1       -0.0936
     40 H          -7.3810    9.8759   -0.7198 H       1  LIG1        0.0706
     41 C          -3.0238   10.5993    0.8028 C.1     1  LIG1       -0.0673
     42 C          -2.1147   11.1739    1.3559 C.1     1  LIG1       -0.1138
     43 H          -1.3058   11.6726    1.8373 H       1  LIG1        0.1232
     44 C          -5.7435   11.8593    0.4671 C.1     1  LIG1       -0.0679
     45 C          -6.0188   12.9819    0.8230 C.1     1  LIG1       -0.1139
     46 H          -6.2550   13.9716    1.1388 H       1  LIG1        0.1232
@<TRIPOS>BOND
     1    34    33    1
     2    31    30    1
     3    33    32    3
     4    30    29    3
     5    12    11    1
     6    32    26    1
     7    29    25    1
     8    11    10    3
     9     9     8    1
    10    39    38   ar
    11    39    35   ar
    12     8     7    3
    13    26    25   ar
    14    26    27   ar
    15    10     3    1
    16    25    24   ar
    17    40    38    1
    18     7     2    1
    19    38    37   ar
    20    27    35    1
    21    27    28   ar
    22    17    16   ar
    23    17    13   ar
    24    35    36   ar
    25     3     2   ar
    26     3     4   ar
    27     2     1   ar
    28    24    16    1
    29    24    28   ar
    30    37    36   ar
    31    37    44    1
    32    16    15   ar
    33    36    41    1
    34     4    13    1
    35     4     5   ar
    36    13    14   ar
    37     1     6    1
    38     1     5   ar
    39    44    45    3
    40    41    42    3
    41    15    14   ar
    42    15    21    1
    43    45    46    1
    44    14    18    1
    45    42    43    1
    46    21    22    3
    47    18    19    3
    48    22    23    1
    49    19    20    1
