@<TRIPOS>MOLECULE
mol_data/opt/b3lyp/geoms/mol2/5ee5ee5ee-5ee.out
 46 49 0 0 0
SMALL
GASTEIGER

@<TRIPOS>ATOM
      1 C          -1.1800   -1.3215    2.4989 C.ar    1  LIG1       -0.0071
      2 C          -0.7757   -1.6804    1.2349 C.ar    1  LIG1        0.0477
      3 C          -0.4368   -0.5282    0.4193 C.ar    1  LIG1        0.0553
      4 C          -0.5834    0.6679    1.1068 C.ar    1  LIG1        0.0437
      5 S          -1.1470    0.3840    2.7413 S.2     1  LIG1       -0.0936
      6 H          -1.4909   -1.9844    3.2934 H       1  LIG1        0.0706
      7 C          -0.7135   -3.0246    0.7755 C.1     1  LIG1       -0.0679
      8 C          -0.6622   -4.1702    0.3913 C.1     1  LIG1       -0.1139
      9 H          -0.6153   -5.1771    0.0466 H       1  LIG1        0.1232
     10 C          -0.0634   -0.6329   -0.9456 C.1     1  LIG1       -0.0673
     11 C           0.2359   -0.7420   -2.1122 C.1     1  LIG1       -0.1138
     12 H           0.5049   -0.8273   -3.1394 H       1  LIG1        0.1232
     13 C          -0.3489    2.0248    0.6379 C.ar    1  LIG1        0.0443
     14 C           0.7887    2.5573    0.0496 C.ar    1  LIG1        0.0559
     15 C           0.6417    3.9584   -0.2900 C.ar    1  LIG1        0.0559
     16 C          -0.5921    4.4738    0.0791 C.ar    1  LIG1        0.0443
     17 S          -1.5917    3.2405    0.8094 S.2     1  LIG1       -0.0846
     18 C           1.9938    1.8387   -0.1634 C.1     1  LIG1       -0.0673
     19 C           3.0341    1.2463   -0.3346 C.1     1  LIG1       -0.1138
     20 H           3.9443    0.7142   -0.4867 H       1  LIG1        0.1232
     21 C           1.6475    4.6919   -0.9712 C.1     1  LIG1       -0.0673
     22 C           2.5072    5.2969   -1.5690 C.1     1  LIG1       -0.1138
     23 H           3.2609    5.8404   -2.0900 H       1  LIG1        0.1232
     24 C          -1.1031    5.8249   -0.0898 C.ar    1  LIG1        0.0443
     25 C          -0.5337    7.0258    0.3070 C.ar    1  LIG1        0.0559
     26 C          -1.3454    8.1743   -0.0428 C.ar    1  LIG1        0.0559
     27 C          -2.5332    7.8227   -0.6668 C.ar    1  LIG1        0.0443
     28 S          -2.6495    6.0902   -0.8592 S.2     1  LIG1       -0.0846
     29 C           0.6867    7.1387    1.0223 C.1     1  LIG1       -0.0673
     30 C           1.7147    7.2513    1.6492 C.1     1  LIG1       -0.1138
     31 H           2.6245    7.3404    2.1963 H       1  LIG1        0.1232
     32 C          -0.9280    9.5096    0.1952 C.1     1  LIG1       -0.0673
     33 C          -0.5488   10.6416    0.3882 C.1     1  LIG1       -0.1138
     34 H          -0.2260   11.6423    0.5589 H       1  LIG1        0.1232
     35 C          -3.5971    8.6859   -1.1556 C.ar    1  LIG1        0.0437
     36 C          -4.3004    9.6704   -0.4767 C.ar    1  LIG1        0.0553
     37 C          -5.2971   10.3147   -1.3129 C.ar    1  LIG1        0.0477
     38 C          -5.3270    9.7906   -2.5834 C.ar    1  LIG1       -0.0071
     39 S          -4.1631    8.5402   -2.8073 S.2     1  LIG1       -0.0936
     40 H          -5.9783   10.0876   -3.3927 H       1  LIG1        0.0706
     41 C          -4.1276    9.9830    0.8965 C.1     1  LIG1       -0.0673
     42 C          -4.0077   10.2516    2.0695 C.1     1  LIG1       -0.1138
     43 H          -3.8906   10.4840    3.1025 H       1  LIG1        0.1232
     44 C          -6.1558   11.3561   -0.8658 C.1     1  LIG1       -0.0679
     45 C          -6.8886   12.2427   -0.4921 C.1     1  LIG1       -0.1139
     46 H          -7.5313   13.0233   -0.1567 H       1  LIG1        0.1232
@<TRIPOS>BOND
     1    40    38    1
     2    12    11    1
     3    39    38   ar
     4    39    35   ar
     5    38    37   ar
     6    11    10    3
     7    23    22    1
     8    22    21    3
     9    37    44    1
    10    37    36   ar
    11    35    27    1
    12    35    36   ar
    13    21    15    1
    14    10     3    1
    15    44    45    3
    16    28    27   ar
    17    28    24   ar
    18    27    26   ar
    19    45    46    1
    20    20    19    1
    21    36    41    1
    22    19    18    3
    23    15    14   ar
    24    15    16   ar
    25    18    14    1
    26    24    16    1
    27    24    25   ar
    28    26    32    1
    29    26    25   ar
    30     9     8    1
    31    14    13   ar
    32    16    17   ar
    33    32    33    3
    34    25    29    1
    35    33    34    1
    36     8     7    3
    37     3     4   ar
    38     3     2   ar
    39    13    17   ar
    40    13     4    1
    41     7     2    1
    42    41    42    3
    43    29    30    3
    44     4     5   ar
    45     2     1   ar
    46    30    31    1
    47    42    43    1
    48     1     5   ar
    49     1     6    1
