@<TRIPOS>MOLECULE
mol_data/opt/b3lyp/geoms/mol2/5ee5ee5ee.out
 35 37 0 0 0
SMALL
GASTEIGER

@<TRIPOS>ATOM
      1 C          -1.8774   -1.8854    0.5816 C.ar    1  LIG1       -0.0071
      2 C          -0.7249   -1.8701   -0.1674 C.ar    1  LIG1        0.0477
      3 C          -0.1713   -0.5341   -0.2966 C.ar    1  LIG1        0.0553
      4 C          -0.9225    0.4172    0.3791 C.ar    1  LIG1        0.0437
      5 S          -2.3097   -0.3197    1.1566 S.2     1  LIG1       -0.0936
      6 H          -2.4850   -2.7463    0.8203 H       1  LIG1        0.0706
      7 C          -0.1517   -3.0280   -0.7611 C.1     1  LIG1       -0.0679
      8 C           0.3311   -4.0169   -1.2627 C.1     1  LIG1       -0.1139
      9 H           0.7612   -4.8842   -1.7075 H       1  LIG1        0.1232
     10 C           0.9724   -0.2478   -1.0856 C.1     1  LIG1       -0.0673
     11 C           1.9384   -0.0232   -1.7778 C.1     1  LIG1       -0.1138
     12 H           2.7911    0.1852   -2.3813 H       1  LIG1        0.1232
     13 C          -0.7019    1.8500    0.4859 C.ar    1  LIG1        0.0443
     14 C           0.4401    2.5294    0.8844 C.ar    1  LIG1        0.0559
     15 C           0.2672    3.9682    0.8820 C.ar    1  LIG1        0.0559
     16 C          -1.0030    4.3564    0.4817 C.ar    1  LIG1        0.0443
     17 S          -1.9891    2.9661    0.0983 S.2     1  LIG1       -0.0846
     18 C           1.6308    1.9018    1.3338 C.1     1  LIG1       -0.0673
     19 C           2.6463    1.3826    1.7360 C.1     1  LIG1       -0.1138
     20 H           3.5384    0.9159    2.0841 H       1  LIG1        0.1232
     21 C           1.2753    4.8615    1.3290 C.1     1  LIG1       -0.0673
     22 C           2.1388    5.6076    1.7291 C.1     1  LIG1       -0.1138
     23 H           2.8947    6.2735    2.0753 H       1  LIG1        0.1232
     24 C          -1.5567    5.6959    0.3704 C.ar    1  LIG1        0.0437
     25 C          -1.0519    6.7959   -0.3086 C.ar    1  LIG1        0.0553
     26 C          -1.9063    7.9632   -0.1835 C.ar    1  LIG1        0.0477
     27 C          -3.0300    7.7073    0.5657 C.ar    1  LIG1       -0.0071
     28 S          -3.0793    6.0857    1.1459 S.2     1  LIG1       -0.0936
     29 H          -3.8243    8.4006    0.8017 H       1  LIG1        0.0706
     30 C           0.1275    6.7862   -1.0970 C.1     1  LIG1       -0.0673
     31 C           1.1195    6.7946   -1.7888 C.1     1  LIG1       -0.1138
     32 H           1.9976    6.7922   -2.3918 H       1  LIG1        0.1232
     33 C          -1.6234    9.2219   -0.7812 C.1     1  LIG1       -0.0679
     34 C          -1.3884   10.2954   -1.2861 C.1     1  LIG1       -0.1139
     35 H          -1.1758   11.2385   -1.7338 H       1  LIG1        0.1232
@<TRIPOS>BOND
     1    32    31    1
     2    12    11    1
     3    31    30    3
     4    11    10    3
     5    35    34    1
     6     9     8    1
     7    34    33    3
     8     8     7    3
     9    30    25    1
    10    10     3    1
    11    33    26    1
    12     7     2    1
    13    25    26   ar
    14    25    24   ar
    15     3     2   ar
    16     3     4   ar
    17    26    27   ar
    18     2     1   ar
    19    17    16   ar
    20    17    13   ar
    21    24    16    1
    22    24    28   ar
    23     4    13    1
    24     4     5   ar
    25    16    15   ar
    26    13    14   ar
    27    27    29    1
    28    27    28   ar
    29     1     6    1
    30     1     5   ar
    31    15    14   ar
    32    15    21    1
    33    14    18    1
    34    21    22    3
    35    18    19    3
    36    22    23    1
    37    19    20    1
