@<TRIPOS>MOLECULE
mol_data/opt/b3lyp/geoms/mol2/5ee5ee.out
 24 25 0 0 0
SMALL
GASTEIGER

@<TRIPOS>ATOM
      1 C          -1.9272   -1.7166    0.9093 C.ar    1  LIG1       -0.0071
      2 C          -0.7026   -1.8594    0.3014 C.ar    1  LIG1        0.0477
      3 C          -0.1629   -0.5897   -0.1513 C.ar    1  LIG1        0.0553
      4 C          -0.9982    0.4769    0.1469 C.ar    1  LIG1        0.0437
      5 S          -2.4447   -0.0741    0.9679 S.2     1  LIG1       -0.0936
      6 H          -2.5411   -2.5027    1.3245 H       1  LIG1        0.0706
      7 C          -0.0491   -3.1095    0.1221 C.1     1  LIG1       -0.0679
      8 C           0.5017   -4.1759   -0.0265 C.1     1  LIG1       -0.1139
      9 H           0.9920   -5.1121   -0.1606 H       1  LIG1        0.1232
     10 C           1.0547   -0.4825   -0.8719 C.1     1  LIG1       -0.0673
     11 C           2.0863   -0.4143   -1.4994 C.1     1  LIG1       -0.1138
     12 H           2.9965   -0.3428   -2.0483 H       1  LIG1        0.1232
     13 C          -0.8134    1.8908   -0.1412 C.ar    1  LIG1        0.0437
     14 C           0.2607    2.7108    0.1722 C.ar    1  LIG1        0.0553
     15 C           0.0684    4.0750   -0.2865 C.ar    1  LIG1        0.0477
     16 C          -1.1425    4.2467   -0.9137 C.ar    1  LIG1       -0.0071
     17 S          -2.0594    2.7894   -0.9836 S.2     1  LIG1       -0.0936
     18 H          -1.5301    5.1621   -1.3370 H       1  LIG1        0.0706
     19 C           1.3997    2.2992    0.9117 C.1     1  LIG1       -0.0673
     20 C           2.3702    1.9726    1.5550 C.1     1  LIG1       -0.1138
     21 H           3.2237    1.6733    2.1179 H       1  LIG1        0.1232
     22 C           1.0152    5.1184   -0.0945 C.1     1  LIG1       -0.0679
     23 C           1.8163    6.0103    0.0648 C.1     1  LIG1       -0.1139
     24 H           2.5262    6.7915    0.2085 H       1  LIG1        0.1232
@<TRIPOS>BOND
     1    12    11    1
     2    11    10    3
     3    18    16    1
     4    17    16   ar
     5    17    13   ar
     6    16    15   ar
     7    10     3    1
     8    15    22    1
     9    15    14   ar
    10     9     8    1
    11     3     4   ar
    12     3     2   ar
    13    13     4    1
    14    13    14   ar
    15    22    23    3
    16     8     7    3
    17    23    24    1
    18     7     2    1
    19     4     5   ar
    20    14    19    1
    21     2     1   ar
    22     1     5   ar
    23     1     6    1
    24    19    20    3
    25    20    21    1
