@<TRIPOS>MOLECULE
mol_data/opt/b3lyp/geoms/mol2/5ee5ee5ee5ee-.out
 46 49 0 0 0
SMALL
GASTEIGER

@<TRIPOS>ATOM
      1 C          -1.9252   -1.8883    0.4630 C.ar    1  LIG1       -0.0071
      2 C          -0.6680   -1.9194   -0.0919 C.ar    1  LIG1        0.0477
      3 C          -0.0869   -0.5941   -0.2102 C.ar    1  LIG1        0.0553
      4 C          -0.9261    0.3968    0.2795 C.ar    1  LIG1        0.0437
      5 S          -2.4271   -0.2906    0.8681 S.2     1  LIG1       -0.0936
      6 H          -2.5720   -2.7328    0.6526 H       1  LIG1        0.0706
      7 C          -0.0198   -3.1115   -0.5166 C.1     1  LIG1       -0.0679
      8 C           0.5263   -4.1293   -0.8750 C.1     1  LIG1       -0.1139
      9 H           1.0125   -5.0223   -1.1928 H       1  LIG1        0.1232
     10 C           1.1699   -0.3571   -0.8241 C.1     1  LIG1       -0.0673
     11 C           2.2351   -0.1759   -1.3674 C.1     1  LIG1       -0.1138
     12 H           3.1742   -0.0054   -1.8403 H       1  LIG1        0.1232
     13 C          -0.7118    1.8335    0.3322 C.ar    1  LIG1        0.0443
     14 C           0.3612    2.5375    0.8595 C.ar    1  LIG1        0.0559
     15 C           0.2044    3.9730    0.7405 C.ar    1  LIG1        0.0559
     16 C          -0.9852    4.3344    0.1241 C.ar    1  LIG1        0.0443
     17 S          -1.9140    2.9216   -0.3181 S.2     1  LIG1       -0.0846
     18 C           1.4618    1.9403    1.5272 C.1     1  LIG1       -0.0673
     19 C           2.3976    1.4484    2.1143 C.1     1  LIG1       -0.1138
     20 H           3.2201    1.0051    2.6260 H       1  LIG1        0.1232
     21 C           1.1383    4.8922    1.2848 C.1     1  LIG1       -0.0673
     22 C           1.9358    5.6607    1.7705 C.1     1  LIG1       -0.1138
     23 H           2.6342    6.3463    2.1913 H       1  LIG1        0.1232
     24 C          -1.5054    5.6619   -0.1539 C.ar    1  LIG1        0.0443
     25 C          -0.8910    6.7232   -0.8036 C.ar    1  LIG1        0.0559
     26 C          -1.7469    7.8875   -0.9097 C.ar    1  LIG1        0.0559
     27 C          -2.9963    7.6905   -0.3396 C.ar    1  LIG1        0.0443
     28 S          -3.1290    6.0845    0.3354 S.2     1  LIG1       -0.0846
     29 C           0.4004    6.6673   -1.3889 C.1     1  LIG1       -0.0673
     30 C           1.4915    6.6313   -1.9092 C.1     1  LIG1       -0.1138
     31 H           2.4555    6.5907   -2.3607 H       1  LIG1        0.1232
     32 C          -1.3589    9.0621   -1.6050 C.1     1  LIG1       -0.0673
     33 C          -1.0188   10.0489   -2.2158 C.1     1  LIG1       -0.1138
     34 H          -0.7272   10.9243   -2.7481 H       1  LIG1        0.1232
     35 C          -4.1214    8.6075   -0.2622 C.ar    1  LIG1        0.0437
     36 C          -4.1546    9.9113    0.2122 C.ar    1  LIG1        0.0553
     37 C          -5.4806   10.4966    0.1291 C.ar    1  LIG1        0.0477
     38 C          -6.4053    9.6189   -0.3849 C.ar    1  LIG1       -0.0071
     39 S          -5.7114    8.0956   -0.7932 S.2     1  LIG1       -0.0936
     40 H          -7.4579    9.8039   -0.5431 H       1  LIG1        0.0706
     41 C          -3.0477   10.5915    0.7820 C.1     1  LIG1       -0.0673
     42 C          -2.1222   11.1829    1.2883 C.1     1  LIG1       -0.1138
     43 H          -1.2990   11.6963    1.7282 H       1  LIG1        0.1232
     44 C          -5.7925   11.8193    0.5472 C.1     1  LIG1       -0.0679
     45 C          -6.0643   12.9438    0.9000 C.1     1  LIG1       -0.1139
     46 H          -6.2975   13.9351    1.2128 H       1  LIG1        0.1232
@<TRIPOS>BOND
     1    34    33    1
     2    31    30    1
     3    33    32    3
     4    30    29    3
     5    12    11    1
     6    32    26    1
     7    29    25    1
     8    11    10    3
     9     9     8    1
    10    26    25   ar
    11    26    27   ar
    12     8     7    3
    13    10     3    1
    14    25    24   ar
    15    39    38   ar
    16    39    35   ar
    17    40    38    1
    18     7     2    1
    19    38    37   ar
    20    27    35    1
    21    27    28   ar
    22    17    16   ar
    23    17    13   ar
    24    35    36   ar
    25     3     2   ar
    26     3     4   ar
    27    24    16    1
    28    24    28   ar
    29     2     1   ar
    30    16    15   ar
    31    37    36   ar
    32    37    44    1
    33    36    41    1
    34     4    13    1
    35     4     5   ar
    36    13    14   ar
    37     1     6    1
    38     1     5   ar
    39    44    45    3
    40    15    14   ar
    41    15    21    1
    42    41    42    3
    43    14    18    1
    44    45    46    1
    45    21    22    3
    46    42    43    1
    47    18    19    3
    48    22    23    1
    49    19    20    1
