@<TRIPOS>MOLECULE
mol_data/opt/b3lyp/geoms/mol2/5ee5ee5ee5ee.out
 46 49 0 0 0
SMALL
GASTEIGER

@<TRIPOS>ATOM
      1 C          -1.9642   -1.8909    0.3627 C.ar    1  LIG1       -0.0071
      2 C          -0.6891   -1.9200   -0.1499 C.ar    1  LIG1        0.0477
      3 C          -0.1000   -0.5957   -0.2326 C.ar    1  LIG1        0.0553
      4 C          -0.9518    0.3925    0.2406 C.ar    1  LIG1        0.0437
      5 S          -2.4741   -0.2963    0.7701 S.2     1  LIG1       -0.0936
      6 H          -2.6198   -2.7351    0.5203 H       1  LIG1        0.0706
      7 C          -0.0310   -3.1094   -0.5670 C.1     1  LIG1       -0.0679
      8 C           0.5235   -4.1249   -0.9190 C.1     1  LIG1       -0.1139
      9 H           1.0171   -5.0159   -1.2312 H       1  LIG1        0.1232
     10 C           1.1776   -0.3560   -0.8010 C.1     1  LIG1       -0.0673
     11 C           2.2611   -0.1723   -1.3059 C.1     1  LIG1       -0.1138
     12 H           3.2162    0.0003   -1.7448 H       1  LIG1        0.1232
     13 C          -0.7345    1.8276    0.3179 C.ar    1  LIG1        0.0443
     14 C           0.3224    2.5211    0.8896 C.ar    1  LIG1        0.0559
     15 C           0.1747    3.9585    0.7828 C.ar    1  LIG1        0.0559
     16 C          -0.9923    4.3318    0.1310 C.ar    1  LIG1        0.0443
     17 S          -1.9104    2.9280   -0.3594 S.2     1  LIG1       -0.0846
     18 C           1.3978    1.9117    1.5867 C.1     1  LIG1       -0.0673
     19 C           2.3116    1.4092    2.1990 C.1     1  LIG1       -0.1138
     20 H           3.1149    0.9567    2.7326 H       1  LIG1        0.1232
     21 C           1.0927    4.8675    1.3695 C.1     1  LIG1       -0.0673
     22 C           1.8759    5.6271    1.8911 C.1     1  LIG1       -0.1138
     23 H           2.5620    6.3048    2.3436 H       1  LIG1        0.1232
     24 C          -1.4982    5.6645   -0.1483 C.ar    1  LIG1        0.0443
     25 C          -0.8585    6.7313   -0.7638 C.ar    1  LIG1        0.0559
     26 C          -1.7065    7.9000   -0.8846 C.ar    1  LIG1        0.0559
     27 C          -2.9752    7.7008   -0.3598 C.ar    1  LIG1        0.0443
     28 S          -3.1362    6.0873    0.2906 S.2     1  LIG1       -0.0846
     29 C           0.4518    6.6776   -1.3055 C.1     1  LIG1       -0.0673
     30 C           1.5597    6.6439   -1.7890 C.1     1  LIG1       -0.1138
     31 H           2.5384    6.6053   -2.2080 H       1  LIG1        0.1232
     32 C          -1.2911    9.0816   -1.5518 C.1     1  LIG1       -0.0673
     33 C          -0.9271   10.0745   -2.1384 C.1     1  LIG1       -0.1138
     34 H          -0.6146   10.9553   -2.6495 H       1  LIG1        0.1232
     35 C          -4.0992    8.6210   -0.3095 C.ar    1  LIG1        0.0437
     36 C          -4.1443    9.9189    0.1799 C.ar    1  LIG1        0.0553
     37 C          -5.4648   10.5102    0.0588 C.ar    1  LIG1        0.0477
     38 C          -6.3741    9.6425   -0.4977 C.ar    1  LIG1       -0.0071
     39 S          -5.6718    8.1218   -0.9011 S.2     1  LIG1       -0.0936
     40 H          -7.4201    9.8335   -0.6895 H       1  LIG1        0.0706
     41 C          -3.0553   10.5878    0.7958 C.1     1  LIG1       -0.0673
     42 C          -2.1457   11.1693    1.3407 C.1     1  LIG1       -0.1138
     43 H          -1.3364   11.6741    1.8151 H       1  LIG1        0.1232
     44 C          -5.7863   11.8288    0.4825 C.1     1  LIG1       -0.0679
     45 C          -6.0662   12.9497    0.8400 C.1     1  LIG1       -0.1139
     46 H          -6.3066   13.9379    1.1573 H       1  LIG1        0.1232
@<TRIPOS>BOND
     1    34    33    1
     2    31    30    1
     3    33    32    3
     4    30    29    3
     5    12    11    1
     6    32    26    1
     7    11    10    3
     8    29    25    1
     9     9     8    1
    10     8     7    3
    11    39    38   ar
    12    39    35   ar
    13    26    25   ar
    14    26    27   ar
    15    10     3    1
    16    25    24   ar
    17    40    38    1
    18     7     2    1
    19    38    37   ar
    20    27    35    1
    21    27    28   ar
    22    17    16   ar
    23    17    13   ar
    24    35    36   ar
    25     3     2   ar
    26     3     4   ar
    27     2     1   ar
    28    24    16    1
    29    24    28   ar
    30    37    36   ar
    31    37    44    1
    32    16    15   ar
    33    36    41    1
    34     4    13    1
    35     4     5   ar
    36    13    14   ar
    37     1     6    1
    38     1     5   ar
    39    44    45    3
    40    15    14   ar
    41    15    21    1
    42    41    42    3
    43    45    46    1
    44    14    18    1
    45    42    43    1
    46    21    22    3
    47    18    19    3
    48    22    23    1
    49    19    20    1
