@<TRIPOS>MOLECULE
mol_data/opt/b3lyp/geoms/mol2/5ee5ee5ee-.out
 35 37 0 0 0
SMALL
GASTEIGER

@<TRIPOS>ATOM
      1 C          -1.6556   -1.5862    1.6660 C.ar    1  LIG1       -0.0071
      2 C          -0.7570   -1.8449    0.6584 C.ar    1  LIG1        0.0477
      3 C          -0.2529   -0.6285    0.0467 C.ar    1  LIG1        0.0553
      4 C          -0.7807    0.5146    0.6297 C.ar    1  LIG1        0.0437
      5 S          -1.9005    0.1013    1.9125 S.2     1  LIG1       -0.0936
      6 H          -2.1778   -2.3124    2.2721 H       1  LIG1        0.0706
      7 C          -0.3789   -3.1539    0.2520 C.1     1  LIG1       -0.0679
      8 C          -0.0609   -4.2700   -0.0883 C.1     1  LIG1       -0.1139
      9 H           0.2231   -5.2506   -0.3930 H       1  LIG1        0.1232
     10 C           0.6291   -0.6333   -1.0646 C.1     1  LIG1       -0.0673
     11 C           1.3668   -0.6593   -2.0226 C.1     1  LIG1       -0.1138
     12 H           2.0209   -0.6707   -2.8634 H       1  LIG1        0.1232
     13 C          -0.5307    1.9083    0.2970 C.ar    1  LIG1        0.0443
     14 C           0.6809    2.5760    0.1979 C.ar    1  LIG1        0.0559
     15 C           0.5254    3.9709   -0.1642 C.ar    1  LIG1        0.0559
     16 C          -0.8029    4.3462   -0.2987 C.ar    1  LIG1        0.0443
     17 S          -1.8669    2.9891   -0.0175 S.2     1  LIG1       -0.0846
     18 C           1.9452    1.9890    0.4641 C.1     1  LIG1       -0.0673
     19 C           3.0287    1.5092    0.7059 C.1     1  LIG1       -0.1138
     20 H           3.9790    1.0760    0.9153 H       1  LIG1        0.1232
     21 C           1.6302    4.8305   -0.3972 C.1     1  LIG1       -0.0673
     22 C           2.5826    5.5446   -0.6106 C.1     1  LIG1       -0.1138
     23 H           3.4152    6.1830   -0.7950 H       1  LIG1        0.1232
     24 C          -1.3538    5.6477   -0.6426 C.ar    1  LIG1        0.0437
     25 C          -1.1158    6.8790   -0.0492 C.ar    1  LIG1        0.0553
     26 C          -1.8660    7.9509   -0.6785 C.ar    1  LIG1        0.0477
     27 C          -2.6543    7.4979   -1.7095 C.ar    1  LIG1       -0.0071
     28 S          -2.5025    5.7996   -1.9570 S.2     1  LIG1       -0.0936
     29 H          -3.3109    8.0882   -2.3321 H       1  LIG1        0.0706
     30 C          -0.2887    7.0808    1.0859 C.1     1  LIG1       -0.0673
     31 C           0.3972    7.2710    2.0636 C.1     1  LIG1       -0.1138
     32 H           1.0083    7.4282    2.9219 H       1  LIG1        0.1232
     33 C          -1.8065    9.3104   -0.2662 C.1     1  LIG1       -0.0679
     34 C          -1.7598   10.4686    0.0790 C.1     1  LIG1       -0.1139
     35 H          -1.7145   11.4871    0.3880 H       1  LIG1        0.1232
@<TRIPOS>BOND
     1    12    11    1
     2    29    27    1
     3    11    10    3
     4    28    27   ar
     5    28    24   ar
     6    27    26   ar
     7    10     3    1
     8    23    22    1
     9    26    33    1
    10    26    25   ar
    11    24    16    1
    12    24    25   ar
    13    22    21    3
    14    21    15    1
    15     9     8    1
    16    16    15   ar
    17    16    17   ar
    18    33    34    3
    19    15    14   ar
    20     8     7    3
    21    25    30    1
    22    17    13   ar
    23     3     4   ar
    24     3     2   ar
    25    34    35    1
    26    14    13   ar
    27    14    18    1
    28     7     2    1
    29    13     4    1
    30    18    19    3
    31     4     5   ar
    32     2     1   ar
    33    19    20    1
    34    30    31    3
    35     1     5   ar
    36     1     6    1
    37    31    32    1
