@<TRIPOS>MOLECULE
mol_data/opt/b3lyp/geoms/mol2/5ee5ee-.out
 24 25 0 0 0
SMALL
GASTEIGER

@<TRIPOS>ATOM
      1 C          -1.9193   -1.7174    0.9145 C.ar    1  LIG1       -0.0071
      2 C          -0.6997   -1.8598    0.2965 C.ar    1  LIG1        0.0477
      3 C          -0.1639   -0.5897   -0.1598 C.ar    1  LIG1        0.0553
      4 C          -0.9968    0.4766    0.1457 C.ar    1  LIG1        0.0437
      5 S          -2.4364   -0.0749    0.9783 S.2     1  LIG1       -0.0936
      6 H          -2.5298   -2.5037    1.3344 H       1  LIG1        0.0706
      7 C          -0.0476   -3.1096    0.1112 C.1     1  LIG1       -0.0679
      8 C           0.5020   -4.1759   -0.0425 C.1     1  LIG1       -0.1139
      9 H           0.9913   -5.1121   -0.1812 H       1  LIG1        0.1232
     10 C           1.0478   -0.4820   -0.8904 C.1     1  LIG1       -0.0673
     11 C           2.0743   -0.4135   -1.5262 C.1     1  LIG1       -0.1138
     12 H           2.9799   -0.3416   -2.0824 H       1  LIG1        0.1232
     13 C          -0.8146    1.8907   -0.1433 C.ar    1  LIG1        0.0437
     14 C           0.2620    2.7107    0.1611 C.ar    1  LIG1        0.0553
     15 C           0.0654    4.0752   -0.2949 C.ar    1  LIG1        0.0477
     16 C          -1.1511    4.2471   -0.9114 C.ar    1  LIG1       -0.0071
     17 S          -2.0681    2.7895   -0.9743 S.2     1  LIG1       -0.0936
     18 H          -1.5427    5.1626   -1.3306 H       1  LIG1        0.0706
     19 C           1.4076    2.2990    0.8902 C.1     1  LIG1       -0.0673
     20 C           2.3838    1.9722    1.5248 C.1     1  LIG1       -0.1138
     21 H           3.2422    1.6727    2.0800 H       1  LIG1        0.1232
     22 C           1.0135    5.1187   -0.1106 C.1     1  LIG1       -0.0679
     23 C           1.8159    6.0106    0.0422 C.1     1  LIG1       -0.1139
     24 H           2.5269    6.7919    0.1802 H       1  LIG1        0.1232
@<TRIPOS>BOND
     1    12    11    1
     2    11    10    3
     3    18    16    1
     4    17    16   ar
     5    17    13   ar
     6    16    15   ar
     7    10     3    1
     8    15    22    1
     9    15    14   ar
    10     9     8    1
    11     3     4   ar
    12     3     2   ar
    13    13     4    1
    14    13    14   ar
    15    22    23    3
    16     8     7    3
    17    23    24    1
    18     7     2    1
    19     4     5   ar
    20    14    19    1
    21     2     1   ar
    22    19    20    3
    23     1     5   ar
    24     1     6    1
    25    20    21    1
