@<TRIPOS>MOLECULE
mol_data/opt/b3lyp/geoms/mol2/5ef.out
 12 12 0 0 0
SMALL
GASTEIGER

@<TRIPOS>ATOM
      1 C          -2.1090   -1.6978    0.0001 C.ar    1  LIG1       -0.0053
      2 C          -0.7326   -1.6789   -0.0002 C.ar    1  LIG1        0.0730
      3 C          -0.2248   -0.3253   -0.0001 C.ar    1  LIG1        0.1391
      4 C          -1.2121    0.6209    0.0002 C.ar    1  LIG1        0.0184
      5 S          -2.7908   -0.1127    0.0005 S.2     1  LIG1       -0.1001
      6 H          -2.7451   -2.5705    0.0001 H       1  LIG1        0.0707
      7 H          -1.1077    1.6968    0.0003 H       1  LIG1        0.0730
      8 C           0.0931   -2.8355   -0.0004 C.1     1  LIG1       -0.0655
      9 C           0.7938   -3.8218   -0.0008 C.1     1  LIG1       -0.1138
     10 H           1.4153   -4.6868   -0.0015 H       1  LIG1        0.1232
     11 O           1.1202   -0.1215   -0.0003 O.3     1  LIG1       -0.5050
     12 H           1.2970    0.8282   -0.0003 H       1  LIG1        0.2922
@<TRIPOS>BOND
     1    10     9    1
     2     9     8    3
     3     8     2    1
     4    12    11    1
     5    11     3    1
     6     2     3   ar
     7     2     1   ar
     8     3     4   ar
     9     6     1    1
    10     1     5   ar
    11     4     7    1
    12     4     5   ar
