@<TRIPOS>MOLECULE
mol_data/opt/b3lyp/geoms/mol2/5ef5ef-5ef-.out
 32 34 0 0 0
SMALL
GASTEIGER

@<TRIPOS>ATOM
      1 C          -2.1379   -1.8349   -0.1938 C.ar    1  LIG1       -0.0047
      2 C          -0.8309   -1.9068    0.2273 C.ar    1  LIG1        0.0737
      3 C          -0.1889   -0.6132    0.2224 C.ar    1  LIG1        0.1474
      4 C          -1.0230    0.4121   -0.2065 C.ar    1  LIG1        0.0698
      5 S          -2.6118   -0.2367   -0.6227 S.2     1  LIG1       -0.0911
      6 H          -2.8312   -2.6573   -0.2950 H       1  LIG1        0.0707
      7 C          -0.1775   -3.1045    0.6252 C.1     1  LIG1       -0.0655
      8 C           0.3705   -4.1290    0.9615 C.1     1  LIG1       -0.1138
      9 H           0.8599   -5.0268    1.2601 H       1  LIG1        0.1232
     10 O           1.0743   -0.5212    0.6760 O.3     1  LIG1       -0.5044
     11 H           1.5156    0.2685    0.3120 H       1  LIG1        0.2922
     12 C          -0.7953    1.8381   -0.2595 C.ar    1  LIG1        0.0490
     13 C           0.3703    2.5478   -0.5353 C.ar    1  LIG1        0.0820
     14 C           0.1987    3.9759   -0.4609 C.ar    1  LIG1        0.1481
     15 C          -1.0942    4.3637   -0.1464 C.ar    1  LIG1        0.0704
     16 S          -2.0982    2.9396    0.1259 S.2     1  LIG1       -0.0820
     17 C           1.6001    1.9583   -0.9241 C.1     1  LIG1       -0.0648
     18 C           2.6498    1.4371   -1.2370 C.1     1  LIG1       -0.1138
     19 H           3.5629    0.9904   -1.5576 H       1  LIG1        0.1232
     20 O           1.2457    4.7598   -0.7803 O.3     1  LIG1       -0.5044
     21 H           1.1488    5.6434   -0.3789 H       1  LIG1        0.2922
     22 C          -1.6890    5.6807   -0.1095 C.ar    1  LIG1        0.0484
     23 C          -1.1335    6.8979    0.2814 C.ar    1  LIG1        0.0814
     24 C          -2.0562    7.9971    0.1394 C.ar    1  LIG1        0.1398
     25 C          -3.2832    7.6205   -0.3252 C.ar    1  LIG1        0.0190
     26 S          -3.3424    5.9107   -0.6434 S.2     1  LIG1       -0.0910
     27 H          -4.1540    8.2377   -0.4949 H       1  LIG1        0.0731
     28 C           0.1682    7.0580    0.8183 C.1     1  LIG1       -0.0648
     29 C           1.2922    7.1825    1.2581 C.1     1  LIG1       -0.1138
     30 H           2.2599    7.2952    1.6904 H       1  LIG1        0.1232
     31 O          -1.6449    9.2455    0.4861 O.3     1  LIG1       -0.5050
     32 H          -2.3713    9.8685    0.3540 H       1  LIG1        0.2922
@<TRIPOS>BOND
     1    19    18    1
     2    18    17    3
     3    17    13    1
     4    20    14    1
     5    20    21    1
     6    26    25   ar
     7    26    22   ar
     8     5     4   ar
     9     5     1   ar
    10    13    14   ar
    11    13    12   ar
    12    27    25    1
    13    14    15   ar
    14    25    24   ar
    15     6     1    1
    16    12     4    1
    17    12    16   ar
    18     4     3   ar
    19     1     2   ar
    20    15    22    1
    21    15    16   ar
    22    22    23   ar
    23    24    23   ar
    24    24    31    1
    25     3     2   ar
    26     3    10    1
    27     2     7    1
    28    23    28    1
    29    11    10    1
    30    32    31    1
    31     7     8    3
    32    28    29    3
    33     8     9    1
    34    29    30    1
