@<TRIPOS>MOLECULE
mol_data/opt/b3lyp/geoms/mol2/5ef5ef-5ef-5ef-.out
 42 45 0 0 0
SMALL
GASTEIGER

@<TRIPOS>ATOM
      1 C          -2.2337   -1.7958   -0.2574 C.ar    1  LIG1       -0.0047
      2 C          -0.9149   -1.9387    0.1047 C.ar    1  LIG1        0.0737
      3 C          -0.2210   -0.6727    0.1307 C.ar    1  LIG1        0.1474
      4 C          -1.0293    0.4037   -0.2159 C.ar    1  LIG1        0.0698
      5 S          -2.6593   -0.1621   -0.5927 S.2     1  LIG1       -0.0911
      6 H          -2.9636   -2.5849   -0.3665 H       1  LIG1        0.0707
      7 C          -0.2957   -3.1783    0.4204 C.1     1  LIG1       -0.0655
      8 C           0.2231   -4.2378    0.6872 C.1     1  LIG1       -0.1138
      9 H           0.6867   -5.1671    0.9244 H       1  LIG1        0.1232
     10 O           1.0618   -0.6517    0.5345 O.3     1  LIG1       -0.5044
     11 H           1.5205    0.1367    0.1898 H       1  LIG1        0.2922
     12 C          -0.7454    1.8201   -0.2123 C.ar    1  LIG1        0.0490
     13 C           0.4383    2.4950   -0.5009 C.ar    1  LIG1        0.0820
     14 C           0.3314    3.9226   -0.3512 C.ar    1  LIG1        0.1481
     15 C          -0.9321    4.3474    0.0357 C.ar    1  LIG1        0.0704
     16 S          -1.9855    2.9521    0.2766 S.2     1  LIG1       -0.0820
     17 C           1.6258    1.8765   -0.9685 C.1     1  LIG1       -0.0648
     18 C           2.6394    1.3303   -1.3497 C.1     1  LIG1       -0.1138
     19 H           3.5194    0.8639   -1.7294 H       1  LIG1        0.1232
     20 O           1.3965    4.6760   -0.6778 O.3     1  LIG1       -0.5044
     21 H           1.3521    5.5470   -0.2397 H       1  LIG1        0.2922
     22 C          -1.4705    5.6799    0.1614 C.ar    1  LIG1        0.0491
     23 C          -0.8492    6.8625    0.5572 C.ar    1  LIG1        0.0820
     24 C          -1.7247    8.0049    0.5219 C.ar    1  LIG1        0.1481
     25 C          -3.0163    7.7026    0.1197 C.ar    1  LIG1        0.0704
     26 S          -3.1347    5.9895   -0.2829 S.2     1  LIG1       -0.0820
     27 C           0.4857    6.9551    1.0259 C.1     1  LIG1       -0.0648
     28 C           1.6354    7.0210    1.4078 C.1     1  LIG1       -0.1138
     29 H           2.6279    7.0823    1.7916 H       1  LIG1        0.1232
     30 O          -1.2448    9.1865    0.9531 O.3     1  LIG1       -0.5044
     31 H          -1.7612    9.9251    0.5801 H       1  LIG1        0.2922
     32 C          -4.1995    8.5321    0.0864 C.ar    1  LIG1        0.0484
     33 C          -4.3277    9.8879   -0.2107 C.ar    1  LIG1        0.0814
     34 C          -5.6888   10.3513   -0.1002 C.ar    1  LIG1        0.1398
     35 C          -6.5705    9.3697    0.2494 C.ar    1  LIG1        0.0190
     36 S          -5.7613    7.8488    0.4944 S.2     1  LIG1       -0.0910
     37 H          -7.6416    9.4440    0.3732 H       1  LIG1        0.0731
     38 C          -3.2677   10.7274   -0.6351 C.1     1  LIG1       -0.0648
     39 C          -2.3469   11.4391   -0.9784 C.1     1  LIG1       -0.1138
     40 H          -1.5546   12.0610   -1.3271 H       1  LIG1        0.1232
     41 O          -5.9587   11.6572   -0.3638 O.3     1  LIG1       -0.5050
     42 H          -6.9072   11.8125   -0.2668 H       1  LIG1        0.2922
@<TRIPOS>BOND
     1    19    18    1
     2    18    17    3
     3    40    39    1
     4    39    38    3
     5    17    13    1
     6    20    14    1
     7    20    21    1
     8    38    33    1
     9     5     1   ar
    10     5     4   ar
    11    13    14   ar
    12    13    12   ar
    13     6     1    1
    14    41    42    1
    15    41    34    1
    16    14    15   ar
    17    26    25   ar
    18    26    22   ar
    19     1     2   ar
    20     4    12    1
    21     4     3   ar
    22    12    16   ar
    23    33    34   ar
    24    33    32   ar
    25    34    35   ar
    26    15    22    1
    27    15    16   ar
    28    32    25    1
    29    32    36   ar
    30     2     3   ar
    31     2     7    1
    32    25    24   ar
    33     3    10    1
    34    22    23   ar
    35    11    10    1
    36    35    37    1
    37    35    36   ar
    38     7     8    3
    39    24    23   ar
    40    24    30    1
    41    23    27    1
    42    31    30    1
    43     8     9    1
    44    27    28    3
    45    28    29    1
