@<TRIPOS>MOLECULE
mol_data/opt/b3lyp/geoms/mol2/5ef5ef-5ef.out
 32 34 0 0 0
SMALL
GASTEIGER

@<TRIPOS>ATOM
      1 C          -2.3227   -1.7851    0.0006 C.ar    1  LIG1       -0.0047
      2 C          -0.9674   -2.0025   -0.0003 C.ar    1  LIG1        0.0737
      3 C          -0.2167   -0.7679   -0.0001 C.ar    1  LIG1        0.1474
      4 C          -1.0191    0.3731    0.0010 C.ar    1  LIG1        0.0698
      5 S          -2.7258   -0.1148    0.0018 S.2     1  LIG1       -0.0911
      6 H          -3.1006   -2.5348    0.0007 H       1  LIG1        0.0707
      7 C          -0.3571   -3.2858   -0.0014 C.1     1  LIG1       -0.0655
      8 C           0.1505   -4.3836   -0.0023 C.1     1  LIG1       -0.1138
      9 H           0.6054   -5.3469   -0.0031 H       1  LIG1        0.1232
     10 O           1.1183   -0.8713   -0.0011 O.3     1  LIG1       -0.5044
     11 H           1.5554    0.0028   -0.0007 H       1  LIG1        0.2922
     12 C          -0.7090    1.7873    0.0015 C.ar    1  LIG1        0.0490
     13 C           0.4927    2.4981    0.0016 C.ar    1  LIG1        0.0820
     14 C           0.3171    3.9305    0.0022 C.ar    1  LIG1        0.1481
     15 C          -1.0075    4.3456    0.0025 C.ar    1  LIG1        0.0704
     16 S          -2.0491    2.9159    0.0021 S.2     1  LIG1       -0.0820
     17 C           1.8137    1.9784    0.0014 C.1     1  LIG1       -0.0648
     18 C           2.9742    1.6238    0.0012 C.1     1  LIG1       -0.1138
     19 H           3.9893    1.2984    0.0012 H       1  LIG1        0.1232
     20 O           1.4360    4.6694    0.0023 O.3     1  LIG1       -0.5044
     21 H           1.2432    5.6274    0.0026 H       1  LIG1        0.2922
     22 C          -1.6322    5.6519    0.0032 C.ar    1  LIG1        0.0484
     23 C          -1.1124    6.9520    0.0034 C.ar    1  LIG1        0.0814
     24 C          -2.1444    7.9626    0.0042 C.ar    1  LIG1        0.1398
     25 C          -3.4109    7.4604    0.0046 C.ar    1  LIG1        0.0190
     26 S          -3.3895    5.7231    0.0040 S.2     1  LIG1       -0.0910
     27 H          -4.3498    7.9949    0.0051 H       1  LIG1        0.0731
     28 C           0.2480    7.3534    0.0029 C.1     1  LIG1       -0.0648
     29 C           1.3809    7.7894    0.0024 C.1     1  LIG1       -0.1138
     30 H           2.3808    8.1585    0.0020 H       1  LIG1        0.1232
     31 O          -1.7727    9.2707    0.0045 O.3     1  LIG1       -0.5050
     32 H          -2.5640    9.8247    0.0049 H       1  LIG1        0.2922
@<TRIPOS>BOND
     1     9     8    1
     2     8     7    3
     3     7     2    1
     4    10    11    1
     5    10     3    1
     6     2     3   ar
     7     2     1   ar
     8     3     4   ar
     9     1     6    1
    10     1     5   ar
    11     4    12    1
    12     4     5   ar
    13    19    18    1
    14    18    17    3
    15    17    13    1
    16    12    13   ar
    17    12    16   ar
    18    13    14   ar
    19    30    29    1
    20    16    15   ar
    21    14    20    1
    22    14    15   ar
    23    20    21    1
    24    29    28    3
    25    15    22    1
    26    28    23    1
    27    22    23   ar
    28    22    26   ar
    29    23    24   ar
    30    26    25   ar
    31    24    31    1
    32    24    25   ar
    33    31    32    1
    34    25    27    1
