@<TRIPOS>MOLECULE
mol_data/opt/b3lyp/geoms/mol2/5ef5ef.out
 22 23 0 0 0
SMALL
GASTEIGER

@<TRIPOS>ATOM
      1 C          -2.0365   -1.7855    0.5854 C.ar    1  LIG1       -0.0047
      2 C          -0.7722   -1.8494    0.0489 C.ar    1  LIG1        0.0737
      3 C          -0.2148   -0.5365   -0.1802 C.ar    1  LIG1        0.1474
      4 C          -1.0675    0.4940    0.1892 C.ar    1  LIG1        0.0698
      5 S          -2.5658   -0.1677    0.8458 S.2     1  LIG1       -0.0911
      6 H          -2.6657   -2.6191    0.8618 H       1  LIG1        0.0707
      7 C          -0.0851   -3.0565   -0.2516 C.1     1  LIG1       -0.0655
      8 C           0.4921   -4.0894   -0.5033 C.1     1  LIG1       -0.1138
      9 H           1.0062   -4.9945   -0.7289 H       1  LIG1        0.1232
     10 O           0.9963   -0.4428   -0.7626 O.3     1  LIG1       -0.5044
     11 H           1.4191    0.4062   -0.5396 H       1  LIG1        0.2922
     12 C          -0.9199    1.9252    0.0277 C.ar    1  LIG1        0.0484
     13 C           0.2214    2.7174    0.1259 C.ar    1  LIG1        0.0814
     14 C          -0.0479    4.1102   -0.1354 C.ar    1  LIG1        0.1398
     15 C          -1.3609    4.3684   -0.4047 C.ar    1  LIG1        0.0190
     16 S          -2.3085    2.9090   -0.3880 S.2     1  LIG1       -0.0910
     17 H          -1.8284    5.3215   -0.6074 H       1  LIG1        0.0731
     18 C           1.5055    2.2426    0.4935 C.1     1  LIG1       -0.0648
     19 C           2.6026    1.8167    0.7880 C.1     1  LIG1       -0.1138
     20 H           3.5597    1.4579    1.0897 H       1  LIG1        0.1232
     21 O           0.9789    4.9989   -0.0710 O.3     1  LIG1       -0.5050
     22 H           0.6442    5.8859   -0.2569 H       1  LIG1        0.2922
@<TRIPOS>BOND
     1    10    11    1
     2    10     3    1
     3     9     8    1
     4    17    15    1
     5     8     7    3
     6    15    16   ar
     7    15    14   ar
     8    16    12   ar
     9    22    21    1
    10     7     2    1
    11     3     2   ar
    12     3     4   ar
    13    14    21    1
    14    14    13   ar
    15    12    13   ar
    16    12     4    1
    17     2     1   ar
    18    13    18    1
    19     4     5   ar
    20    18    19    3
    21     1     5   ar
    22     1     6    1
    23    19    20    1
