@<TRIPOS>MOLECULE
mol_data/opt/b3lyp/geoms/mol2/5ef5ef5ef-.out
 32 34 0 0 0
SMALL
GASTEIGER

@<TRIPOS>ATOM
      1 C          -1.9064   -1.7619    1.1147 C.ar    1  LIG1       -0.0047
      2 C          -0.8427   -1.9196    0.2581 C.ar    1  LIG1        0.0737
      3 C          -0.2679   -0.6526   -0.1299 C.ar    1  LIG1        0.1474
      4 C          -0.9076    0.4390    0.4439 C.ar    1  LIG1        0.0698
      5 S          -2.2213   -0.1108    1.4875 S.2     1  LIG1       -0.0911
      6 H          -2.4989   -2.5466    1.5623 H       1  LIG1        0.0707
      7 C          -0.3567   -3.1738   -0.2008 C.1     1  LIG1       -0.0655
      8 C           0.0502   -4.2459   -0.5857 C.1     1  LIG1       -0.1138
      9 H           0.4149   -5.1858   -0.9296 H       1  LIG1        0.1232
     10 O           0.7400   -0.6505   -1.0213 O.3     1  LIG1       -0.5044
     11 H           1.2702    0.1637   -0.9413 H       1  LIG1        0.2922
     12 C          -0.7018    1.8538    0.2298 C.ar    1  LIG1        0.0490
     13 C           0.4759    2.5575   -0.0074 C.ar    1  LIG1        0.0820
     14 C           0.2681    3.9710   -0.1886 C.ar    1  LIG1        0.1481
     15 C          -1.0566    4.3579   -0.0649 C.ar    1  LIG1        0.0704
     16 S          -2.0664    2.9469    0.2570 S.2     1  LIG1       -0.0820
     17 C           1.7713    1.9805   -0.0199 C.1     1  LIG1       -0.0648
     18 C           2.8703    1.4678   -0.0440 C.1     1  LIG1       -0.1138
     19 H           3.8433    1.0331   -0.0241 H       1  LIG1        0.1232
     20 O           1.3332    4.7373   -0.4916 O.3     1  LIG1       -0.5044
     21 H           1.1808    5.6615   -0.2202 H       1  LIG1        0.2922
     22 C          -1.6701    5.6541   -0.2502 C.ar    1  LIG1        0.0484
     23 C          -1.1758    6.9231    0.0462 C.ar    1  LIG1        0.0814
     24 C          -2.0934    7.9733   -0.3203 C.ar    1  LIG1        0.1398
     25 C          -3.2596    7.5124   -0.8598 C.ar    1  LIG1        0.0190
     26 S          -3.2597    5.7765   -0.9776 S.2     1  LIG1       -0.0910
     27 H          -4.1159    8.0822   -1.1914 H       1  LIG1        0.0731
     28 C           0.0593    7.1802    0.6923 C.1     1  LIG1       -0.0648
     29 C           1.1282    7.3870    1.2277 C.1     1  LIG1       -0.1138
     30 H           2.0433    7.5761    1.7404 H       1  LIG1        0.1232
     31 O          -1.7384    9.2642   -0.0849 O.3     1  LIG1       -0.5050
     32 H          -2.4558    9.8480   -0.3640 H       1  LIG1        0.2922
@<TRIPOS>BOND
     1    27    25    1
     2    10    11    1
     3    10     3    1
     4    26    25   ar
     5    26    22   ar
     6     9     8    1
     7    25    24   ar
     8     8     7    3
     9    20    21    1
    10    20    14    1
    11    32    31    1
    12    24    31    1
    13    24    23   ar
    14    22    15    1
    15    22    23   ar
    16     7     2    1
    17    14    15   ar
    18    14    13   ar
    19     3     2   ar
    20     3     4   ar
    21    15    16   ar
    22    18    19    1
    23    18    17    3
    24    17    13    1
    25    13    12   ar
    26    23    28    1
    27    12    16   ar
    28    12     4    1
    29     2     1   ar
    30     4     5   ar
    31    28    29    3
    32     1     5   ar
    33     1     6    1
    34    29    30    1
