@<TRIPOS>MOLECULE
mol_data/opt/b3lyp/geoms/mol2/5ef5ef-5ef5ef.out
 42 45 0 0 0
SMALL
GASTEIGER

@<TRIPOS>ATOM
      1 C          -1.8902   -1.7832   -1.0909 C.ar    1  LIG1       -0.0047
      2 C          -0.9646   -1.9166   -0.0831 C.ar    1  LIG1        0.0737
      3 C          -0.3757   -0.6493    0.2820 C.ar    1  LIG1        0.1474
      4 C          -0.8664    0.4181   -0.4603 C.ar    1  LIG1        0.0698
      5 S          -2.0556   -0.1571   -1.6319 S.2     1  LIG1       -0.0911
      6 H          -2.4598   -2.5749   -1.5555 H       1  LIG1        0.0707
      7 C          -0.6190   -3.1482    0.5360 C.1     1  LIG1       -0.0655
      8 C          -0.3308   -4.2012    1.0567 C.1     1  LIG1       -0.1138
      9 H          -0.0723   -5.1246    1.5207 H       1  LIG1        0.1232
     10 O           0.4986   -0.6187    1.3038 O.3     1  LIG1       -0.5044
     11 H           1.0782    0.1627    1.2399 H       1  LIG1        0.2922
     12 C          -0.6123    1.8348   -0.3296 C.ar    1  LIG1        0.0490
     13 C           0.5590    2.5018    0.0206 C.ar    1  LIG1        0.0820
     14 C           0.4111    3.9333    0.0554 C.ar    1  LIG1        0.1481
     15 C          -0.8589    4.3694   -0.2939 C.ar    1  LIG1        0.0704
     16 S          -1.8940    2.9817   -0.6431 S.2     1  LIG1       -0.0820
     17 C           1.8046    1.8704    0.2673 C.1     1  LIG1       -0.0648
     18 C           2.8586    1.3136    0.4912 C.1     1  LIG1       -0.1138
     19 H           3.7986    0.8360    0.6479 H       1  LIG1        0.1232
     20 O           1.4639    4.6706    0.4519 O.3     1  LIG1       -0.5044
     21 H           1.4042    5.5784    0.0987 H       1  LIG1        0.2922
     22 C          -1.4188    5.6993   -0.3077 C.ar    1  LIG1        0.0491
     23 C          -0.8153    6.9218   -0.5951 C.ar    1  LIG1        0.0820
     24 C          -1.7107    8.0423   -0.4692 C.ar    1  LIG1        0.1481
     25 C          -2.9994    7.6851   -0.1048 C.ar    1  LIG1        0.0704
     26 S          -3.0898    5.9428    0.1510 S.2     1  LIG1       -0.0820
     27 C           0.5201    7.0772   -1.0455 C.1     1  LIG1       -0.0648
     28 C           1.6700    7.1966   -1.4133 C.1     1  LIG1       -0.1138
     29 H           2.6633    7.3082   -1.7835 H       1  LIG1        0.1232
     30 O          -1.2489    9.2645   -0.7942 O.3     1  LIG1       -0.5044
     31 H          -1.7796    9.9594   -0.3620 H       1  LIG1        0.2922
     32 C          -4.1967    8.4892   -0.0077 C.ar    1  LIG1        0.0484
     33 C          -4.3491    9.8112    0.4068 C.ar    1  LIG1        0.0814
     34 C          -5.7173   10.2601    0.3289 C.ar    1  LIG1        0.1398
     35 C          -6.5805    9.2988   -0.1116 C.ar    1  LIG1        0.0190
     36 S          -5.7444    7.8191   -0.4847 S.2     1  LIG1       -0.0910
     37 H          -7.6520    9.3660   -0.2349 H       1  LIG1        0.0731
     38 C          -3.3052   10.6270    0.9102 C.1     1  LIG1       -0.0648
     39 C          -2.3979   11.3203    1.3204 C.1     1  LIG1       -0.1138
     40 H          -1.6176   11.9215    1.7276 H       1  LIG1        0.1232
     41 O          -6.0107   11.5329    0.7051 O.3     1  LIG1       -0.5050
     42 H          -6.9612   11.6806    0.6157 H       1  LIG1        0.2922
@<TRIPOS>BOND
     1    29    28    1
     2     5     1   ar
     3     5     4   ar
     4     6     1    1
     5    28    27    3
     6     1     2   ar
     7    27    23    1
     8    30    24    1
     9    30    31    1
    10    16    12   ar
    11    16    15   ar
    12    23    24   ar
    13    23    22   ar
    14    36    35   ar
    15    36    32   ar
    16    24    25   ar
    17     4    12    1
    18     4     3   ar
    19    12    13   ar
    20    22    15    1
    21    22    26   ar
    22    15    14   ar
    23    37    35    1
    24    35    34   ar
    25    25    32    1
    26    25    26   ar
    27     2     3   ar
    28     2     7    1
    29    32    33   ar
    30    13    14   ar
    31    13    17    1
    32    14    20    1
    33    21    20    1
    34    17    18    3
    35     3    10    1
    36    34    33   ar
    37    34    41    1
    38    33    38    1
    39    18    19    1
    40     7     8    3
    41    42    41    1
    42    38    39    3
    43     8     9    1
    44    11    10    1
    45    39    40    1
