@<TRIPOS>MOLECULE
mol_data/opt/b3lyp/geoms/mol2/5ef5ef-.out
 22 23 0 0 0
SMALL
GASTEIGER

@<TRIPOS>ATOM
      1 C          -2.0298   -1.7846    0.6024 C.ar    1  LIG1       -0.0047
      2 C          -0.7716   -1.8494    0.0517 C.ar    1  LIG1        0.0737
      3 C          -0.2168   -0.5370   -0.1860 C.ar    1  LIG1        0.1474
      4 C          -1.0652    0.4942    0.1917 C.ar    1  LIG1        0.0698
      5 S          -2.5559   -0.1664    0.8666 S.2     1  LIG1       -0.0911
      6 H          -2.6557   -2.6177    0.8875 H       1  LIG1        0.0707
      7 C          -0.0880   -3.0571   -0.2548 C.1     1  LIG1       -0.0655
      8 C           0.4859   -4.0905   -0.5114 C.1     1  LIG1       -0.1138
      9 H           0.9978   -4.9959   -0.7414 H       1  LIG1        0.1232
     10 O           0.9873   -0.4442   -0.7826 O.3     1  LIG1       -0.5044
     11 H           1.4132    0.4048   -0.5651 H       1  LIG1        0.2922
     12 C          -0.9196    1.9251    0.0258 C.ar    1  LIG1        0.0484
     13 C           0.2228    2.7175    0.1087 C.ar    1  LIG1        0.0814
     14 C          -0.0497    4.1098   -0.1517 C.ar    1  LIG1        0.1398
     15 C          -1.3658    4.3675   -0.4055 C.ar    1  LIG1        0.0190
     16 S          -2.3131    2.9081   -0.3749 S.2     1  LIG1       -0.0910
     17 H          -1.8358    5.3202   -0.6047 H       1  LIG1        0.0731
     18 C           1.5113    2.2436    0.4621 C.1     1  LIG1       -0.0648
     19 C           2.6119    1.8189    0.7447 C.1     1  LIG1       -0.1138
     20 H           3.5728    1.4613    1.0359 H       1  LIG1        0.1232
     21 O           0.9779    4.9986   -0.1013 O.3     1  LIG1       -0.5050
     22 H           0.6407    5.8855   -0.2830 H       1  LIG1        0.2922
@<TRIPOS>BOND
     1    10    11    1
     2    10     3    1
     3     9     8    1
     4    17    15    1
     5     8     7    3
     6    15    16   ar
     7    15    14   ar
     8    16    12   ar
     9    22    21    1
    10     7     2    1
    11     3     2   ar
    12     3     4   ar
    13    14    21    1
    14    14    13   ar
    15    12    13   ar
    16    12     4    1
    17     2     1   ar
    18    13    18    1
    19     4     5   ar
    20    18    19    3
    21     1     5   ar
    22     1     6    1
    23    19    20    1
