@<TRIPOS>MOLECULE
mol_data/opt/b3lyp/geoms/mol2/5ef5ef5ef5ef.out
 42 45 0 0 0
SMALL
GASTEIGER

@<TRIPOS>ATOM
      1 C          -2.2381   -1.7956    0.2376 C.ar    1  LIG1       -0.0047
      2 C          -0.9142   -1.9387   -0.1054 C.ar    1  LIG1        0.0737
      3 C          -0.2198   -0.6728   -0.1218 C.ar    1  LIG1        0.1474
      4 C          -1.0329    0.4038    0.2128 C.ar    1  LIG1        0.0698
      5 S          -2.6683   -0.1618    0.5664 S.2     1  LIG1       -0.0911
      6 H          -2.9696   -2.5846    0.3363 H       1  LIG1        0.0707
      7 C          -0.2907   -3.1784   -0.4121 C.1     1  LIG1       -0.0655
      8 C           0.2316   -4.2382   -0.6712 C.1     1  LIG1       -0.1138
      9 H           0.6986   -5.1675   -0.9016 H       1  LIG1        0.1232
     10 O           1.0686   -0.6520   -0.5071 O.3     1  LIG1       -0.5044
     11 H           1.5225    0.1361   -0.1553 H       1  LIG1        0.2922
     12 C          -0.7488    1.8201    0.2135 C.ar    1  LIG1        0.0490
     13 C           0.4305    2.4948    0.5196 C.ar    1  LIG1        0.0820
     14 C           0.3261    3.9225    0.3683 C.ar    1  LIG1        0.1481
     15 C          -0.9314    4.3474   -0.0373 C.ar    1  LIG1        0.0704
     16 S          -1.9814    2.9522   -0.2937 S.2     1  LIG1       -0.0820
     17 C           1.6109    1.8761    1.0045 C.1     1  LIG1       -0.0648
     18 C           2.6188    1.3298    1.4006 C.1     1  LIG1       -0.1138
     19 H           3.4932    0.8633    1.7931 H       1  LIG1        0.1232
     20 O           1.3864    4.6756    0.7105 O.3     1  LIG1       -0.5044
     21 H           1.3484    5.5468    0.2721 H       1  LIG1        0.2922
     22 C          -1.4678    5.6799   -0.1708 C.ar    1  LIG1        0.0491
     23 C          -0.8406    6.8625   -0.5573 C.ar    1  LIG1        0.0820
     24 C          -1.7165    8.0050   -0.5349 C.ar    1  LIG1        0.1481
     25 C          -3.0139    7.7028   -0.1519 C.ar    1  LIG1        0.0704
     26 S          -3.1383    5.9896    0.2488 S.2     1  LIG1       -0.0820
     27 C           0.5011    6.9550   -1.0062 C.1     1  LIG1       -0.0648
     28 C           1.6562    7.0207   -1.3711 C.1     1  LIG1       -0.1138
     29 H           2.6543    7.0820   -1.7403 H       1  LIG1        0.1232
     30 O          -1.2301    9.1866   -0.9587 O.3     1  LIG1       -0.5044
     31 H          -1.7520    9.9252   -0.5936 H       1  LIG1        0.2922
     32 C          -4.1974    8.5323   -0.1361 C.ar    1  LIG1        0.0484
     33 C          -4.3299    9.8881    0.1593 C.ar    1  LIG1        0.0814
     34 C          -5.6891   10.3517    0.0286 C.ar    1  LIG1        0.1398
     35 C          -6.5656    9.3702   -0.3342 C.ar    1  LIG1        0.0190
     36 S          -5.7530    7.8493   -0.5674 S.2     1  LIG1       -0.0910
     37 H          -7.6347    9.4446   -0.4740 H       1  LIG1        0.0731
     38 C          -3.2762   10.7274    0.5995 C.1     1  LIG1       -0.0648
     39 C          -2.3604   11.4389    0.9564 C.1     1  LIG1       -0.1138
     40 H          -1.5731   12.0606    1.3167 H       1  LIG1        0.1232
     41 O          -5.9628   11.6575    0.2883 O.3     1  LIG1       -0.5050
     42 H          -6.9098   11.8130    0.1772 H       1  LIG1        0.2922
@<TRIPOS>BOND
     1    29    28    1
     2    28    27    3
     3    27    23    1
     4    30    31    1
     5    30    24    1
     6     9     8    1
     7     8     7    3
     8    36    35   ar
     9    36    32   ar
    10    23    24   ar
    11    23    22   ar
    12    24    25   ar
    13    10    11    1
    14    10     3    1
    15    37    35    1
    16     7     2    1
    17    35    34   ar
    18    16    15   ar
    19    16    12   ar
    20    22    15    1
    21    22    26   ar
    22    25    32    1
    23    25    26   ar
    24    32    33   ar
    25     3     2   ar
    26     3     4   ar
    27     2     1   ar
    28    15    14   ar
    29    34    33   ar
    30    34    41    1
    31    33    38    1
    32    42    41    1
    33     4    12    1
    34     4     5   ar
    35    12    13   ar
    36     1     6    1
    37     1     5   ar
    38    21    20    1
    39    14    13   ar
    40    14    20    1
    41    13    17    1
    42    38    39    3
    43    39    40    1
    44    17    18    3
    45    18    19    1
