@<TRIPOS>MOLECULE
mol_data/opt/b3lyp/geoms/mol2/5ef5ef-5ef5ef-.out
 42 45 0 0 0
SMALL
GASTEIGER

@<TRIPOS>ATOM
      1 C          -2.5395   -1.6303    0.0011 C.ar    1  LIG1       -0.0047
      2 C          -1.2068   -1.9593   -0.0002 C.ar    1  LIG1        0.0737
      3 C          -0.3568   -0.7911   -0.0002 C.ar    1  LIG1        0.1474
      4 C          -1.0628    0.4127    0.0011 C.ar    1  LIG1        0.0698
      5 S          -2.8040    0.0674    0.0024 S.2     1  LIG1       -0.0911
      6 H          -3.3766   -2.3133    0.0013 H       1  LIG1        0.0707
      7 C          -0.7043   -3.2885   -0.0014 C.1     1  LIG1       -0.0655
      8 C          -0.2885   -4.4242   -0.0025 C.1     1  LIG1       -0.1138
      9 H           0.0857   -5.4216   -0.0033 H       1  LIG1        0.1232
     10 O           0.9646   -1.0039   -0.0015 O.3     1  LIG1       -0.5044
     11 H           1.4727   -0.1690   -0.0012 H       1  LIG1        0.2922
     12 C          -0.6375    1.7956    0.0016 C.ar    1  LIG1        0.0490
     13 C           0.6202    2.4043    0.0014 C.ar    1  LIG1        0.0820
     14 C           0.5648    3.8447    0.0020 C.ar    1  LIG1        0.1481
     15 C          -0.7234    4.3694    0.0027 C.ar    1  LIG1        0.0704
     16 S          -1.8804    3.0302    0.0026 S.2     1  LIG1       -0.0820
     17 C           1.8935    1.7764    0.0008 C.1     1  LIG1       -0.0648
     18 C           3.0208    1.3276    0.0004 C.1     1  LIG1       -0.1138
     19 H           4.0055    0.9195    0.0004 H       1  LIG1        0.1232
     20 O           1.7389    4.4883    0.0018 O.3     1  LIG1       -0.5044
     21 H           1.6266    5.4599    0.0022 H       1  LIG1        0.2922
     22 C          -1.2349    5.7187    0.0035 C.ar    1  LIG1        0.0491
     23 C          -0.6159    6.9723    0.0038 C.ar    1  LIG1        0.0820
     24 C          -1.5456    8.0744    0.0046 C.ar    1  LIG1        0.1481
     25 C          -2.8825    7.6983    0.0050 C.ar    1  LIG1        0.0704
     26 S          -2.9744    5.9313    0.0042 S.2     1  LIG1       -0.0820
     27 C           0.7745    7.2560    0.0034 C.1     1  LIG1       -0.0648
     28 C           1.9422    7.5870    0.0031 C.1     1  LIG1       -0.1138
     29 H           2.9707    7.8666    0.0033 H       1  LIG1        0.1232
     30 O          -1.0136    9.3054    0.0051 O.3     1  LIG1       -0.5044
     31 H          -1.6993   10.0015    0.0054 H       1  LIG1        0.2922
     32 C          -4.1191    8.4505    0.0059 C.ar    1  LIG1        0.0484
     33 C          -4.3952    9.8235    0.0061 C.ar    1  LIG1        0.0814
     34 C          -5.8118   10.1049    0.0072 C.ar    1  LIG1        0.1398
     35 C          -6.5975    8.9918    0.0078 C.ar    1  LIG1        0.0190
     36 S          -5.6295    7.5490    0.0071 S.2     1  LIG1       -0.0910
     37 H          -7.6759    8.9257    0.0086 H       1  LIG1        0.0731
     38 C          -3.4757   10.9033    0.0051 C.1     1  LIG1       -0.0648
     39 C          -2.7650   11.8874    0.0043 C.1     1  LIG1       -0.1138
     40 H          -2.1295   12.7431    0.0036 H       1  LIG1        0.1232
     41 O          -6.2164   11.4033    0.0074 O.3     1  LIG1       -0.5050
     42 H          -7.1818   11.4338    0.0081 H       1  LIG1        0.2922
@<TRIPOS>BOND
     1     9     8    1
     2     8     7    3
     3    10    11    1
     4    10     3    1
     5     7     2    1
     6     2     3   ar
     7     2     1   ar
     8     3     4   ar
     9    18    19    1
    10    18    17    3
    11    17    13    1
    12     1     6    1
    13     1     5   ar
    14     4    12    1
    15     4     5   ar
    16    13    12   ar
    17    13    14   ar
    18    12    16   ar
    19    20    14    1
    20    20    21    1
    21    14    15   ar
    22    16    15   ar
    23    15    22    1
    24    28    29    1
    25    28    27    3
    26    27    23    1
    27    22    23   ar
    28    22    26   ar
    29    40    39    1
    30    23    24   ar
    31    26    25   ar
    32    39    38    3
    33    24    25   ar
    34    24    30    1
    35    25    32    1
    36    30    31    1
    37    38    33    1
    38    32    33   ar
    39    32    36   ar
    40    33    34   ar
    41    36    35   ar
    42    34    41    1
    43    34    35   ar
    44    41    42    1
    45    35    37    1
