@<TRIPOS>MOLECULE
mol_data/opt/b3lyp/geoms/mol2/5ef5ef5ef.out
 32 34 0 0 0
SMALL
GASTEIGER

@<TRIPOS>ATOM
      1 C          -2.1359   -1.8371    0.1618 C.ar    1  LIG1       -0.0047
      2 C          -0.8202   -1.9071   -0.2318 C.ar    1  LIG1        0.0737
      3 C          -0.1804   -0.6125   -0.2132 C.ar    1  LIG1        0.1474
      4 C          -1.0247    0.4115    0.1982 C.ar    1  LIG1        0.0698
      5 S          -2.6210   -0.2397    0.5811 S.2     1  LIG1       -0.0911
      6 H          -2.8301   -2.6605    0.2478 H       1  LIG1        0.0707
      7 C          -0.1569   -3.1037   -0.6164 C.1     1  LIG1       -0.0655
      8 C           0.3994   -4.1273   -0.9415 C.1     1  LIG1       -0.1138
      9 H           0.8962   -5.0242   -1.2302 H       1  LIG1        0.1232
     10 O           1.0919   -0.5184   -0.6407 O.3     1  LIG1       -0.5044
     11 H           1.5247    0.2711   -0.2664 H       1  LIG1        0.2922
     12 C          -0.7999    1.8377    0.2573 C.ar    1  LIG1        0.0490
     13 C           0.3589    2.5484    0.5578 C.ar    1  LIG1        0.0820
     14 C           0.1873    3.9764    0.4808 C.ar    1  LIG1        0.1481
     15 C          -1.0992    4.3630    0.1399 C.ar    1  LIG1        0.0704
     16 S          -2.0959    2.9380   -0.1542 S.2     1  LIG1       -0.0820
     17 C           1.5808    1.9599    0.9719 C.1     1  LIG1       -0.0648
     18 C           2.6241    1.4393    1.3065 C.1     1  LIG1       -0.1138
     19 H           3.5308    0.9934    1.6460 H       1  LIG1        0.1232
     20 O           1.2267    4.7613    0.8221 O.3     1  LIG1       -0.5044
     21 H           1.1368    5.6450    0.4196 H       1  LIG1        0.2922
     22 C          -1.6946    5.6794    0.0922 C.ar    1  LIG1        0.0484
     23 C          -1.1324    6.8974   -0.2862 C.ar    1  LIG1        0.0814
     24 C          -2.0586    7.9958   -0.1615 C.ar    1  LIG1        0.1398
     25 C          -3.2942    7.6176    0.2781 C.ar    1  LIG1        0.0190
     26 S          -3.3584    5.9075    0.5936 S.2     1  LIG1       -0.0910
     27 H          -4.1687    8.2340    0.4313 H       1  LIG1        0.0731
     28 C           0.1798    7.0587   -0.7968 C.1     1  LIG1       -0.0648
     29 C           1.3124    7.1841   -1.2134 C.1     1  LIG1       -0.1138
     30 H           2.2887    7.2976   -1.6258 H       1  LIG1        0.1232
     31 O          -1.6414    9.2448   -0.4988 O.3     1  LIG1       -0.5050
     32 H          -2.3703    9.8674   -0.3787 H       1  LIG1        0.2922
@<TRIPOS>BOND
     1    30    29    1
     2     9     8    1
     3    29    28    3
     4     8     7    3
     5    28    23    1
     6    10    11    1
     7    10     3    1
     8     7     2    1
     9    31    32    1
    10    31    24    1
    11    23    24   ar
    12    23    22   ar
    13     2     3   ar
    14     2     1   ar
    15     3     4   ar
    16    24    25   ar
    17    16    15   ar
    18    16    12   ar
    19    22    15    1
    20    22    26   ar
    21    15    14   ar
    22     1     6    1
    23     1     5   ar
    24     4    12    1
    25     4     5   ar
    26    12    13   ar
    27    25    27    1
    28    25    26   ar
    29    21    20    1
    30    14    13   ar
    31    14    20    1
    32    13    17    1
    33    17    18    3
    34    18    19    1
