@<TRIPOS>MOLECULE
mol_data/opt/b3lyp/geoms/mol2/5ef5ef-5ef-5ef.out
 42 45 0 0 0
SMALL
GASTEIGER

@<TRIPOS>ATOM
      1 C          -2.2670   -1.7512    0.3681 C.ar    1  LIG1       -0.0047
      2 C          -0.9159   -1.8788    0.5901 C.ar    1  LIG1        0.0737
      3 C          -0.2157   -0.6309    0.3957 C.ar    1  LIG1        0.1474
      4 C          -1.0518    0.4162    0.0266 C.ar    1  LIG1        0.0698
      5 S          -2.7181   -0.1563   -0.0960 S.2     1  LIG1       -0.0911
      6 H          -3.0097   -2.5333    0.4321 H       1  LIG1        0.0707
      7 C          -0.2719   -3.0879    0.9680 C.1     1  LIG1       -0.0655
      8 C           0.2679   -4.1217    1.2889 C.1     1  LIG1       -0.1138
      9 H           0.7504   -5.0281    1.5724 H       1  LIG1        0.1232
     10 O           1.1055   -0.5901    0.6448 O.3     1  LIG1       -0.5044
     11 H           1.5258    0.1465    0.1634 H       1  LIG1        0.2922
     12 C          -0.7606    1.8184   -0.1628 C.ar    1  LIG1        0.0490
     13 C           0.3847    2.4343   -0.6605 C.ar    1  LIG1        0.0820
     14 C           0.3037    3.8718   -0.6627 C.ar    1  LIG1        0.1481
     15 C          -0.9038    4.3604   -0.1842 C.ar    1  LIG1        0.0704
     16 S          -1.9293    3.0213    0.3339 S.2     1  LIG1       -0.0820
     17 C           1.5062    1.7450   -1.1881 C.1     1  LIG1       -0.0648
     18 C           2.4654    1.1404   -1.6189 C.1     1  LIG1       -0.1138
     19 H           3.2928    0.6181   -2.0416 H       1  LIG1        0.1232
     20 O           1.3275    4.5627   -1.1948 O.3     1  LIG1       -0.5044
     21 H           1.3369    5.4800   -0.8623 H       1  LIG1        0.2922
     22 C          -1.4172    5.7090   -0.1571 C.ar    1  LIG1        0.0491
     23 C          -0.7494    6.9154    0.0423 C.ar    1  LIG1        0.0820
     24 C          -1.6168    8.0629   -0.0197 C.ar    1  LIG1        0.1481
     25 C          -2.9476    7.7427   -0.2353 C.ar    1  LIG1        0.0704
     26 S          -3.1282    5.9936   -0.3867 S.2     1  LIG1       -0.0820
     27 C           0.6320    7.0344    0.3383 C.1     1  LIG1       -0.0648
     28 C           1.8187    7.1192    0.5760 C.1     1  LIG1       -0.1138
     29 H           2.8504    7.2031    0.8304 H       1  LIG1        0.1232
     30 O          -1.0636    9.2858    0.0892 O.3     1  LIG1       -0.5044
     31 H          -1.7168    9.9312    0.4179 H       1  LIG1        0.2922
     32 C          -4.0933    8.6023   -0.4310 C.ar    1  LIG1        0.0484
     33 C          -4.3886    9.8367    0.1452 C.ar    1  LIG1        0.0814
     34 C          -5.6289   10.3902   -0.3394 C.ar    1  LIG1        0.1398
     35 C          -6.2663    9.5881   -1.2415 C.ar    1  LIG1        0.0190
     36 S          -5.3506    8.1443   -1.5627 S.2     1  LIG1       -0.0910
     37 H          -7.2147    9.7536   -1.7326 H       1  LIG1        0.0731
     38 C          -3.6084   10.4710    1.1440 C.1     1  LIG1       -0.0648
     39 C          -2.9207   11.0119    1.9845 C.1     1  LIG1       -0.1138
     40 H          -2.3489   11.4722    2.7573 H       1  LIG1        0.1232
     41 O          -6.0408   11.5929    0.1416 O.3     1  LIG1       -0.5050
     42 H          -6.8875   11.8247   -0.2618 H       1  LIG1        0.2922
@<TRIPOS>BOND
     1    19    18    1
     2    37    35    1
     3    18    17    3
     4    36    35   ar
     5    36    32   ar
     6    35    34   ar
     7    20    21    1
     8    20    14    1
     9    17    13    1
    10    14    13   ar
    11    14    15   ar
    12    13    12   ar
    13    32    25    1
    14    32    33   ar
    15    26    25   ar
    16    26    22   ar
    17    34    41    1
    18    34    33   ar
    19    42    41    1
    20    25    24   ar
    21    15    22    1
    22    15    16   ar
    23    12     4    1
    24    12    16   ar
    25    22    23   ar
    26     5     4   ar
    27     5     1   ar
    28    24    23   ar
    29    24    30    1
    30     4     3   ar
    31    23    27    1
    32    30    31    1
    33    33    38    1
    34    11    10    1
    35    27    28    3
    36     1     6    1
    37     1     2   ar
    38     3     2   ar
    39     3    10    1
    40    28    29    1
    41     2     7    1
    42     7     8    3
    43    38    39    3
    44     8     9    1
    45    39    40    1
