@<TRIPOS>MOLECULE
mol_data/opt/b3lyp/geoms/mol2/5ef5ef5ef-5ef-.out
 42 45 0 0 0
SMALL
GASTEIGER

@<TRIPOS>ATOM
      1 C          -1.8925   -1.7771    1.1143 C.ar    1  LIG1       -0.0047
      2 C          -0.9564   -1.9152    0.1170 C.ar    1  LIG1        0.0737
      3 C          -0.3653   -0.6494   -0.2494 C.ar    1  LIG1        0.1474
      4 C          -0.8650    0.4218    0.4813 C.ar    1  LIG1        0.0698
      5 S          -2.0657   -0.1480    1.6438 S.2     1  LIG1       -0.0911
      6 H          -2.4659   -2.5668    1.5777 H       1  LIG1        0.0707
      7 C          -0.6029   -3.1501   -0.4911 C.1     1  LIG1       -0.0655
      8 C          -0.3079   -4.2058   -1.0025 C.1     1  LIG1       -0.1138
      9 H          -0.0432   -5.1314   -1.4584 H       1  LIG1        0.1232
     10 O           0.5196   -0.6238   -1.2623 O.3     1  LIG1       -0.5044
     11 H           1.0969    0.1592   -1.1975 H       1  LIG1        0.2922
     12 C          -0.6114    1.8381    0.3448 C.ar    1  LIG1        0.0490
     13 C           0.5625    2.5048    0.0030 C.ar    1  LIG1        0.0820
     14 C           0.4131    3.9358   -0.0414 C.ar    1  LIG1        0.1481
     15 C          -0.8611    4.3722    0.2923 C.ar    1  LIG1        0.0704
     16 S          -1.8978    2.9850    0.6385 S.2     1  LIG1       -0.0820
     17 C           1.8115    1.8738   -0.2275 C.1     1  LIG1       -0.0648
     18 C           2.8686    1.3175   -0.4376 C.1     1  LIG1       -0.1138
     19 H           3.8108    0.8404   -0.5822 H       1  LIG1        0.1232
     20 O           1.4690    4.6723   -0.4312 O.3     1  LIG1       -0.5044
     21 H           1.4045    5.5820   -0.0839 H       1  LIG1        0.2922
     22 C          -1.4229    5.7012    0.2930 C.ar    1  LIG1        0.0491
     23 C          -0.8241    6.9264    0.5790 C.ar    1  LIG1        0.0820
     24 C          -1.7198    8.0448    0.4378 C.ar    1  LIG1        0.1481
     25 C          -3.0045    7.6834    0.0631 C.ar    1  LIG1        0.0704
     26 S          -3.0898    5.9395   -0.1832 S.2     1  LIG1       -0.0820
     27 C           0.5067    7.0867    1.0414 C.1     1  LIG1       -0.0648
     28 C           1.6527    7.2104    1.4197 C.1     1  LIG1       -0.1138
     29 H           2.6421    7.3258    1.7991 H       1  LIG1        0.1232
     30 O          -1.2632    9.2696    0.7600 O.3     1  LIG1       -0.5044
     31 H          -1.7903    9.9610    0.3179 H       1  LIG1        0.2922
     32 C          -4.2019    8.4852   -0.0499 C.ar    1  LIG1        0.0484
     33 C          -4.3521    9.8044   -0.4740 C.ar    1  LIG1        0.0814
     34 C          -5.7215   10.2519   -0.4116 C.ar    1  LIG1        0.1398
     35 C          -6.5875    9.2922    0.0268 C.ar    1  LIG1        0.0190
     36 S          -5.7531    7.8160    0.4168 S.2     1  LIG1       -0.0910
     37 H          -7.6603    9.3588    0.1400 H       1  LIG1        0.0731
     38 C          -3.3046   10.6183   -0.9728 C.1     1  LIG1       -0.0648
     39 C          -2.3942   11.3100   -1.3788 C.1     1  LIG1       -0.1138
     40 H          -1.6109   11.9097   -1.7824 H       1  LIG1        0.1232
     41 O          -6.0130   11.5221   -0.7982 O.3     1  LIG1       -0.5050
     42 H          -6.9647   11.6686   -0.7197 H       1  LIG1        0.2922
@<TRIPOS>BOND
     1    40    39    1
     2     9     8    1
     3    39    38    3
     4    10    11    1
     5    10     3    1
     6     8     7    3
     7    38    33    1
     8    41    42    1
     9    41    34    1
    10    19    18    1
    11     7     2    1
    12    33    34   ar
    13    33    32   ar
    14    18    17    3
    15    20    21    1
    16    20    14    1
    17    34    35   ar
    18     3     2   ar
    19     3     4   ar
    20    17    13    1
    21    26    25   ar
    22    26    22   ar
    23    32    25    1
    24    32    36   ar
    25    14    13   ar
    26    14    15   ar
    27    13    12   ar
    28    35    37    1
    29    35    36   ar
    30    25    24   ar
    31     2     1   ar
    32    15    22    1
    33    15    16   ar
    34    22    23   ar
    35    31    30    1
    36    12     4    1
    37    12    16   ar
    38    24    23   ar
    39    24    30    1
    40     4     5   ar
    41    23    27    1
    42    27    28    3
    43     1     6    1
    44     1     5   ar
    45    28    29    1
