@<TRIPOS>MOLECULE
mol_data/opt/b3lyp/geoms/mol2/5ef5ef5ef5ef-.out
 42 45 0 0 0
SMALL
GASTEIGER

@<TRIPOS>ATOM
      1 C          -2.2287   -1.7951    0.2714 C.ar    1  LIG1       -0.0047
      2 C          -0.9089   -1.9386   -0.0869 C.ar    1  LIG1        0.0737
      3 C          -0.2160   -0.6721   -0.1176 C.ar    1  LIG1        0.1474
      4 C          -1.0260    0.4052    0.2216 C.ar    1  LIG1        0.0698
      5 S          -2.6565   -0.1602    0.5975 S.2     1  LIG1       -0.0911
      6 H          -2.9582   -2.5843    0.3825 H       1  LIG1        0.0707
      7 C          -0.2879   -3.1792   -0.3951 C.1     1  LIG1       -0.0655
      8 C           0.2323   -4.2397   -0.6554 C.1     1  LIG1       -0.1138
      9 H           0.6970   -5.1698   -0.8869 H       1  LIG1        0.1232
     10 O           1.0677   -0.6520   -0.5187 O.3     1  LIG1       -0.5044
     11 H           1.5251    0.1381   -0.1760 H       1  LIG1        0.2922
     12 C          -0.7433    1.8218    0.2124 C.ar    1  LIG1        0.0490
     13 C           0.4390    2.4990    0.5010 C.ar    1  LIG1        0.0820
     14 C           0.3313    3.9259    0.3448 C.ar    1  LIG1        0.1481
     15 C          -0.9316    4.3478   -0.0471 C.ar    1  LIG1        0.0704
     16 S          -1.9832    2.9505   -0.2846 S.2     1  LIG1       -0.0820
     17 C           1.6259    1.8837    0.9742 C.1     1  LIG1       -0.0648
     18 C           2.6391    1.3400    1.3603 C.1     1  LIG1       -0.1138
     19 H           3.5187    0.8762    1.7442 H       1  LIG1        0.1232
     20 O           1.3947    4.6817    0.6710 O.3     1  LIG1       -0.5044
     21 H           1.3510    5.5505    0.2284 H       1  LIG1        0.2922
     22 C          -1.4708    5.6792   -0.1802 C.ar    1  LIG1        0.0491
     23 C          -0.8496    6.8605   -0.5801 C.ar    1  LIG1        0.0820
     24 C          -1.7261    8.0023   -0.5522 C.ar    1  LIG1        0.1481
     25 C          -3.0184    7.7008   -0.1516 C.ar    1  LIG1        0.0704
     26 S          -3.1363    5.9895    0.2587 S.2     1  LIG1       -0.0820
     27 C           0.4863    6.9519   -1.0461 C.1     1  LIG1       -0.0648
     28 C           1.6368    7.0166   -1.4256 C.1     1  LIG1       -0.1138
     29 H           2.6302    7.0766   -1.8076 H       1  LIG1        0.1232
     30 O          -1.2462    9.1823   -0.9877 O.3     1  LIG1       -0.5044
     31 H          -1.7642    9.9221   -0.6195 H       1  LIG1        0.2922
     32 C          -4.2023    8.5294   -0.1249 C.ar    1  LIG1        0.0484
     33 C          -4.3324    9.8865    0.1657 C.ar    1  LIG1        0.0814
     34 C          -5.6936   10.3481    0.0498 C.ar    1  LIG1        0.1398
     35 C          -6.5737    9.3642   -0.2973 C.ar    1  LIG1        0.0190
     36 S          -5.7625    7.8429   -0.5334 S.2     1  LIG1       -0.0910
     37 H          -7.6445    9.4370   -0.4240 H       1  LIG1        0.0731
     38 C          -3.2741   10.7289    0.5887 C.1     1  LIG1       -0.0648
     39 C          -2.3547   11.4430    0.9307 C.1     1  LIG1       -0.1138
     40 H          -1.5637   12.0671    1.2783 H       1  LIG1        0.1232
     41 O          -5.9653   11.6550    0.3068 O.3     1  LIG1       -0.5050
     42 H          -6.9138   11.8090    0.2068 H       1  LIG1        0.2922
@<TRIPOS>BOND
     1    29    28    1
     2    28    27    3
     3    27    23    1
     4    30    31    1
     5    30    24    1
     6     9     8    1
     7     8     7    3
     8    23    24   ar
     9    23    22   ar
    10    24    25   ar
    11    36    35   ar
    12    36    32   ar
    13    10    11    1
    14    10     3    1
    15    37    35    1
    16     7     2    1
    17    35    34   ar
    18    16    15   ar
    19    16    12   ar
    20    22    15    1
    21    22    26   ar
    22    25    32    1
    23    25    26   ar
    24    32    33   ar
    25     3     2   ar
    26     3     4   ar
    27     2     1   ar
    28    15    14   ar
    29    34    33   ar
    30    34    41    1
    31    33    38    1
    32    42    41    1
    33    12     4    1
    34    12    13   ar
    35     4     5   ar
    36    21    20    1
    37     1     6    1
    38     1     5   ar
    39    14    13   ar
    40    14    20    1
    41    13    17    1
    42    38    39    3
    43    39    40    1
    44    17    18    3
    45    18    19    1
