@<TRIPOS>MOLECULE
mol_data/opt/b3lyp/geoms/mol2/5ef5ef5ef-5ef.out
 42 45 0 0 0
SMALL
GASTEIGER

@<TRIPOS>ATOM
      1 C          -1.7770   -1.6097    1.6608 C.ar    1  LIG1       -0.0047
      2 C          -0.9584   -1.8710    0.5876 C.ar    1  LIG1        0.0737
      3 C          -0.4021   -0.6628    0.0247 C.ar    1  LIG1        0.1474
      4 C          -0.8092    0.4892    0.6865 C.ar    1  LIG1        0.0698
      5 S          -1.8776    0.0693    2.0281 S.2     1  LIG1       -0.0911
      6 H          -2.3012   -2.3346    2.2665 H       1  LIG1        0.0707
      7 C          -0.6844   -3.1699    0.0803 C.1     1  LIG1       -0.0655
      8 C          -0.4568   -4.2794   -0.3441 C.1     1  LIG1       -0.1138
      9 H          -0.2520   -5.2532   -0.7244 H       1  LIG1        0.1232
     10 O           0.3651   -0.7619   -1.0759 O.3     1  LIG1       -0.5044
     11 H           0.9511    0.0127   -1.1603 H       1  LIG1        0.2922
     12 C          -0.5634    1.8777    0.3692 C.ar    1  LIG1        0.0490
     13 C           0.5691    2.4821   -0.1700 C.ar    1  LIG1        0.0820
     14 C           0.4237    3.9024   -0.3555 C.ar    1  LIG1        0.1481
     15 C          -0.8034    4.3948    0.0646 C.ar    1  LIG1        0.0704
     16 S          -1.8030    3.0728    0.6736 S.2     1  LIG1       -0.0820
     17 C           1.7811    1.8075   -0.4652 C.1     1  LIG1       -0.0648
     18 C           2.8050    1.2125   -0.7274 C.1     1  LIG1       -0.1138
     19 H           3.7225    0.7058   -0.9209 H       1  LIG1        0.1232
     20 O           1.4338    4.5723   -0.9388 O.3     1  LIG1       -0.5044
     21 H           1.4125    5.5162   -0.6922 H       1  LIG1        0.2922
     22 C          -1.3540    5.7260   -0.0290 C.ar    1  LIG1        0.0491
     23 C          -0.7211    6.9634    0.0687 C.ar    1  LIG1        0.0820
     24 C          -1.6185    8.0767   -0.0991 C.ar    1  LIG1        0.1481
     25 C          -2.9381    7.7021   -0.2957 C.ar    1  LIG1        0.0704
     26 S          -3.0689    5.9425   -0.2975 S.2     1  LIG1       -0.0820
     27 C           0.6533    7.1469    0.3645 C.1     1  LIG1       -0.0648
     28 C           1.8344    7.2873    0.6036 C.1     1  LIG1       -0.1138
     29 H           2.8607    7.4227    0.8574 H       1  LIG1        0.1232
     30 O          -1.0996    9.3193   -0.0922 O.3     1  LIG1       -0.5044
     31 H          -1.7733    9.9726    0.1734 H       1  LIG1        0.2922
     32 C          -4.1048    8.5094   -0.5740 C.ar    1  LIG1        0.0484
     33 C          -4.4388    9.7804   -0.1096 C.ar    1  LIG1        0.0814
     34 C          -5.6886   10.2553   -0.6500 C.ar    1  LIG1        0.1398
     35 C          -6.2950    9.3607   -1.4839 C.ar    1  LIG1        0.0190
     36 S          -5.3377    7.9203   -1.6711 S.2     1  LIG1       -0.0910
     37 H          -7.2423    9.4569   -1.9952 H       1  LIG1        0.0731
     38 C          -3.6859   10.5208    0.8357 C.1     1  LIG1       -0.0648
     39 C          -3.0218   11.1523    1.6308 C.1     1  LIG1       -0.1138
     40 H          -2.4703   11.6944    2.3644 H       1  LIG1        0.1232
     41 O          -6.1374   11.4835   -0.2788 O.3     1  LIG1       -0.5050
     42 H          -6.9865   11.6554   -0.7063 H       1  LIG1        0.2922
@<TRIPOS>BOND
     1    37    35    1
     2    36    35   ar
     3    36    32   ar
     4    35    34   ar
     5    11    10    1
     6    10     3    1
     7    20    21    1
     8    20    14    1
     9    19    18    1
    10    18    17    3
    11     9     8    1
    12    42    41    1
    13    34    41    1
    14    34    33   ar
    15    32    25    1
    16    32    33   ar
    17    17    13    1
    18    14    13   ar
    19    14    15   ar
    20     8     7    3
    21    26    25   ar
    22    26    22   ar
    23    25    24   ar
    24    13    12   ar
    25    33    38    1
    26    24    30    1
    27    24    23   ar
    28    30    31    1
    29    22    15    1
    30    22    23   ar
    31     3     2   ar
    32     3     4   ar
    33    15    16   ar
    34    23    27    1
    35     7     2    1
    36    27    28    3
    37    12    16   ar
    38    12     4    1
    39     2     1   ar
    40    28    29    1
    41     4     5   ar
    42    38    39    3
    43    39    40    1
    44     1     5   ar
    45     1     6    1
