@<TRIPOS>MOLECULE
mol_data/opt/b3lyp/geoms/mol2/5eg.out
 12 12 0 0 0
SMALL
GASTEIGER

@<TRIPOS>ATOM
      1 C          -2.1538   -1.7227    0.0001 C.ar    1  LIG1       -0.0078
      2 C          -0.7771   -1.6966   -0.0002 C.ar    1  LIG1        0.0448
      3 C          -0.2654   -0.3415   -0.0001 C.ar    1  LIG1        0.0272
      4 C          -1.2611    0.5944    0.0002 C.ar    1  LIG1       -0.0099
      5 S          -2.8373   -0.1403    0.0005 S.2     1  LIG1       -0.1027
      6 H          -2.7859   -2.5987    0.0002 H       1  LIG1        0.0706
      7 H          -1.1684    1.6708    0.0004 H       1  LIG1        0.0705
      8 C           0.0462   -2.8558   -0.0005 C.1     1  LIG1       -0.0680
      9 C           0.7638   -3.8301   -0.0009 C.1     1  LIG1       -0.1139
     10 H           1.3934   -4.6895   -0.0012 H       1  LIG1        0.1232
     11 S           1.4888   -0.0463   -0.0005 S.3     1  LIG1       -0.1409
     12 H           1.4022    1.2983   -0.0005 H       1  LIG1        0.1072
@<TRIPOS>BOND
     1    10     9    1
     2     9     8    3
     3     8     2    1
     4    11    12    1
     5    11     3    1
     6     2     3   ar
     7     2     1   ar
     8     3     4   ar
     9     1     6    1
    10     1     5   ar
    11     4     7    1
    12     4     5   ar
