@<TRIPOS>MOLECULE
mol_data/opt/b3lyp/geoms/mol2/5eg5eg-5eg-.out
 32 34 0 0 0
SMALL
GASTEIGER

@<TRIPOS>ATOM
      1 C          -1.4155   -1.6287    1.7307 C.ar    1  LIG1       -0.0072
      2 C          -0.7878   -1.8824    0.5326 C.ar    1  LIG1        0.0454
      3 C          -0.4037   -0.6663   -0.1509 C.ar    1  LIG1        0.0355
      4 C          -0.7389    0.4725    0.5525 C.ar    1  LIG1        0.0415
      5 S          -1.5450    0.0526    2.0627 S.2     1  LIG1       -0.0937
      6 H          -1.7977   -2.3615    2.4268 H       1  LIG1        0.0706
      7 C          -0.5558   -3.1871    0.0170 C.1     1  LIG1       -0.0680
      8 C          -0.3537   -4.2923   -0.4320 C.1     1  LIG1       -0.1139
      9 H          -0.1756   -5.2653   -0.8280 H       1  LIG1        0.1232
     10 S           0.3451   -0.7757   -1.7518 S.3     1  LIG1       -0.1403
     11 H           0.4899    0.5512   -1.9288 H       1  LIG1        0.1072
     12 C          -0.5484    1.8746    0.2058 C.ar    1  LIG1        0.0440
     13 C           0.6370    2.5551   -0.0456 C.ar    1  LIG1        0.0537
     14 C           0.4302    3.9502   -0.3573 C.ar    1  LIG1        0.0361
     15 C          -0.8963    4.3251   -0.3079 C.ar    1  LIG1        0.0421
     16 S          -1.9152    2.9487    0.0872 S.2     1  LIG1       -0.0848
     17 C           1.9260    1.9628    0.0233 C.1     1  LIG1       -0.0674
     18 C           3.0338    1.4784    0.0724 C.1     1  LIG1       -0.1138
     19 H           4.0045    1.0416    0.1211 H       1  LIG1        0.1232
     20 S           1.8242    4.9545   -0.7872 S.3     1  LIG1       -0.1403
     21 H           1.1185    6.0836   -0.9895 H       1  LIG1        0.1072
     22 C          -1.5070    5.6249   -0.5549 C.ar    1  LIG1        0.0434
     23 C          -1.2969    6.8259    0.1136 C.ar    1  LIG1        0.0531
     24 C          -2.1015    7.9029   -0.4173 C.ar    1  LIG1        0.0278
     25 C          -2.9056    7.5023   -1.4472 C.ar    1  LIG1       -0.0093
     26 S          -2.6971    5.8217   -1.8187 S.2     1  LIG1       -0.0937
     27 H          -3.6105    8.0956   -2.0123 H       1  LIG1        0.0705
     28 C          -0.4271    6.9835    1.2248 C.1     1  LIG1       -0.0674
     29 C           0.3088    7.1477    2.1714 C.1     1  LIG1       -0.1138
     30 H           0.9587    7.2780    3.0058 H       1  LIG1        0.1232
     31 S          -1.9899    9.5319    0.2880 S.3     1  LIG1       -0.1409
     32 H          -2.8915   10.0979   -0.5383 H       1  LIG1        0.1072
@<TRIPOS>BOND
     1    27    25    1
     2    11    10    1
     3    26    25   ar
     4    26    22   ar
     5    10     3    1
     6    25    24   ar
     7    21    20    1
     8     9     8    1
     9    20    14    1
    10    22    15    1
    11    22    23   ar
    12    32    31    1
    13     8     7    3
    14    24    23   ar
    15    24    31    1
    16    14    15   ar
    17    14    13   ar
    18    15    16   ar
    19     3     2   ar
    20     3     4   ar
    21    13    17    1
    22    13    12   ar
    23     7     2    1
    24    17    18    3
    25    18    19    1
    26    16    12   ar
    27    23    28    1
    28    12     4    1
    29     2     1   ar
    30     4     5   ar
    31    28    29    3
    32     1     5   ar
    33     1     6    1
    34    29    30    1
