@<TRIPOS>MOLECULE
mol_data/opt/b3lyp/geoms/mol2/5eg5eg5eg.out
 32 34 0 0 0
SMALL
GASTEIGER

@<TRIPOS>ATOM
      1 C          -1.9015   -1.9078    0.5454 C.ar    1  LIG1       -0.0072
      2 C          -0.8078   -1.8741   -0.2891 C.ar    1  LIG1        0.0454
      3 C          -0.2669   -0.5392   -0.4276 C.ar    1  LIG1        0.0355
      4 C          -0.9559    0.3977    0.3156 C.ar    1  LIG1        0.0415
      5 S          -2.2910   -0.3598    1.1826 S.2     1  LIG1       -0.0937
      6 H          -2.4843   -2.7782    0.8105 H       1  LIG1        0.0706
      7 C          -0.2777   -3.0152   -0.9516 C.1     1  LIG1       -0.0680
      8 C           0.1823   -3.9788   -1.5206 C.1     1  LIG1       -0.1139
      9 H           0.5870   -4.8269   -2.0226 H       1  LIG1        0.1232
     10 S           1.0932   -0.2696   -1.5284 S.3     1  LIG1       -0.1403
     11 H           1.1774    1.0584   -1.3225 H       1  LIG1        0.1072
     12 C          -0.7456    1.8333    0.4383 C.ar    1  LIG1        0.0440
     13 C           0.3848    2.5134    0.8760 C.ar    1  LIG1        0.0537
     14 C           0.2142    3.9475    0.8778 C.ar    1  LIG1        0.0361
     15 C          -1.0364    4.3445    0.4514 C.ar    1  LIG1        0.0421
     16 S          -2.0178    2.9500    0.0257 S.2     1  LIG1       -0.0848
     17 C           1.5671    1.8778    1.3400 C.1     1  LIG1       -0.0674
     18 C           2.5852    1.3583    1.7373 C.1     1  LIG1       -0.1138
     19 H           3.4754    0.8897    2.0886 H       1  LIG1        0.1232
     20 S           1.5281    4.9693    1.4832 S.3     1  LIG1       -0.1403
     21 H           0.8843    6.1380    1.3023 H       1  LIG1        0.1072
     22 C          -1.6051    5.6813    0.3454 C.ar    1  LIG1        0.0434
     23 C          -1.1627    6.7585   -0.4150 C.ar    1  LIG1        0.0531
     24 C          -2.0021    7.9254   -0.2626 C.ar    1  LIG1        0.0278
     25 C          -3.0567    7.7103    0.5792 C.ar    1  LIG1       -0.0093
     26 S          -3.0524    6.1027    1.2291 S.2     1  LIG1       -0.0937
     27 H          -3.8394    8.4016    0.8578 H       1  LIG1        0.0705
     28 C          -0.0416    6.7198   -1.2856 C.1     1  LIG1       -0.0674
     29 C           0.9104    6.7182   -2.0328 C.1     1  LIG1       -0.1138
     30 H           1.7488    6.7043   -2.6904 H       1  LIG1        0.1232
     31 S          -1.6187    9.4212   -1.1450 S.3     1  LIG1       -0.1409
     32 H          -2.6561   10.1325   -0.6614 H       1  LIG1        0.1072
@<TRIPOS>BOND
     1    30    29    1
     2    29    28    3
     3     9     8    1
     4    10    11    1
     5    10     3    1
     6     8     7    3
     7    28    23    1
     8    31    32    1
     9    31    24    1
    10     7     2    1
    11     3     2   ar
    12     3     4   ar
    13    23    24   ar
    14    23    22   ar
    15     2     1   ar
    16    24    25   ar
    17    16    12   ar
    18    16    15   ar
    19     4    12    1
    20     4     5   ar
    21    22    15    1
    22    22    26   ar
    23    12    13   ar
    24    15    14   ar
    25     1     6    1
    26     1     5   ar
    27    25    27    1
    28    25    26   ar
    29    13    14   ar
    30    13    17    1
    31    14    20    1
    32    21    20    1
    33    17    18    3
    34    18    19    1
