@<TRIPOS>MOLECULE
mol_data/opt/b3lyp/geoms/mol2/5eg5eg5eg-.out
 32 34 0 0 0
SMALL
GASTEIGER

@<TRIPOS>ATOM
      1 C          -1.8849   -1.9165    0.5147 C.ar    1  LIG1       -0.0072
      2 C          -0.7699   -1.8759   -0.2910 C.ar    1  LIG1        0.0454
      3 C          -0.2337   -0.5377   -0.4151 C.ar    1  LIG1        0.0355
      4 C          -0.9474    0.3947    0.3104 C.ar    1  LIG1        0.0415
      5 S          -2.2999   -0.3711    1.1421 S.2     1  LIG1       -0.0937
      6 H          -2.4691   -2.7905    0.7643 H       1  LIG1        0.0706
      7 C          -0.2160   -3.0134   -0.9397 C.1     1  LIG1       -0.0680
      8 C           0.2643   -3.9740   -1.4970 C.1     1  LIG1       -0.1139
      9 H           0.6873   -4.8193   -1.9886 H       1  LIG1        0.1232
     10 S           1.1524   -0.2595   -1.4804 S.3     1  LIG1       -0.1403
     11 H           1.2221    1.0692   -1.2736 H       1  LIG1        0.1072
     12 C          -0.7492    1.8315    0.4386 C.ar    1  LIG1        0.0440
     13 C           0.3659    2.5186    0.9041 C.ar    1  LIG1        0.0537
     14 C           0.1862    3.9515    0.9018 C.ar    1  LIG1        0.0361
     15 C          -1.0560    4.3409    0.4450 C.ar    1  LIG1        0.0421
     16 S          -2.0177    2.9404   -0.0049 S.2     1  LIG1       -0.0848
     17 C           1.5403    1.8904    1.3973 C.1     1  LIG1       -0.0674
     18 C           2.5517    1.3775    1.8196 C.1     1  LIG1       -0.1138
     19 H           3.4360    0.9147    2.1927 H       1  LIG1        0.1232
     20 S           1.4789    4.9818    1.5390 S.3     1  LIG1       -0.1403
     21 H           0.8329    6.1464    1.3409 H       1  LIG1        0.1072
     22 C          -1.6302    5.6743    0.3256 C.ar    1  LIG1        0.0434
     23 C          -1.1770    6.7537   -0.4251 C.ar    1  LIG1        0.0531
     24 C          -2.0268    7.9157   -0.2927 C.ar    1  LIG1        0.0278
     25 C          -3.0991    7.6944    0.5249 C.ar    1  LIG1       -0.0093
     26 S          -3.0997    6.0872    1.1757 S.2     1  LIG1       -0.0937
     27 H          -3.8919    8.3811    0.7853 H       1  LIG1        0.0705
     28 C          -0.0358    6.7219   -1.2694 C.1     1  LIG1       -0.0674
     29 C           0.9334    6.7266   -1.9942 C.1     1  LIG1       -0.1138
     30 H           1.7870    6.7182   -2.6320 H       1  LIG1        0.1232
     31 S          -1.6325    9.4135   -1.1668 S.3     1  LIG1       -0.1409
     32 H          -2.6852   10.1184   -0.7076 H       1  LIG1        0.1072
@<TRIPOS>BOND
     1    30    29    1
     2    29    28    3
     3     9     8    1
     4     8     7    3
     5    10    11    1
     6    10     3    1
     7    28    23    1
     8    31    32    1
     9    31    24    1
    10     7     2    1
    11    23    24   ar
    12    23    22   ar
    13     3     2   ar
    14     3     4   ar
    15    24    25   ar
    16     2     1   ar
    17    16    12   ar
    18    16    15   ar
    19     4    12    1
    20     4     5   ar
    21    22    15    1
    22    22    26   ar
    23    12    13   ar
    24    15    14   ar
    25     1     6    1
    26     1     5   ar
    27    25    27    1
    28    25    26   ar
    29    14    13   ar
    30    14    20    1
    31    13    17    1
    32    21    20    1
    33    17    18    3
    34    18    19    1
