@<TRIPOS>MOLECULE
mol_data/opt/b3lyp/geoms/mol2/5eg5eg-.out
 22 23 0 0 0
SMALL
GASTEIGER

@<TRIPOS>ATOM
      1 C          -1.8315   -1.7750    0.9844 C.ar    1  LIG1       -0.0072
      2 C          -0.7511   -1.8882    0.1393 C.ar    1  LIG1        0.0454
      3 C          -0.2885   -0.6004   -0.3311 C.ar    1  LIG1        0.0355
      4 C          -1.0211    0.4516    0.1789 C.ar    1  LIG1        0.0414
      5 S          -2.2989   -0.1405    1.2384 S.2     1  LIG1       -0.0937
      6 H          -2.3615   -2.5841    1.4660 H       1  LIG1        0.0706
      7 C          -0.1652   -3.1269   -0.2406 C.1     1  LIG1       -0.0680
      8 C           0.3420   -4.1746   -0.5709 C.1     1  LIG1       -0.1139
      9 H           0.7884   -5.0969   -0.8625 H       1  LIG1        0.1232
     10 S           1.0449   -0.5310   -1.4934 S.3     1  LIG1       -0.1403
     11 H           1.0628    0.8112   -1.6018 H       1  LIG1        0.1072
     12 C          -0.8862    1.8829   -0.0566 C.ar    1  LIG1        0.0434
     13 C           0.2020    2.7089    0.2022 C.ar    1  LIG1        0.0531
     14 C          -0.0467    4.0845   -0.1656 C.ar    1  LIG1        0.0278
     15 C          -1.3019    4.2776   -0.6698 C.ar    1  LIG1       -0.0093
     16 S          -2.2080    2.8004   -0.7376 S.2     1  LIG1       -0.0937
     17 H          -1.7505    5.2015   -1.0060 H       1  LIG1        0.0705
     18 C           1.4134    2.2743    0.8024 C.1     1  LIG1       -0.0674
     19 C           2.4578    1.9324    1.3091 C.1     1  LIG1       -0.1138
     20 H           3.3716    1.6185    1.7584 H       1  LIG1        0.1232
     21 S           1.2150    5.3153    0.0780 S.3     1  LIG1       -0.1409
     22 H           0.4935    6.3451   -0.4069 H       1  LIG1        0.1072
@<TRIPOS>BOND
     1    11    10    1
     2    10     3    1
     3    17    15    1
     4     9     8    1
     5    16    15   ar
     6    16    12   ar
     7    15    14   ar
     8     8     7    3
     9    22    21    1
    10     3     2   ar
    11     3     4   ar
    12     7     2    1
    13    14    21    1
    14    14    13   ar
    15    12     4    1
    16    12    13   ar
    17     2     1   ar
    18     4     5   ar
    19    13    18    1
    20    18    19    3
    21     1     5   ar
    22     1     6    1
    23    19    20    1
