@<TRIPOS>MOLECULE
mol_data/opt/b3lyp/geoms/mol2/5eg5eg5eg-5eg.out
 42 45 0 0 0
SMALL
GASTEIGER

@<TRIPOS>ATOM
      1 C          -1.9904   -1.9289    0.4124 C.ar    1  LIG1       -0.0072
      2 C          -0.7364   -1.9466   -0.1541 C.ar    1  LIG1        0.0454
      3 C          -0.1588   -0.6230   -0.2445 C.ar    1  LIG1        0.0355
      4 C          -0.9840    0.3575    0.2681 C.ar    1  LIG1        0.0415
      5 S          -2.4910   -0.3452    0.8541 S.2     1  LIG1       -0.0937
      6 H          -2.6304   -2.7812    0.5901 H       1  LIG1        0.0706
      7 C          -0.0877   -3.1259   -0.6124 C.1     1  LIG1       -0.0680
      8 C           0.4740   -4.1226   -1.0062 C.1     1  LIG1       -0.1139
      9 H           0.9687   -4.9999   -1.3539 H       1  LIG1        0.1232
     10 S           1.4172   -0.4211   -1.0250 S.3     1  LIG1       -0.1403
     11 H           1.4733    0.9163   -0.8797 H       1  LIG1        0.1072
     12 C          -0.7879    1.7981    0.3463 C.ar    1  LIG1        0.0440
     13 C           0.2252    2.5069    0.9814 C.ar    1  LIG1        0.0537
     14 C           0.0783    3.9378    0.8532 C.ar    1  LIG1        0.0361
     15 C          -1.0394    4.3042    0.1311 C.ar    1  LIG1        0.0421
     16 S          -1.9212    2.8834   -0.4110 S.2     1  LIG1       -0.0848
     17 C           1.2653    1.9043    1.7377 C.1     1  LIG1       -0.0674
     18 C           2.1624    1.4133    2.3845 C.1     1  LIG1       -0.1138
     19 H           2.9455    0.9699    2.9552 H       1  LIG1        0.1232
     20 S           1.2346    4.9966    1.6767 S.3     1  LIG1       -0.1403
     21 H           0.6582    6.1515    1.2936 H       1  LIG1        0.1072
     22 C          -1.5542    5.6286   -0.1860 C.ar    1  LIG1        0.0440
     23 C          -0.9324    6.6618   -0.8778 C.ar    1  LIG1        0.0537
     24 C          -1.7692    7.8307   -1.0153 C.ar    1  LIG1        0.0361
     25 C          -3.0129    7.6770   -0.4379 C.ar    1  LIG1        0.0421
     26 S          -3.1641    6.0879    0.2972 S.2     1  LIG1       -0.0848
     27 C           0.3626    6.5699   -1.4534 C.1     1  LIG1       -0.0674
     28 C           1.4648    6.5167   -1.9502 C.1     1  LIG1       -0.1138
     29 H           2.4346    6.4594   -2.3881 H       1  LIG1        0.1232
     30 S          -1.1675    9.2163   -1.9396 S.3     1  LIG1       -0.1403
     31 H          -2.2746    9.9682   -1.7909 H       1  LIG1        0.1072
     32 C          -4.1390    8.5994   -0.3892 C.ar    1  LIG1        0.0434
     33 C          -4.1961    9.8742    0.1637 C.ar    1  LIG1        0.0531
     34 C          -5.5015   10.4794    0.0255 C.ar    1  LIG1        0.0278
     35 C          -6.3990    9.6601   -0.5996 C.ar    1  LIG1       -0.0093
     36 S          -5.6877    8.1472   -1.0599 S.2     1  LIG1       -0.0937
     37 H          -7.4392    9.8547   -0.8190 H       1  LIG1        0.0705
     38 C          -3.1171   10.5071    0.8355 C.1     1  LIG1       -0.0674
     39 C          -2.2157   11.0735    1.4111 C.1     1  LIG1       -0.1138
     40 H          -1.4159   11.5616    1.9187 H       1  LIG1        0.1232
     41 S          -5.7983   12.1142    0.6597 S.3     1  LIG1       -0.1409
     42 H          -7.0908   12.1721    0.2831 H       1  LIG1        0.1072
@<TRIPOS>BOND
     1    29    28    1
     2    28    27    3
     3    30    31    1
     4    30    24    1
     5    27    23    1
     6     9     8    1
     7    36    35   ar
     8    36    32   ar
     9    10    11    1
    10    10     3    1
    11    24    23   ar
    12    24    25   ar
    13     8     7    3
    14    23    22   ar
    15    37    35    1
    16     7     2    1
    17    35    34   ar
    18    25    32    1
    19    25    26   ar
    20    16    15   ar
    21    16    12   ar
    22    32    33   ar
    23     3     2   ar
    24     3     4   ar
    25    22    15    1
    26    22    26   ar
    27     2     1   ar
    28    34    33   ar
    29    34    41    1
    30    15    14   ar
    31    33    38    1
    32     4    12    1
    33     4     5   ar
    34    42    41    1
    35    12    13   ar
    36     1     6    1
    37     1     5   ar
    38    38    39    3
    39    14    13   ar
    40    14    20    1
    41    13    17    1
    42    21    20    1
    43    39    40    1
    44    17    18    3
    45    18    19    1
