@<TRIPOS>MOLECULE
mol_data/opt/b3lyp/geoms/mol2/5eg5eg-5eg5eg.out
 42 45 0 0 0
SMALL
GASTEIGER

@<TRIPOS>ATOM
      1 C          -2.0403   -1.9298    0.3461 C.ar    1  LIG1       -0.0072
      2 C          -0.7846   -1.9494   -0.2166 C.ar    1  LIG1        0.0454
      3 C          -0.1972   -0.6290   -0.2882 C.ar    1  LIG1        0.0355
      4 C          -1.0169    0.3508    0.2345 C.ar    1  LIG1        0.0415
      5 S          -2.5308   -0.3483    0.8067 S.2     1  LIG1       -0.0937
      6 H          -2.6870   -2.7796    0.5109 H       1  LIG1        0.0706
      7 C          -0.1432   -3.1275   -0.6881 C.1     1  LIG1       -0.0680
      8 C           0.4126   -4.1231   -1.0929 C.1     1  LIG1       -0.1139
      9 H           0.9019   -4.9994   -1.4503 H       1  LIG1        0.1232
     10 S           1.3828   -0.4285   -1.0612 S.3     1  LIG1       -0.1403
     11 H           1.4492    0.9062   -0.8966 H       1  LIG1        0.1072
     12 C          -0.8106    1.7889    0.3316 C.ar    1  LIG1        0.0440
     13 C           0.2056    2.4819    0.9790 C.ar    1  LIG1        0.0537
     14 C           0.0697    3.9155    0.8687 C.ar    1  LIG1        0.0361
     15 C          -1.0427    4.2993    0.1475 C.ar    1  LIG1        0.0421
     16 S          -1.9332    2.8921   -0.4156 S.2     1  LIG1       -0.0848
     17 C           1.2386    1.8620    1.7310 C.1     1  LIG1       -0.0674
     18 C           2.1298    1.3561    2.3745 C.1     1  LIG1       -0.1138
     19 H           2.9076    0.8994    2.9420 H       1  LIG1        0.1232
     20 S           1.2308    4.9550    1.7097 S.3     1  LIG1       -0.1403
     21 H           0.6639    6.1190    1.3402 H       1  LIG1        0.1072
     22 C          -1.5468    5.6314   -0.1544 C.ar    1  LIG1        0.0440
     23 C          -0.9147    6.6691   -0.8300 C.ar    1  LIG1        0.0537
     24 C          -1.7426    7.8456   -0.9557 C.ar    1  LIG1        0.0361
     25 C          -2.9898    7.6931   -0.3856 C.ar    1  LIG1        0.0421
     26 S          -3.1555    6.0958    0.3280 S.2     1  LIG1       -0.0848
     27 C           0.3820    6.5754   -1.4015 C.1     1  LIG1       -0.0674
     28 C           1.4857    6.5209   -1.8946 C.1     1  LIG1       -0.1138
     29 H           2.4569    6.4622   -2.3293 H       1  LIG1        0.1232
     30 S          -1.1273    9.2388   -1.8592 S.3     1  LIG1       -0.1403
     31 H          -2.2299    9.9963   -1.7057 H       1  LIG1        0.1072
     32 C          -4.1096    8.6229   -0.3295 C.ar    1  LIG1        0.0434
     33 C          -4.1600    9.8907    0.2401 C.ar    1  LIG1        0.0531
     34 C          -5.4605   10.5069    0.1043 C.ar    1  LIG1        0.0278
     35 C          -6.3610    9.7024   -0.5354 C.ar    1  LIG1       -0.0093
     36 S          -5.6584    8.1907   -1.0128 S.2     1  LIG1       -0.0937
     37 H          -7.3988    9.9074   -0.7567 H       1  LIG1        0.0705
     38 C          -3.0795   10.5067    0.9249 C.1     1  LIG1       -0.0674
     39 C          -2.1765   11.0588    1.5119 C.1     1  LIG1       -0.1138
     40 H          -1.3755   11.5344    2.0294 H       1  LIG1        0.1232
     41 S          -5.7484   12.1353    0.7590 S.3     1  LIG1       -0.1409
     42 H          -7.0384   12.2081    0.3765 H       1  LIG1        0.1072
@<TRIPOS>BOND
     1    29    28    1
     2    28    27    3
     3    30    31    1
     4    30    24    1
     5     9     8    1
     6    27    23    1
     7     8     7    3
     8    10    11    1
     9    10     3    1
    10    36    35   ar
    11    36    32   ar
    12    24    23   ar
    13    24    25   ar
    14    23    22   ar
    15    37    35    1
    16     7     2    1
    17    35    34   ar
    18    16    15   ar
    19    16    12   ar
    20    25    32    1
    21    25    26   ar
    22    32    33   ar
    23     3     2   ar
    24     3     4   ar
    25     2     1   ar
    26    22    15    1
    27    22    26   ar
    28    34    33   ar
    29    34    41    1
    30    15    14   ar
    31     4    12    1
    32     4     5   ar
    33    33    38    1
    34    12    13   ar
    35     1     6    1
    36     1     5   ar
    37    42    41    1
    38    14    13   ar
    39    14    20    1
    40    38    39    3
    41    13    17    1
    42    21    20    1
    43    39    40    1
    44    17    18    3
    45    18    19    1
