@<TRIPOS>MOLECULE
mol_data/opt/b3lyp/geoms/mol2/5eg5eg-5eg-5eg-.out
 42 45 0 0 0
SMALL
GASTEIGER

@<TRIPOS>ATOM
      1 C          -1.9932   -1.9340   -0.3308 C.ar    1  LIG1       -0.0072
      2 C          -0.7542   -1.9447    0.2682 C.ar    1  LIG1        0.0454
      3 C          -0.1764   -0.6209    0.3523 C.ar    1  LIG1        0.0355
      4 C          -0.9860    0.3527   -0.1972 C.ar    1  LIG1        0.0415
      5 S          -2.4788   -0.3567   -0.8106 S.2     1  LIG1       -0.0937
      6 H          -2.6301   -2.7880   -0.5114 H       1  LIG1        0.0706
      7 C          -0.1202   -3.1177    0.7620 C.1     1  LIG1       -0.0680
      8 C           0.4291   -4.1089    1.1861 C.1     1  LIG1       -0.1139
      9 H           0.9127   -4.9813    1.5605 H       1  LIG1        0.1232
     10 S           1.3793   -0.4091    1.1704 S.3     1  LIG1       -0.1403
     11 H           1.4430    0.9255    1.0035 H       1  LIG1        0.1072
     12 C          -0.7850    1.7915   -0.2931 C.ar    1  LIG1        0.0440
     13 C           0.2458    2.4884   -0.9126 C.ar    1  LIG1        0.0537
     14 C           0.0984    3.9215   -0.8114 C.ar    1  LIG1        0.0361
     15 C          -1.0371    4.3011   -0.1248 C.ar    1  LIG1        0.0421
     16 S          -1.9356    2.8907    0.4166 S.2     1  LIG1       -0.0848
     17 C           1.3043    1.8722   -1.6316 C.1     1  LIG1       -0.0674
     18 C           2.2171    1.3694   -2.2466 C.1     1  LIG1       -0.1138
     19 H           3.0140    0.9156   -2.7894 H       1  LIG1        0.1232
     20 S           1.2778    4.9652   -1.6209 S.3     1  LIG1       -0.1403
     21 H           0.6933    6.1269   -1.2723 H       1  LIG1        0.1072
     22 C          -1.5573    5.6313    0.1573 C.ar    1  LIG1        0.0440
     23 C          -0.9517    6.6742    0.8489 C.ar    1  LIG1        0.0537
     24 C          -1.7892    7.8466    0.9457 C.ar    1  LIG1        0.0361
     25 C          -3.0175    7.6860    0.3381 C.ar    1  LIG1        0.0421
     26 S          -3.1528    6.0858   -0.3756 S.2     1  LIG1       -0.0848
     27 C           0.3274    6.5888    1.4599 C.1     1  LIG1       -0.0674
     28 C           1.4160    6.5412    1.9864 C.1     1  LIG1       -0.1138
     29 H           2.3739    6.4887    2.4504 H       1  LIG1        0.1232
     30 S          -1.2090    9.2457    1.8636 S.3     1  LIG1       -0.1403
     31 H          -2.3107    9.9965    1.6751 H       1  LIG1        0.1072
     32 C          -4.1399    8.6096    0.2448 C.ar    1  LIG1        0.0434
     33 C          -4.1795    9.8758   -0.3292 C.ar    1  LIG1        0.0531
     34 C          -5.4869   10.4851   -0.2354 C.ar    1  LIG1        0.0278
     35 C          -6.4025    9.6771    0.3780 C.ar    1  LIG1       -0.0093
     36 S          -5.7069    8.1704    0.8806 S.2     1  LIG1       -0.0937
     37 H          -7.4478    9.8769    0.5664 H       1  LIG1        0.0705
     38 C          -3.0816   10.4964   -0.9816 C.1     1  LIG1       -0.0674
     39 C          -2.1640   11.0525   -1.5414 C.1     1  LIG1       -0.1138
     40 H          -1.3500   11.5315   -2.0348 H       1  LIG1        0.1232
     41 S          -5.7632   12.1105   -0.9026 S.3     1  LIG1       -0.1409
     42 H          -7.0654   12.1761   -0.5620 H       1  LIG1        0.1072
@<TRIPOS>BOND
     1    19    18    1
     2    18    17    3
     3    40    39    1
     4    17    13    1
     5    20    21    1
     6    20    14    1
     7    39    38    3
     8    38    33    1
     9    13    14   ar
    10    13    12   ar
    11    41    42    1
    12    41    34    1
    13    14    15   ar
    14     5     1   ar
    15     5     4   ar
    16     6     1    1
    17    26    22   ar
    18    26    25   ar
    19     1     2   ar
    20    33    34   ar
    21    33    32   ar
    22    12     4    1
    23    12    16   ar
    24    34    35   ar
    25     4     3   ar
    26    15    22    1
    27    15    16   ar
    28    22    23   ar
    29    32    25    1
    30    32    36   ar
    31     2     3   ar
    32     2     7    1
    33    25    24   ar
    34     3    10    1
    35    35    37    1
    36    35    36   ar
    37     7     8    3
    38    23    24   ar
    39    23    27    1
    40    24    30    1
    41    11    10    1
    42     8     9    1
    43    27    28    3
    44    31    30    1
    45    28    29    1
