@<TRIPOS>MOLECULE
mol_data/opt/b3lyp/geoms/mol2/5eg5eg5eg-5eg-.out
 42 45 0 0 0
SMALL
GASTEIGER

@<TRIPOS>ATOM
      1 C          -0.8070   -1.7482    1.8459 C.ar    1  LIG1       -0.0072
      2 C          -0.7106   -1.9032    0.4819 C.ar    1  LIG1        0.0454
      3 C          -0.5707   -0.6365   -0.2034 C.ar    1  LIG1        0.0355
      4 C          -0.5517    0.4401    0.6598 C.ar    1  LIG1        0.0415
      5 S          -0.7211   -0.1010    2.3287 S.2     1  LIG1       -0.0937
      6 H          -0.9188   -2.5346    2.5785 H       1  LIG1        0.0706
      7 C          -0.7570   -3.1604   -0.1807 C.1     1  LIG1       -0.0680
      8 C          -0.7955   -4.2244   -0.7557 C.1     1  LIG1       -0.1139
      9 H          -0.8299   -5.1609   -1.2625 H       1  LIG1        0.1232
     10 S          -0.5146   -0.6148   -1.9728 S.3     1  LIG1       -0.1403
     11 H          -0.3997    0.7215   -2.0921 H       1  LIG1        0.1072
     12 C          -0.4452    1.8646    0.3743 C.ar    1  LIG1        0.0440
     13 C           0.5759    2.5473   -0.2759 C.ar    1  LIG1        0.0537
     14 C           0.3342    3.9682   -0.3689 C.ar    1  LIG1        0.0361
     15 C          -0.8416    4.3576    0.2393 C.ar    1  LIG1        0.0421
     16 S          -1.6904    2.9655    0.8974 S.2     1  LIG1       -0.0848
     17 C           1.7553    1.9318   -0.7731 C.1     1  LIG1       -0.0674
     18 C           2.7664    1.4283   -1.2070 C.1     1  LIG1       -0.1138
     19 H           3.6539    0.9744   -1.5836 H       1  LIG1        0.1232
     20 S           1.4895    4.9810   -1.2496 S.3     1  LIG1       -0.1403
     21 H           0.8204    6.1361   -1.0726 H       1  LIG1        0.1072
     22 C          -1.4347    5.6820    0.3623 C.ar    1  LIG1        0.0440
     23 C          -0.9029    6.8214    0.9550 C.ar    1  LIG1        0.0537
     24 C          -1.7984    7.9531    0.9027 C.ar    1  LIG1        0.0361
     25 C          -2.9963    7.6672    0.2804 C.ar    1  LIG1        0.0421
     26 S          -3.0311    5.9959   -0.2609 S.2     1  LIG1       -0.0848
     27 C           0.3582    6.8662    1.6063 C.1     1  LIG1       -0.0674
     28 C           1.4304    6.9284    2.1638 C.1     1  LIG1       -0.1138
     29 H           2.3748    6.9706    2.6557 H       1  LIG1        0.1232
     30 S          -1.3169    9.4686    1.6825 S.3     1  LIG1       -0.1403
     31 H          -2.4491   10.1359    1.3893 H       1  LIG1        0.1072
     32 C          -4.1568    8.5184    0.0556 C.ar    1  LIG1        0.0434
     33 C          -4.2354    9.7118   -0.6542 C.ar    1  LIG1        0.0531
     34 C          -5.5719   10.2622   -0.6647 C.ar    1  LIG1        0.0278
     35 C          -6.4692    9.4809    0.0075 C.ar    1  LIG1       -0.0093
     36 S          -5.7223    8.0733    0.6909 S.2     1  LIG1       -0.0937
     37 H          -7.5283    9.6480    0.1435 H       1  LIG1        0.0705
     38 C          -3.1457   10.3123   -1.3384 C.1     1  LIG1       -0.0674
     39 C          -2.2357   10.8490   -1.9287 C.1     1  LIG1       -0.1138
     40 H          -1.4281   11.3117   -2.4475 H       1  LIG1        0.1232
     41 S          -5.9005   11.7901   -1.5135 S.3     1  LIG1       -0.1409
     42 H          -7.2159   11.8254   -1.2230 H       1  LIG1        0.1072
@<TRIPOS>BOND
     1    40    39    1
     2    11    10    1
     3    10     3    1
     4    39    38    3
     5    19    18    1
     6    41    42    1
     7    41    34    1
     8    38    33    1
     9     9     8    1
    10    20    21    1
    11    20    14    1
    12    18    17    3
    13    17    13    1
    14     8     7    3
    15    34    33   ar
    16    34    35   ar
    17    33    32   ar
    18    14    13   ar
    19    14    15   ar
    20    13    12   ar
    21    26    25   ar
    22    26    22   ar
    23     3     2   ar
    24     3     4   ar
    25     7     2    1
    26    35    37    1
    27    35    36   ar
    28    32    25    1
    29    32    36   ar
    30    15    22    1
    31    15    16   ar
    32    25    24   ar
    33    22    23   ar
    34    12     4    1
    35    12    16   ar
    36     2     1   ar
    37     4     5   ar
    38    24    23   ar
    39    24    30    1
    40    23    27    1
    41    31    30    1
    42    27    28    3
    43     1     5   ar
    44     1     6    1
    45    28    29    1
