@<TRIPOS>MOLECULE
mol_data/opt/b3lyp/geoms/mol2/5eg5eg-5eg5eg-.out
 42 45 0 0 0
SMALL
GASTEIGER

@<TRIPOS>ATOM
      1 C          -0.8840   -1.3273    2.4826 C.ar    1  LIG1       -0.0072
      2 C          -0.8345   -1.7105    1.1617 C.ar    1  LIG1        0.0454
      3 C          -0.6543   -0.5834    0.2724 C.ar    1  LIG1        0.0355
      4 C          -0.5594    0.6186    0.9436 C.ar    1  LIG1        0.0415
      5 S          -0.7058    0.3704    2.6824 S.2     1  LIG1       -0.0937
      6 H          -1.0120   -1.9749    3.3380 H       1  LIG1        0.0706
      7 C          -0.9601   -3.0557    0.7187 C.1     1  LIG1       -0.0680
      8 C          -1.0661   -4.1965    0.3295 C.1     1  LIG1       -0.1139
      9 H          -1.1601   -5.2008   -0.0136 H       1  LIG1        0.1232
     10 S          -0.6489   -0.8573   -1.4768 S.3     1  LIG1       -0.1403
     11 H          -0.4682    0.4321   -1.8195 H       1  LIG1        0.1072
     12 C          -0.3943    1.9690    0.4224 C.ar    1  LIG1        0.0440
     13 C           0.6400    2.4815   -0.3516 C.ar    1  LIG1        0.0537
     14 C           0.4620    3.8773   -0.6773 C.ar    1  LIG1        0.0361
     15 C          -0.6785    4.4208   -0.1229 C.ar    1  LIG1        0.0421
     16 S          -1.5731    3.2025    0.7751 S.2     1  LIG1       -0.0848
     17 C           1.7759    1.7333   -0.7599 C.1     1  LIG1       -0.0674
     18 C           2.7506    1.1141   -1.1219 C.1     1  LIG1       -0.1138
     19 H           3.6057    0.5596   -1.4331 H       1  LIG1        0.1232
     20 S           1.6411    4.6702   -1.7344 S.3     1  LIG1       -0.1403
     21 H           1.0370    5.8736   -1.7331 H       1  LIG1        0.1072
     22 C          -1.2053    5.7761   -0.2152 C.ar    1  LIG1        0.0440
     23 C          -0.6093    6.9679    0.1803 C.ar    1  LIG1        0.0537
     24 C          -1.4424    8.1219   -0.0645 C.ar    1  LIG1        0.0361
     25 C          -2.6692    7.7986   -0.6063 C.ar    1  LIG1        0.0421
     26 S          -2.7990    6.0641   -0.8580 S.2     1  LIG1       -0.0848
     27 C           0.6690    7.0553    0.7926 C.1     1  LIG1       -0.0674
     28 C           1.7570    7.1538    1.3132 C.1     1  LIG1       -0.1138
     29 H           2.7154    7.2285    1.7730 H       1  LIG1        0.1232
     30 S          -0.8090    9.7357    0.2978 S.3     1  LIG1       -0.1403
     31 H          -1.9040   10.4041   -0.1121 H       1  LIG1        0.1072
     32 C          -3.7762    8.6658   -0.9881 C.ar    1  LIG1        0.0434
     33 C          -4.5166    9.5310   -0.1901 C.ar    1  LIG1        0.0531
     34 C          -5.5504   10.2183   -0.9304 C.ar    1  LIG1        0.0278
     35 C          -5.5862    9.8548   -2.2474 C.ar    1  LIG1       -0.0093
     36 S          -4.3606    8.6910   -2.6341 S.2     1  LIG1       -0.0937
     37 H          -6.2611   10.2020   -3.0168 H       1  LIG1        0.0705
     38 C          -4.3226    9.6975    1.2066 C.1     1  LIG1       -0.0674
     39 C          -4.1783    9.8616    2.3968 C.1     1  LIG1       -0.1138
     40 H          -4.0431    9.9946    3.4454 H       1  LIG1        0.1232
     41 S          -6.6180   11.3770   -0.1056 S.3     1  LIG1       -0.1409
     42 H          -7.3454   11.6894   -1.1960 H       1  LIG1        0.1072
@<TRIPOS>BOND
     1    37    35    1
     2    36    35   ar
     3    36    32   ar
     4    35    34   ar
     5    11    10    1
     6    20    21    1
     7    20    14    1
     8    10     3    1
     9    19    18    1
    10    42    41    1
    11    18    17    3
    12    32    25    1
    13    32    33   ar
    14    34    33   ar
    15    34    41    1
    16    26    25   ar
    17    26    22   ar
    18    17    13    1
    19    14    13   ar
    20    14    15   ar
    21    25    24   ar
    22    13    12   ar
    23    22    15    1
    24    22    23   ar
    25    33    38    1
    26    15    16   ar
    27    31    30    1
    28    24    23   ar
    29    24    30    1
    30     9     8    1
    31    23    27    1
    32     3     4   ar
    33     3     2   ar
    34     8     7    3
    35    12    16   ar
    36    12     4    1
    37     7     2    1
    38    27    28    3
    39     4     5   ar
    40     2     1   ar
    41    38    39    3
    42    28    29    1
    43    39    40    1
    44     1     5   ar
    45     1     6    1
