@<TRIPOS>MOLECULE
mol_data/opt/b3lyp/geoms/mol2/5eg5eg5eg5eg.out
 42 45 0 0 0
SMALL
GASTEIGER

@<TRIPOS>ATOM
      1 C          -1.9529   -1.9305    0.4289 C.ar    1  LIG1       -0.0072
      2 C          -0.7235   -1.9441   -0.1894 C.ar    1  LIG1        0.0454
      3 C          -0.1540   -0.6189   -0.3027 C.ar    1  LIG1        0.0355
      4 C          -0.9599    0.3589    0.2448 C.ar    1  LIG1        0.0415
      5 S          -2.4390   -0.3485    0.8925 S.2     1  LIG1       -0.0937
      6 H          -2.5824   -2.7848    0.6324 H       1  LIG1        0.0706
      7 C          -0.0912   -3.1213   -0.6755 C.1     1  LIG1       -0.0680
      8 C           0.4564   -4.1160   -1.0933 C.1     1  LIG1       -0.1139
      9 H           0.9387   -4.9916   -1.4620 H       1  LIG1        0.1232
     10 S           1.3873   -0.4117   -1.1484 S.3     1  LIG1       -0.1403
     11 H           1.4459    0.9257   -1.0040 H       1  LIG1        0.1072
     12 C          -0.7648    1.8000    0.3160 C.ar    1  LIG1        0.0440
     13 C           0.2722    2.5111    0.9087 C.ar    1  LIG1        0.0537
     14 C           0.1159    3.9417    0.7883 C.ar    1  LIG1        0.0361
     15 C          -1.0322    4.3056    0.1144 C.ar    1  LIG1        0.0421
     16 S          -1.9320    2.8828   -0.3916 S.2     1  LIG1       -0.0848
     17 C           1.3449    1.9108    1.6200 C.1     1  LIG1       -0.0674
     18 C           2.2697    1.4217    2.2281 C.1     1  LIG1       -0.1138
     19 H           3.0773    0.9800    2.7649 H       1  LIG1        0.1232
     20 S           1.3029    5.0031    1.5634 S.3     1  LIG1       -0.1403
     21 H           0.7072    6.1567    1.2066 H       1  LIG1        0.1072
     22 C          -1.5638    5.6287   -0.1794 C.ar    1  LIG1        0.0440
     23 C          -0.9747    6.6645   -0.8957 C.ar    1  LIG1        0.0537
     24 C          -1.8201    7.8309   -0.9966 C.ar    1  LIG1        0.0361
     25 C          -3.0379    7.6729   -0.3675 C.ar    1  LIG1        0.0421
     26 S          -3.1532    6.0827    0.3717 S.2     1  LIG1       -0.0848
     27 C           0.2952    6.5770   -1.5254 C.1     1  LIG1       -0.0674
     28 C           1.3756    6.5277   -2.0681 C.1     1  LIG1       -0.1138
     29 H           2.3264    6.4737   -2.5463 H       1  LIG1        0.1232
     30 S          -1.2619    9.2193   -1.9439 S.3     1  LIG1       -0.1403
     31 H          -2.3643    9.9674   -1.7483 H       1  LIG1        0.1072
     32 C          -4.1638    8.5918   -0.2705 C.ar    1  LIG1        0.0434
     33 C          -4.2016    9.8658    0.2860 C.ar    1  LIG1        0.0531
     34 C          -5.5135   10.4670    0.2034 C.ar    1  LIG1        0.0278
     35 C          -6.4339    9.6456   -0.3846 C.ar    1  LIG1       -0.0093
     36 S          -5.7378    8.1355   -0.8763 S.2     1  LIG1       -0.0937
     37 H          -7.4830    9.8371   -0.5598 H       1  LIG1        0.0705
     38 C          -3.0974   10.5014    0.9128 C.1     1  LIG1       -0.0674
     39 C          -2.1744   11.0701    1.4507 C.1     1  LIG1       -0.1138
     40 H          -1.3557   11.5602    1.9250 H       1  LIG1        0.1232
     41 S          -5.7885   12.1001    0.8516 S.3     1  LIG1       -0.1409
     42 H          -7.0956   12.1549    0.5283 H       1  LIG1        0.1072
@<TRIPOS>BOND
     1    29    28    1
     2    28    27    3
     3    30    31    1
     4    30    24    1
     5    27    23    1
     6     9     8    1
     7    10    11    1
     8    10     3    1
     9     8     7    3
    10    24    23   ar
    11    24    25   ar
    12    23    22   ar
    13    36    35   ar
    14    36    32   ar
    15     7     2    1
    16    37    35    1
    17    16    15   ar
    18    16    12   ar
    19    35    34   ar
    20    25    32    1
    21    25    26   ar
    22     3     2   ar
    23     3     4   ar
    24    32    33   ar
    25     2     1   ar
    26    22    15    1
    27    22    26   ar
    28    15    14   ar
    29    34    33   ar
    30    34    41    1
    31     4    12    1
    32     4     5   ar
    33    33    38    1
    34    12    13   ar
    35     1     6    1
    36     1     5   ar
    37    42    41    1
    38    14    13   ar
    39    14    20    1
    40    13    17    1
    41    38    39    3
    42    21    20    1
    43    39    40    1
    44    17    18    3
    45    18    19    1
