@<TRIPOS>MOLECULE
mol_data/opt/b3lyp/geoms/mol2/5eg5eg-5eg-5eg.out
 42 45 0 0 0
SMALL
GASTEIGER

@<TRIPOS>ATOM
      1 C          -1.9149   -1.9323   -0.4431 C.ar    1  LIG1       -0.0072
      2 C          -0.7235   -1.9422    0.2457 C.ar    1  LIG1        0.0454
      3 C          -0.1639   -0.6156    0.3886 C.ar    1  LIG1        0.0355
      4 C          -0.9383    0.3594   -0.2072 C.ar    1  LIG1        0.0415
      5 S          -2.3760   -0.3524   -0.9382 S.2     1  LIG1       -0.0937
      6 H          -2.5301   -2.7883   -0.6807 H       1  LIG1        0.0706
      7 C          -0.1186   -3.1170    0.7707 C.1     1  LIG1       -0.0680
      8 C           0.4054   -4.1097    1.2222 C.1     1  LIG1       -0.1139
      9 H           0.8668   -4.9836    1.6205 H       1  LIG1        0.1232
     10 S           1.3253   -0.4037    1.3221 S.3     1  LIG1       -0.1403
     11 H           1.3910    0.9333    1.1768 H       1  LIG1        0.1072
     12 C          -0.7420    1.8007   -0.2706 C.ar    1  LIG1        0.0440
     13 C           0.3265    2.5124   -0.8032 C.ar    1  LIG1        0.0537
     14 C           0.1609    3.9431   -0.6956 C.ar    1  LIG1        0.0361
     15 C          -1.0252    4.3062   -0.0906 C.ar    1  LIG1        0.0421
     16 S          -1.9505    2.8828    0.3653 S.2     1  LIG1       -0.0848
     17 C           1.4401    1.9127   -1.4492 C.1     1  LIG1       -0.0674
     18 C           2.3998    1.4240   -2.0010 C.1     1  LIG1       -0.1138
     19 H           3.2381    0.9826   -2.4887 H       1  LIG1        0.1232
     20 S           1.3890    5.0048   -1.4024 S.3     1  LIG1       -0.1403
     21 H           0.7717    6.1581   -1.0835 H       1  LIG1        0.1072
     22 C          -1.5755    5.6289    0.1685 C.ar    1  LIG1        0.0440
     23 C          -1.0313    6.6674    0.9156 C.ar    1  LIG1        0.0537
     24 C          -1.8833    7.8324    0.9641 C.ar    1  LIG1        0.0361
     25 C          -3.0618    7.6707    0.2651 C.ar    1  LIG1        0.0421
     26 S          -3.1308    6.0786   -0.4759 S.2     1  LIG1       -0.0848
     27 C           0.1996    6.5837    1.6189 C.1     1  LIG1       -0.0674
     28 C           1.2465    6.5377    2.2242 C.1     1  LIG1       -0.1138
     29 H           2.1676    6.4865    2.7576 H       1  LIG1        0.1232
     30 S          -1.3840    9.2242    1.9391 S.3     1  LIG1       -0.1403
     31 H          -2.4740    9.9700    1.6768 H       1  LIG1        0.1072
     32 C          -4.1816    8.5873    0.1003 C.ar    1  LIG1        0.0434
     33 C          -4.1889    9.8598   -0.4609 C.ar    1  LIG1        0.0531
     34 C          -5.5043   10.4590   -0.4565 C.ar    1  LIG1        0.0278
     35 C          -6.4561    9.6376    0.0790 C.ar    1  LIG1       -0.0093
     36 S          -5.7876    8.1300    0.6145 S.2     1  LIG1       -0.0937
     37 H          -7.5139    9.8279    0.1925 H       1  LIG1        0.0705
     38 C          -3.0509   10.4955   -1.0239 C.1     1  LIG1       -0.0674
     39 C          -2.0989   11.0641   -1.5087 C.1     1  LIG1       -0.1138
     40 H          -1.2545   11.5543   -1.9357 H       1  LIG1        0.1232
     41 S          -5.7435   12.0901   -1.1240 S.3     1  LIG1       -0.1409
     42 H          -7.0669   12.1445   -0.8755 H       1  LIG1        0.1072
@<TRIPOS>BOND
     1    19    18    1
     2    18    17    3
     3    40    39    1
     4    39    38    3
     5    17    13    1
     6    20    21    1
     7    20    14    1
     8    41    42    1
     9    41    34    1
    10    38    33    1
    11     5     1   ar
    12     5     4   ar
    13    13    14   ar
    14    13    12   ar
    15    14    15   ar
    16     6     1    1
    17    26    22   ar
    18    26    25   ar
    19    33    34   ar
    20    33    32   ar
    21    34    35   ar
    22     1     2   ar
    23    12     4    1
    24    12    16   ar
    25     4     3   ar
    26    15    22    1
    27    15    16   ar
    28    35    37    1
    29    35    36   ar
    30    32    25    1
    31    32    36   ar
    32    22    23   ar
    33     2     3   ar
    34     2     7    1
    35    25    24   ar
    36     3    10    1
    37     7     8    3
    38    23    24   ar
    39    23    27    1
    40    24    30    1
    41    11    10    1
    42     8     9    1
    43    27    28    3
    44    31    30    1
    45    28    29    1
