@<TRIPOS>MOLECULE
mol_data/opt/b3lyp/geoms/mol2/5eg5eg.out
 22 23 0 0 0
SMALL
GASTEIGER

@<TRIPOS>ATOM
      1 C          -1.8402   -1.7629    1.0111 C.ar    1  LIG1       -0.0072
      2 C          -0.7522   -1.8864    0.1774 C.ar    1  LIG1        0.0454
      3 C          -0.2855   -0.6043   -0.3045 C.ar    1  LIG1        0.0355
      4 C          -1.0225    0.4537    0.1859 C.ar    1  LIG1        0.0414
      5 S          -2.3101   -0.1255    1.2405 S.2     1  LIG1       -0.0937
      6 H          -2.3746   -2.5661    1.4978 H       1  LIG1        0.0706
      7 C          -0.1625   -3.1294   -0.1818 C.1     1  LIG1       -0.0680
      8 C           0.3479   -4.1810   -0.4944 C.1     1  LIG1       -0.1139
      9 H           0.7971   -5.1068   -0.7704 H       1  LIG1        0.1232
     10 S           1.0595   -0.5489   -1.4552 S.3     1  LIG1       -0.1403
     11 H           1.0735    0.7914   -1.5848 H       1  LIG1        0.1072
     12 C          -0.8855    1.8821   -0.0663 C.ar    1  LIG1        0.0434
     13 C           0.2002    2.7113    0.1926 C.ar    1  LIG1        0.0531
     14 C          -0.0451    4.0824   -0.1941 C.ar    1  LIG1        0.0278
     15 C          -1.2956    4.2690   -0.7122 C.ar    1  LIG1       -0.0093
     16 S          -2.2010    2.7910   -0.7705 S.2     1  LIG1       -0.0937
     17 H          -1.7411    5.1886   -1.0642 H       1  LIG1        0.0705
     18 C           1.4058    2.2842    0.8095 C.1     1  LIG1       -0.0674
     19 C           2.4454    1.9486    1.3302 C.1     1  LIG1       -0.1138
     20 H           3.3547    1.6400    1.7920 H       1  LIG1        0.1232
     21 S           1.2138    5.3159    0.0463 S.3     1  LIG1       -0.1409
     22 H           0.4967    6.3398   -0.4572 H       1  LIG1        0.1072
@<TRIPOS>BOND
     1    11    10    1
     2    10     3    1
     3    17    15    1
     4    16    15   ar
     5    16    12   ar
     6     9     8    1
     7    15    14   ar
     8     8     7    3
     9    22    21    1
    10     3     2   ar
    11     3     4   ar
    12    14    21    1
    13    14    13   ar
    14     7     2    1
    15    12     4    1
    16    12    13   ar
    17     2     1   ar
    18     4     5   ar
    19    13    18    1
    20    18    19    3
    21     1     5   ar
    22     1     6    1
    23    19    20    1
