@<TRIPOS>MOLECULE
mol_data/opt/b3lyp/geoms/mol2/5eg5eg-5eg.out
 32 34 0 0 0
SMALL
GASTEIGER

@<TRIPOS>ATOM
      1 C          -1.4155   -1.6087    1.7770 C.ar    1  LIG1       -0.0072
      2 C          -0.8074   -1.8761    0.5717 C.ar    1  LIG1        0.0454
      3 C          -0.4267   -0.6681   -0.1278 C.ar    1  LIG1        0.0355
      4 C          -0.7448    0.4785    0.5709 C.ar    1  LIG1        0.0415
      5 S          -1.5304    0.0761    2.0964 S.2     1  LIG1       -0.0937
      6 H          -1.7913   -2.3333    2.4849 H       1  LIG1        0.0706
      7 C          -0.5905   -3.1864    0.0640 C.1     1  LIG1       -0.0680
      8 C          -0.4012   -4.2965   -0.3785 C.1     1  LIG1       -0.1139
      9 H          -0.2346   -5.2738   -0.7689 H       1  LIG1        0.1232
     10 S           0.2973   -0.7954   -1.7387 S.3     1  LIG1       -0.1403
     11 H           0.4459    0.5291   -1.9296 H       1  LIG1        0.1072
     12 C          -0.5517    1.8766    0.2093 C.ar    1  LIG1        0.0440
     13 C           0.6335    2.5483   -0.0659 C.ar    1  LIG1        0.0537
     14 C           0.4296    3.9419   -0.3860 C.ar    1  LIG1        0.0361
     15 C          -0.8939    4.3247   -0.3194 C.ar    1  LIG1        0.0421
     16 S          -1.9141    2.9573    0.1025 S.2     1  LIG1       -0.0848
     17 C           1.9202    1.9494   -0.0116 C.1     1  LIG1       -0.0674
     18 C           3.0262    1.4597    0.0248 C.1     1  LIG1       -0.1138
     19 H           3.9952    1.0181    0.0621 H       1  LIG1        0.1232
     20 S           1.8223    4.9349   -0.8459 S.3     1  LIG1       -0.1403
     21 H           1.1191    6.0654   -1.0490 H       1  LIG1        0.1072
     22 C          -1.5008    5.6259   -0.5685 C.ar    1  LIG1        0.0434
     23 C          -1.2732    6.8311    0.0867 C.ar    1  LIG1        0.0531
     24 C          -2.0793    7.9086   -0.4409 C.ar    1  LIG1        0.0278
     25 C          -2.9016    7.5044   -1.4549 C.ar    1  LIG1       -0.0093
     26 S          -2.7089    5.8196   -1.8155 S.2     1  LIG1       -0.0937
     27 H          -3.6113    8.0973   -2.0141 H       1  LIG1        0.0705
     28 C          -0.3857    6.9925    1.1833 C.1     1  LIG1       -0.0674
     29 C           0.3653    7.1599    2.1172 C.1     1  LIG1       -0.1138
     30 H           1.0286    7.2931    2.9406 H       1  LIG1        0.1232
     31 S          -1.9472    9.5427    0.2489 S.3     1  LIG1       -0.1409
     32 H          -2.8560   10.1078   -0.5701 H       1  LIG1        0.1072
@<TRIPOS>BOND
     1    27    25    1
     2    11    10    1
     3    26    25   ar
     4    26    22   ar
     5    10     3    1
     6    25    24   ar
     7    21    20    1
     8    20    14    1
     9     9     8    1
    10    32    31    1
    11    22    15    1
    12    22    23   ar
    13    24    23   ar
    14    24    31    1
    15    14    15   ar
    16    14    13   ar
    17     8     7    3
    18    15    16   ar
    19     3     4   ar
    20     3     2   ar
    21    13    17    1
    22    13    12   ar
    23    17    18    3
    24    18    19    1
    25     7     2    1
    26    23    28    1
    27    16    12   ar
    28    12     4    1
    29     4     5   ar
    30     2     1   ar
    31    28    29    3
    32     1     5   ar
    33     1     6    1
    34    29    30    1
