@<TRIPOS>MOLECULE
mol_data/opt/b3lyp/geoms/mol2/5eg5eg5eg5eg-.out
 42 45 0 0 0
SMALL
GASTEIGER

@<TRIPOS>ATOM
      1 C          -1.9087   -1.9293    0.4844 C.ar    1  LIG1       -0.0072
      2 C          -0.6983   -1.9418   -0.1702 C.ar    1  LIG1        0.0454
      3 C          -0.1386   -0.6148   -0.3096 C.ar    1  LIG1        0.0355
      4 C          -0.9323    0.3631    0.2550 C.ar    1  LIG1        0.0415
      5 S          -2.3882   -0.3463    0.9515 S.2     1  LIG1       -0.0937
      6 H          -2.5279   -2.7849    0.7125 H       1  LIG1        0.0706
      7 C          -0.0753   -3.1195   -0.6668 C.1     1  LIG1       -0.0680
      8 C           0.4643   -4.1147   -1.0940 C.1     1  LIG1       -0.1139
      9 H           0.9394   -4.9906   -1.4710 H       1  LIG1        0.1232
     10 S           1.3759   -0.4067   -1.2021 S.3     1  LIG1       -0.1403
     11 H           1.4323    0.9320   -1.0691 H       1  LIG1        0.1072
     12 C          -0.7420    1.8056    0.3103 C.ar    1  LIG1        0.0440
     13 C           0.3087    2.5255    0.8671 C.ar    1  LIG1        0.0537
     14 C           0.1423    3.9545    0.7415 C.ar    1  LIG1        0.0361
     15 C          -1.0268    4.3085    0.0991 C.ar    1  LIG1        0.0421
     16 S          -1.9345    2.8781   -0.3702 S.2     1  LIG1       -0.0848
     17 C           1.4048    1.9350    1.5505 C.1     1  LIG1       -0.0674
     18 C           2.3494    1.4543    2.1343 C.1     1  LIG1       -0.1138
     19 H           3.1745    1.0198    2.6501 H       1  LIG1        0.1232
     20 S           1.3465    5.0266    1.4741 S.3     1  LIG1       -0.1403
     21 H           0.7352    6.1750    1.1271 H       1  LIG1        0.1072
     22 C          -1.5730    5.6271   -0.1881 C.ar    1  LIG1        0.0440
     23 C          -1.0097    6.6605   -0.9282 C.ar    1  LIG1        0.0537
     24 C          -1.8631    7.8224   -1.0124 C.ar    1  LIG1        0.0361
     25 C          -3.0614    7.6633   -0.3472 C.ar    1  LIG1        0.0421
     26 S          -3.1479    6.0777    0.4056 S.2     1  LIG1       -0.0848
     27 C           0.2417    6.5742   -1.5939 C.1     1  LIG1       -0.0674
     28 C           1.3062    6.5258   -2.1675 C.1     1  LIG1       -0.1138
     29 H           2.2430    6.4725   -2.6727 H       1  LIG1        0.1232
     30 S          -1.3391    9.2066   -1.9853 S.3     1  LIG1       -0.1403
     31 H          -2.4386    9.9513   -1.7626 H       1  LIG1        0.1072
     32 C          -4.1883    8.5778   -0.2240 C.ar    1  LIG1        0.0434
     33 C          -4.2157    9.8558    0.3239 C.ar    1  LIG1        0.0531
     34 C          -5.5322   10.4505    0.2753 C.ar    1  LIG1        0.0278
     35 C          -6.4656    9.6206   -0.2792 C.ar    1  LIG1       -0.0093
     36 S          -5.7772    8.1100   -0.7799 S.2     1  LIG1       -0.0937
     37 H          -7.5203    9.8062   -0.4251 H       1  LIG1        0.0705
     38 C          -3.0965   10.5008    0.9134 C.1     1  LIG1       -0.0674
     39 C          -2.1607   11.0773    1.4200 C.1     1  LIG1       -0.1138
     40 H          -1.3307   11.5746    1.8665 H       1  LIG1        0.1232
     41 S          -5.7956   12.0873    0.9192 S.3     1  LIG1       -0.1409
     42 H          -7.1118   12.1340    0.6340 H       1  LIG1        0.1072
@<TRIPOS>BOND
     1    29    28    1
     2    28    27    3
     3    30    31    1
     4    30    24    1
     5    27    23    1
     6     9     8    1
     7    10    11    1
     8    10     3    1
     9     8     7    3
    10    24    23   ar
    11    24    25   ar
    12    23    22   ar
    13    36    35   ar
    14    36    32   ar
    15     7     2    1
    16    37    35    1
    17    16    15   ar
    18    16    12   ar
    19    25    32    1
    20    25    26   ar
    21     3     2   ar
    22     3     4   ar
    23    35    34   ar
    24    32    33   ar
    25    22    15    1
    26    22    26   ar
    27     2     1   ar
    28    15    14   ar
    29     4    12    1
    30     4     5   ar
    31    34    33   ar
    32    34    41    1
    33    12    13   ar
    34    33    38    1
    35     1     6    1
    36     1     5   ar
    37    42    41    1
    38    14    13   ar
    39    14    20    1
    40    13    17    1
    41    38    39    3
    42    21    20    1
    43    39    40    1
    44    17    18    3
    45    18    19    1
