@<TRIPOS>MOLECULE
mol_data/opt/b3lyp/geoms/mol2/5eh.out
 13 13 0 0 0
SMALL
GASTEIGER

@<TRIPOS>ATOM
      1 C          -2.1511   -1.7036    0.0446 C.ar    1  LIG1       -0.0071
      2 C          -0.7750   -1.6888    0.0007 C.ar    1  LIG1        0.0523
      3 C          -0.2384   -0.3405   -0.0459 C.ar    1  LIG1        0.0472
      4 C          -1.2321    0.6045   -0.0464 C.ar    1  LIG1       -0.0024
      5 S          -2.8160   -0.1157    0.0254 S.2     1  LIG1       -0.1020
      6 H          -2.7908   -2.5732    0.0784 H       1  LIG1        0.0706
      7 H          -1.1262    1.6795   -0.0628 H       1  LIG1        0.0712
      8 C           0.0553   -2.8423   -0.0141 C.1     1  LIG1       -0.0673
      9 C           0.8060   -3.7928   -0.0421 C.1     1  LIG1       -0.1138
     10 H           1.4446   -4.6455   -0.0513 H       1  LIG1        0.1232
     11 N           1.1334   -0.1035   -0.0272 N.pl3   1  LIG1       -0.3566
     12 H           1.6839   -0.8848   -0.3613 H       1  LIG1        0.1424
     13 H           1.4214    0.7706   -0.4444 H       1  LIG1        0.1424
@<TRIPOS>BOND
     1    13    11    1
     2    12    11    1
     3     7     4    1
     4    10     9    1
     5     4     3   ar
     6     4     5   ar
     7     3    11    1
     8     3     2   ar
     9     9     8    3
    10     8     2    1
    11     2     1   ar
    12     5     1   ar
    13     1     6    1
