@<TRIPOS>MOLECULE
mol_data/opt/b3lyp/geoms/mol2/5eh5eh5eh-.out
 35 37 0 0 0
SMALL
GASTEIGER

@<TRIPOS>ATOM
      1 C          -1.8448   -1.7192   -1.4206 C.ar    1  LIG1       -0.0065
      2 C          -0.8584   -1.9189   -0.4838 C.ar    1  LIG1        0.0529
      3 C          -0.2921   -0.6774    0.0099 C.ar    1  LIG1        0.0556
      4 C          -0.8651    0.4370   -0.5943 C.ar    1  LIG1        0.0490
      5 S          -2.1039   -0.0546   -1.7558 S.2     1  LIG1       -0.0930
      6 H          -2.4074   -2.4817   -1.9397 H       1  LIG1        0.0706
      7 C          -0.4185   -3.1887   -0.0215 C.1     1  LIG1       -0.0673
      8 C          -0.0041   -4.2461    0.4005 C.1     1  LIG1       -0.1138
      9 H           0.3361   -5.1897    0.7597 H       1  LIG1        0.1232
     10 N           0.6257   -0.6814    1.0370 N.pl3   1  LIG1       -0.3561
     11 H           1.0260   -1.5907    1.2280 H       1  LIG1        0.1424
     12 H           1.3028    0.0697    1.0469 H       1  LIG1        0.1424
     13 C          -0.6520    1.8424   -0.3291 C.ar    1  LIG1        0.0455
     14 C           0.5347    2.5328   -0.0965 C.ar    1  LIG1        0.0612
     15 C           0.3508    3.9473    0.1553 C.ar    1  LIG1        0.0563
     16 C          -0.9791    4.3349    0.0642 C.ar    1  LIG1        0.0496
     17 S          -2.0073    2.9404   -0.2765 S.2     1  LIG1       -0.0840
     18 C           1.8332    1.9674   -0.1627 C.1     1  LIG1       -0.0666
     19 C           2.9640    1.5266   -0.1965 C.1     1  LIG1       -0.1138
     20 H           3.9502    1.1320   -0.2812 H       1  LIG1        0.1232
     21 N           1.4161    4.7441    0.5202 N.pl3   1  LIG1       -0.3561
     22 H           2.3203    4.3226    0.3522 H       1  LIG1        0.1424
     23 H           1.3706    5.7135    0.2346 H       1  LIG1        0.1424
     24 C          -1.5844    5.6275    0.2969 C.ar    1  LIG1        0.0449
     25 C          -1.1523    6.8972   -0.0838 C.ar    1  LIG1        0.0606
     26 C          -2.0334    7.9605    0.3568 C.ar    1  LIG1        0.0479
     27 C          -3.1261    7.4812    1.0285 C.ar    1  LIG1       -0.0018
     28 S          -3.0830    5.7502    1.1918 S.2     1  LIG1       -0.0930
     29 H          -3.9459    8.0452    1.4494 H       1  LIG1        0.0712
     30 C          -0.0248    7.1679   -0.8991 C.1     1  LIG1       -0.0667
     31 C           0.9344    7.4504   -1.5878 C.1     1  LIG1       -0.1138
     32 H           1.7545    7.6749   -2.2299 H       1  LIG1        0.1232
     33 N          -1.7276    9.2995    0.1251 N.pl3   1  LIG1       -0.3566
     34 H          -1.1177    9.4451   -0.6699 H       1  LIG1        0.1424
     35 H          -2.5272    9.9175    0.1052 H       1  LIG1        0.1424
@<TRIPOS>BOND
     1    32    31    1
     2     6     1    1
     3     5     1   ar
     4     5     4   ar
     5    31    30    3
     6     1     2   ar
     7    30    25    1
     8    34    33    1
     9     4    13    1
    10     4     3   ar
    11     2     7    1
    12     2     3   ar
    13    13    17   ar
    14    13    14   ar
    15    20    19    1
    16    17    16   ar
    17    19    18    3
    18    18    14    1
    19    14    15   ar
    20    25    24   ar
    21    25    26   ar
    22     7     8    3
    23     3    10    1
    24    16    15   ar
    25    16    24    1
    26    35    33    1
    27    33    26    1
    28    15    21    1
    29    23    21    1
    30    24    28   ar
    31    22    21    1
    32    26    27   ar
    33     8     9    1
    34    27    28   ar
    35    27    29    1
    36    10    12    1
    37    10    11    1
