@<TRIPOS>MOLECULE
mol_data/opt/b3lyp/geoms/mol2/5eh5eh-.out
 24 25 0 0 0
SMALL
GASTEIGER

@<TRIPOS>ATOM
      1 C          -1.9803   -1.7854    0.8140 C.ar    1  LIG1       -0.0065
      2 C          -0.7681   -1.8790    0.1714 C.ar    1  LIG1        0.0529
      3 C          -0.2182   -0.5822   -0.1740 C.ar    1  LIG1        0.0556
      4 C          -1.0411    0.4634    0.2219 C.ar    1  LIG1        0.0489
      5 S          -2.4814   -0.1567    1.0361 S.2     1  LIG1       -0.0930
      6 H          -2.5859   -2.6049    1.1731 H       1  LIG1        0.0706
      7 C          -0.1120   -3.0956   -0.1591 C.1     1  LIG1       -0.0673
      8 C           0.4756   -4.1070   -0.4740 C.1     1  LIG1       -0.1138
      9 H           0.9809   -5.0103   -0.7266 H       1  LIG1        0.1232
     10 N           0.9941   -0.4840   -0.8176 N.pl3   1  LIG1       -0.3561
     11 H           1.2560   -1.2814   -1.3799 H       1  LIG1        0.1424
     12 H           1.2430    0.4154   -1.1995 H       1  LIG1        0.1424
     13 C          -0.8985    1.8857   -0.0133 C.ar    1  LIG1        0.0449
     14 C           0.2257    2.6998    0.1049 C.ar    1  LIG1        0.0606
     15 C          -0.0289    4.0822   -0.2535 C.ar    1  LIG1        0.0479
     16 C          -1.3298    4.2901   -0.6277 C.ar    1  LIG1       -0.0018
     17 S          -2.2653    2.8250   -0.5742 S.2     1  LIG1       -0.0930
     18 H          -1.8000    5.2248   -0.8977 H       1  LIG1        0.0712
     19 C           1.4958    2.2886    0.5856 C.1     1  LIG1       -0.0667
     20 C           2.6078    1.9911    0.9662 C.1     1  LIG1       -0.1138
     21 H           3.5598    1.6974    1.3434 H       1  LIG1        0.1232
     22 N           0.9581    5.0552   -0.1251 N.pl3   1  LIG1       -0.3566
     23 H           1.9000    4.6850   -0.1319 H       1  LIG1        0.1424
     24 H           0.8539    5.8548   -0.7338 H       1  LIG1        0.1424
@<TRIPOS>BOND
     1    11    10    1
     2    12    10    1
     3    18    16    1
     4    10     3    1
     5    24    22    1
     6     9     8    1
     7    16    17   ar
     8    16    15   ar
     9    17    13   ar
    10     8     7    3
    11    15    22    1
    12    15    14   ar
    13     3     2   ar
    14     3     4   ar
    15     7     2    1
    16    23    22    1
    17    13    14   ar
    18    13     4    1
    19    14    19    1
    20     2     1   ar
    21     4     5   ar
    22    19    20    3
    23     1     5   ar
    24     1     6    1
    25    20    21    1
