@<TRIPOS>MOLECULE
mol_data/opt/b3lyp/geoms/mol2/5eh5eh-5eh.out
 35 37 0 0 0
SMALL
GASTEIGER

@<TRIPOS>ATOM
      1 C          -1.8689   -1.7193   -1.3977 C.ar    1  LIG1       -0.0065
      2 C          -0.8677   -1.9191   -0.4769 C.ar    1  LIG1        0.0529
      3 C          -0.2930   -0.6777    0.0073 C.ar    1  LIG1        0.0556
      4 C          -0.8751    0.4367   -0.5879 C.ar    1  LIG1        0.0490
      5 S          -2.1326   -0.0547   -1.7292 S.2     1  LIG1       -0.0930
      6 H          -2.4400   -2.4817   -1.9076 H       1  LIG1        0.0706
      7 C          -0.4208   -3.1890   -0.0213 C.1     1  LIG1       -0.0673
      8 C          -0.0003   -4.2465    0.3944 C.1     1  LIG1       -0.1138
      9 H           0.3453   -5.1901    0.7484 H       1  LIG1        0.1232
     10 N           0.6412   -0.6818    1.0197 N.pl3   1  LIG1       -0.3561
     11 H           1.0438   -1.5913    1.2047 H       1  LIG1        0.1424
     12 H           1.3188    0.0688    1.0183 H       1  LIG1        0.1424
     13 C          -0.6570    1.8421   -0.3266 C.ar    1  LIG1        0.0455
     14 C           0.5338    2.5319   -0.1137 C.ar    1  LIG1        0.0612
     15 C           0.3547    3.9466    0.1404 C.ar    1  LIG1        0.0563
     16 C          -0.9763    4.3349    0.0710 C.ar    1  LIG1        0.0496
     17 S          -2.0106    2.9409   -0.2523 S.2     1  LIG1       -0.0840
     18 C           1.8307    1.9659   -0.2009 C.1     1  LIG1       -0.0666
     19 C           2.9605    1.5243   -0.2529 C.1     1  LIG1       -0.1138
     20 H           3.9449    1.1289   -0.3534 H       1  LIG1        0.1232
     21 N           1.4262    4.7431    0.4876 N.pl3   1  LIG1       -0.3561
     22 H           2.3274    4.3210    0.3053 H       1  LIG1        0.1424
     23 H           1.3767    5.7124    0.2025 H       1  LIG1        0.1424
     24 C          -1.5771    5.6279    0.3131 C.ar    1  LIG1        0.0449
     25 C          -1.1506    6.8973   -0.0747 C.ar    1  LIG1        0.0606
     26 C          -2.0239    7.9611    0.3798 C.ar    1  LIG1        0.0479
     27 C          -3.1058    7.4825    1.0692 C.ar    1  LIG1       -0.0018
     28 S          -3.0609    5.7515    1.2322 S.2     1  LIG1       -0.0930
     29 H          -3.9183    8.0470    1.5034 H       1  LIG1        0.0712
     30 C          -0.0364    7.1674   -0.9084 C.1     1  LIG1       -0.0667
     31 C           0.9116    7.4493   -1.6126 C.1     1  LIG1       -0.1138
     32 H           1.7213    7.6734   -2.2680 H       1  LIG1        0.1232
     33 N          -1.7212    9.3000    0.1430 N.pl3   1  LIG1       -0.3566
     34 H          -1.1245    9.4451   -0.6620 H       1  LIG1        0.1424
     35 H          -2.5208    9.9182    0.1359 H       1  LIG1        0.1424
@<TRIPOS>BOND
     1    32    31    1
     2     6     1    1
     3     5     1   ar
     4     5     4   ar
     5    31    30    3
     6     1     2   ar
     7    30    25    1
     8    34    33    1
     9     4    13    1
    10     4     3   ar
    11     2     7    1
    12     2     3   ar
    13    20    19    1
    14    13    17   ar
    15    13    14   ar
    16    19    18    3
    17    17    16   ar
    18    18    14    1
    19    14    15   ar
    20    25    24   ar
    21    25    26   ar
    22     7     8    3
    23     3    10    1
    24    16    15   ar
    25    16    24    1
    26    35    33    1
    27    15    21    1
    28    33    26    1
    29    23    21    1
    30    22    21    1
    31    24    28   ar
    32    26    27   ar
    33     8     9    1
    34    12    10    1
    35    10    11    1
    36    27    28   ar
    37    27    29    1
