@<TRIPOS>MOLECULE
mol_data/opt/b3lyp/geoms/mol2/5eh5eh5eh-5eh-.out
 46 49 0 0 0
SMALL
GASTEIGER

@<TRIPOS>ATOM
      1 C          -1.6188   -1.5193   -2.0709 C.ar    1  LIG1       -0.0065
      2 C          -0.9551   -1.8252   -0.9064 C.ar    1  LIG1        0.0529
      3 C          -0.4494   -0.6496   -0.2220 C.ar    1  LIG1        0.0556
      4 C          -0.7355    0.5232   -0.9141 C.ar    1  LIG1        0.0490
      5 S          -1.6354    0.1675   -2.3938 S.2     1  LIG1       -0.0930
      6 H          -2.0737   -2.2179   -2.7583 H       1  LIG1        0.0706
      7 C          -0.7695   -3.1379   -0.3946 C.1     1  LIG1       -0.0673
      8 C          -0.5799   -4.2360    0.0806 C.1     1  LIG1       -0.1138
      9 H          -0.4340   -5.2131    0.4798 H       1  LIG1        0.1232
     10 N           0.1377   -0.7563    1.0186 N.pl3   1  LIG1       -0.3561
     11 H           0.3868   -1.7018    1.2779 H       1  LIG1        0.1424
     12 H           0.8430   -0.0705    1.2526 H       1  LIG1        0.1424
     13 C          -0.4925    1.8981   -0.5395 C.ar    1  LIG1        0.0455
     14 C           0.6313    2.4742    0.0474 C.ar    1  LIG1        0.0612
     15 C           0.5013    3.8955    0.2936 C.ar    1  LIG1        0.0563
     16 C          -0.7111    4.4046   -0.1563 C.ar    1  LIG1        0.0496
     17 S          -1.7123    3.1125   -0.8271 S.2     1  LIG1       -0.0840
     18 C           1.8440    1.7955    0.3279 C.1     1  LIG1       -0.0666
     19 C           2.8977    1.2559    0.5974 C.1     1  LIG1       -0.1138
     20 H           3.8318    0.7760    0.7788 H       1  LIG1        0.1232
     21 N           1.4782    4.5821    0.9807 N.pl3   1  LIG1       -0.3561
     22 H           2.3526    4.0808    1.0673 H       1  LIG1        0.1424
     23 H           1.5965    5.5590    0.7468 H       1  LIG1        0.1424
     24 C          -1.2528    5.7388   -0.0462 C.ar    1  LIG1        0.0455
     25 C          -0.6282    6.9733   -0.2151 C.ar    1  LIG1        0.0612
     26 C          -1.5030    8.1075   -0.0020 C.ar    1  LIG1        0.0563
     27 C          -2.8083    7.7275    0.2797 C.ar    1  LIG1        0.0496
     28 S          -2.9405    5.9681    0.3392 S.2     1  LIG1       -0.0840
     29 C           0.7120    7.1600   -0.6374 C.1     1  LIG1       -0.0666
     30 C           1.8558    7.3723   -0.9855 C.1     1  LIG1       -0.1138
     31 H           2.8457    7.5370   -1.3440 H       1  LIG1        0.1232
     32 N          -1.0065    9.3947   -0.0131 N.pl3   1  LIG1       -0.3561
     33 H          -0.0813    9.4737   -0.4147 H       1  LIG1        0.1424
     34 H          -1.6396   10.1172   -0.3301 H       1  LIG1        0.1424
     35 C          -3.9592    8.5413    0.6018 C.ar    1  LIG1        0.0449
     36 C          -4.3915    9.7396    0.0349 C.ar    1  LIG1        0.0606
     37 C          -5.5945   10.2652    0.6493 C.ar    1  LIG1        0.0479
     38 C          -6.0690    9.4471    1.6393 C.ar    1  LIG1       -0.0018
     39 S          -5.0454    8.0630    1.8875 S.2     1  LIG1       -0.0930
     40 H          -6.9516    9.5844    2.2472 H       1  LIG1        0.0712
     41 C          -3.8060   10.3704   -1.0913 C.1     1  LIG1       -0.0667
     42 C          -3.3349   10.9512   -2.0478 C.1     1  LIG1       -0.1138
     43 H          -2.9343   11.4215   -2.9159 H       1  LIG1        0.1232
     44 N          -6.1352   11.4880    0.2580 N.pl3   1  LIG1       -0.3566
     45 H          -5.8924   11.7549   -0.6882 H       1  LIG1        0.1424
     46 H          -7.1258   11.5861    0.4341 H       1  LIG1        0.1424
@<TRIPOS>BOND
     1    43    42    1
     2     6     1    1
     3     5     1   ar
     4     5     4   ar
     5     1     2   ar
     6    42    41    3
     7    31    30    1
     8    41    36    1
     9    30    29    3
    10     4    13    1
    11     4     3   ar
    12     2     7    1
    13     2     3   ar
    14    17    13   ar
    15    17    16   ar
    16    45    44    1
    17    29    25    1
    18    13    14   ar
    19    33    32    1
    20     7     8    3
    21    34    32    1
    22     3    10    1
    23    25    24   ar
    24    25    26   ar
    25    16    24    1
    26    16    15   ar
    27    24    28   ar
    28    32    26    1
    29    26    27   ar
    30    36    35   ar
    31    36    37   ar
    32    14    15   ar
    33    14    18    1
    34     8     9    1
    35    44    46    1
    36    44    37    1
    37    27    28   ar
    38    27    35    1
    39    15    21    1
    40    18    19    3
    41    19    20    1
    42    35    39   ar
    43    37    38   ar
    44    23    21    1
    45    21    22    1
    46    10    12    1
    47    10    11    1
    48    38    39   ar
    49    38    40    1
