@<TRIPOS>MOLECULE
mol_data/opt/b3lyp/geoms/mol2/5eh5eh5eh5eh-.out
 46 49 0 0 0
SMALL
GASTEIGER

@<TRIPOS>ATOM
      1 C          -1.6368   -1.5216   -2.0580 C.ar    1  LIG1       -0.0065
      2 C          -0.9634   -1.8264   -0.8988 C.ar    1  LIG1        0.0529
      3 C          -0.4518   -0.6502   -0.2198 C.ar    1  LIG1        0.0556
      4 C          -0.7436    0.5219   -0.9105 C.ar    1  LIG1        0.0490
      5 S          -1.6558    0.1649   -2.3824 S.2     1  LIG1       -0.0930
      6 H          -2.0975   -2.2208   -2.7408 H       1  LIG1        0.0706
      7 C          -0.7737   -3.1386   -0.3872 C.1     1  LIG1       -0.0673
      8 C          -0.5802   -4.2364    0.0874 C.1     1  LIG1       -0.1138
      9 H          -0.4312   -5.2130    0.4864 H       1  LIG1        0.1232
     10 N           0.1456   -0.7559    1.0160 N.pl3   1  LIG1       -0.3561
     11 H           0.3973   -1.7011    1.2737 H       1  LIG1        0.1424
     12 H           0.8526   -0.0696    1.2436 H       1  LIG1        0.1424
     13 C          -0.4971    1.8973   -0.5397 C.ar    1  LIG1        0.0455
     14 C           0.6314    2.4738    0.0376 C.ar    1  LIG1        0.0612
     15 C           0.5037    3.8954    0.2831 C.ar    1  LIG1        0.0563
     16 C          -0.7122    4.4042   -0.1578 C.ar    1  LIG1        0.0496
     17 S          -1.7189    3.1116   -0.8191 S.2     1  LIG1       -0.0840
     18 C           1.8462    1.7952    0.3094 C.1     1  LIG1       -0.0666
     19 C           2.9019    1.2559    0.5714 C.1     1  LIG1       -0.1138
     20 H           3.8372    0.7761    0.7463 H       1  LIG1        0.1232
     21 N           1.4861    4.5828    0.9616 N.pl3   1  LIG1       -0.3561
     22 H           2.3611    4.0814    1.0416 H       1  LIG1        0.1424
     23 H           1.6029    5.5592    0.7249 H       1  LIG1        0.1424
     24 C          -1.2525    5.7387   -0.0452 C.ar    1  LIG1        0.0455
     25 C          -0.6289    6.9727   -0.2216 C.ar    1  LIG1        0.0612
     26 C          -1.5013    8.1076   -0.0026 C.ar    1  LIG1        0.0563
     27 C          -2.8042    7.7287    0.2910 C.ar    1  LIG1        0.0496
     28 S          -2.9366    5.9693    0.3546 S.2     1  LIG1       -0.0840
     29 C           0.7078    7.1579   -0.6554 C.1     1  LIG1       -0.0666
     30 C           1.8488    7.3687   -1.0135 C.1     1  LIG1       -0.1138
     31 H           2.8357    7.5321   -1.3806 H       1  LIG1        0.1232
     32 N          -1.0044    9.3945   -0.0202 N.pl3   1  LIG1       -0.3561
     33 H          -0.0826    9.4725   -0.4298 H       1  LIG1        0.1424
     34 H          -1.6399   10.1169   -0.3329 H       1  LIG1        0.1424
     35 C          -3.9522    8.5433    0.6216 C.ar    1  LIG1        0.0449
     36 C          -4.3891    9.7409    0.0567 C.ar    1  LIG1        0.0606
     37 C          -5.5868   10.2675    0.6805 C.ar    1  LIG1        0.0479
     38 C          -6.0530    9.4509    1.6757 C.ar    1  LIG1       -0.0018
     39 S          -5.0276    8.0671    1.9172 S.2     1  LIG1       -0.0930
     40 H          -6.9305    9.5892    2.2908 H       1  LIG1        0.0712
     41 C          -3.8130   10.3701   -1.0752 C.1     1  LIG1       -0.0667
     42 C          -3.3501   10.9496   -2.0365 C.1     1  LIG1       -0.1138
     43 H          -2.9569   11.4189   -2.9085 H       1  LIG1        0.1232
     44 N          -6.1307   11.4898    0.2919 N.pl3   1  LIG1       -0.3566
     45 H          -5.8956   11.7554   -0.6565 H       1  LIG1        0.1424
     46 H          -7.1197   11.5883    0.4763 H       1  LIG1        0.1424
@<TRIPOS>BOND
     1    43    42    1
     2     6     1    1
     3     5     1   ar
     4     5     4   ar
     5     1     2   ar
     6    42    41    3
     7    31    30    1
     8    41    36    1
     9    30    29    3
    10     4    13    1
    11     4     3   ar
    12     2     7    1
    13     2     3   ar
    14    17    13   ar
    15    17    16   ar
    16    45    44    1
    17    29    25    1
    18    13    14   ar
    19    33    32    1
    20     7     8    3
    21    34    32    1
    22    25    24   ar
    23    25    26   ar
    24     3    10    1
    25    16    24    1
    26    16    15   ar
    27    24    28   ar
    28    32    26    1
    29    26    27   ar
    30    14    15   ar
    31    14    18    1
    32    36    35   ar
    33    36    37   ar
    34     8     9    1
    35    15    21    1
    36    27    28   ar
    37    27    35    1
    38    44    46    1
    39    44    37    1
    40    18    19    3
    41    19    20    1
    42    35    39   ar
    43    37    38   ar
    44    23    21    1
    45    21    22    1
    46    10    12    1
    47    10    11    1
    48    38    39   ar
    49    38    40    1
