@<TRIPOS>MOLECULE
mol_data/opt/b3lyp/geoms/mol2/5eh5eh-5eh5eh-.out
 46 49 0 0 0
SMALL
GASTEIGER

@<TRIPOS>ATOM
      1 C          -1.6477   -1.5145   -2.0617 C.ar    1  LIG1       -0.0065
      2 C          -0.9666   -1.8230   -0.9080 C.ar    1  LIG1        0.0529
      3 C          -0.4508   -0.6490   -0.2284 C.ar    1  LIG1        0.0556
      4 C          -0.7474    0.5254   -0.9133 C.ar    1  LIG1        0.0490
      5 S          -1.6694    0.1732   -2.3802 S.2     1  LIG1       -0.0930
      6 H          -2.1127   -2.2115   -2.7438 H       1  LIG1        0.0706
      7 C          -0.7732   -3.1369   -0.4021 C.1     1  LIG1       -0.0673
      8 C          -0.5763   -4.2361    0.0676 C.1     1  LIG1       -0.1138
      9 H          -0.4243   -5.2141    0.4622 H       1  LIG1        0.1232
     10 N           0.1548   -0.7585    1.0030 N.pl3   1  LIG1       -0.3561
     11 H           0.4080   -1.7046    1.2562 H       1  LIG1        0.1424
     12 H           0.8634   -0.0731    1.2280 H       1  LIG1        0.1424
     13 C          -0.4990    1.8995   -0.5392 C.ar    1  LIG1        0.0455
     14 C           0.6334    2.4743    0.0321 C.ar    1  LIG1        0.0612
     15 C           0.5069    3.8950    0.2839 C.ar    1  LIG1        0.0563
     16 C          -0.7123    4.4049   -0.1464 C.ar    1  LIG1        0.0496
     17 S          -1.7232    3.1143   -0.8052 S.2     1  LIG1       -0.0840
     18 C           1.8504    1.7952    0.2925 C.1     1  LIG1       -0.0666
     19 C           2.9081    1.2550    0.5445 C.1     1  LIG1       -0.1138
     20 H           3.8449    0.7749    0.7104 H       1  LIG1        0.1232
     21 N           1.4940    4.5801    0.9579 N.pl3   1  LIG1       -0.3561
     22 H           2.3697    4.0788    1.0296 H       1  LIG1        0.1424
     23 H           1.6086    5.5576    0.7243 H       1  LIG1        0.1424
     24 C          -1.2525    5.7387   -0.0250 C.ar    1  LIG1        0.0455
     25 C          -0.6307    6.9738   -0.2005 C.ar    1  LIG1        0.0612
     26 C          -1.5024    8.1072    0.0287 C.ar    1  LIG1        0.0563
     27 C          -2.8032    7.7264    0.3293 C.ar    1  LIG1        0.0496
     28 S          -2.9342    5.9667    0.3866 S.2     1  LIG1       -0.0840
     29 C           0.7029    7.1618   -0.6424 C.1     1  LIG1       -0.0666
     30 C           1.8412    7.3750   -1.0074 C.1     1  LIG1       -0.1138
     31 H           2.8255    7.5408   -1.3805 H       1  LIG1        0.1232
     32 N          -1.0064    9.3946    0.0130 N.pl3   1  LIG1       -0.3561
     33 H          -0.0873    9.4748   -0.4021 H       1  LIG1        0.1424
     34 H          -1.6444   10.1176   -0.2929 H       1  LIG1        0.1424
     35 C          -3.9493    8.5391    0.6706 C.ar    1  LIG1        0.0449
     36 C          -4.3906    9.7385    0.1132 C.ar    1  LIG1        0.0606
     37 C          -5.5843   10.2622    0.7469 C.ar    1  LIG1        0.0479
     38 C          -6.0435    9.4416    1.7421 C.ar    1  LIG1       -0.0018
     39 S          -5.0158    8.0574    1.9716 S.2     1  LIG1       -0.0930
     40 H          -6.9170    9.5771    2.3635 H       1  LIG1        0.0712
     41 C          -3.8223   10.3723   -1.0202 C.1     1  LIG1       -0.0667
     42 C          -3.3660   10.9557   -1.9823 C.1     1  LIG1       -0.1138
     43 H          -2.9788   11.4284   -2.8552 H       1  LIG1        0.1232
     44 N          -6.1314   11.4857    0.3666 N.pl3   1  LIG1       -0.3566
     45 H          -5.9030   11.7549   -0.5825 H       1  LIG1        0.1424
     46 H          -7.1192   11.5829    0.5579 H       1  LIG1        0.1424
@<TRIPOS>BOND
     1    43    42    1
     2     6     1    1
     3     5     1   ar
     4     5     4   ar
     5     1     2   ar
     6    42    41    3
     7    31    30    1
     8    41    36    1
     9    30    29    3
    10     4    13    1
    11     4     3   ar
    12     2     7    1
    13     2     3   ar
    14    17    13   ar
    15    17    16   ar
    16    29    25    1
    17    45    44    1
    18    13    14   ar
    19    33    32    1
    20     7     8    3
    21    34    32    1
    22     3    10    1
    23    25    24   ar
    24    25    26   ar
    25    16    24    1
    26    16    15   ar
    27    24    28   ar
    28    32    26    1
    29    26    27   ar
    30    14    15   ar
    31    14    18    1
    32     8     9    1
    33    36    35   ar
    34    36    37   ar
    35    15    21    1
    36    18    19    3
    37    27    28   ar
    38    27    35    1
    39    44    46    1
    40    44    37    1
    41    19    20    1
    42    35    39   ar
    43    23    21    1
    44    37    38   ar
    45    21    22    1
    46    10    12    1
    47    10    11    1
    48    38    39   ar
    49    38    40    1
