@<TRIPOS>MOLECULE
mol_data/opt/b3lyp/geoms/mol2/5eh5eh-5eh-5eh.out
 46 49 0 0 0
SMALL
GASTEIGER

@<TRIPOS>ATOM
      1 C          -1.6361   -1.5086   -2.0790 C.ar    1  LIG1       -0.0065
      2 C          -0.9639   -1.8206   -0.9210 C.ar    1  LIG1        0.0529
      3 C          -0.4526   -0.6488   -0.2343 C.ar    1  LIG1        0.0556
      4 C          -0.7434    0.5277   -0.9182 C.ar    1  LIG1        0.0490
      5 S          -1.6544    0.1799   -2.3931 S.2     1  LIG1       -0.0930
      6 H          -2.0963   -2.2035   -2.7665 H       1  LIG1        0.0706
      7 C          -0.7750   -3.1360   -0.4173 C.1     1  LIG1       -0.0673
      8 C          -0.5823   -4.2367    0.0509 C.1     1  LIG1       -0.1138
      9 H          -0.4338   -5.2158    0.4439 H       1  LIG1        0.1232
     10 N           0.1436   -0.7620    1.0013 N.pl3   1  LIG1       -0.3561
     11 H           0.3943   -1.7089    1.2539 H       1  LIG1        0.1424
     12 H           0.8508   -0.0776    1.2337 H       1  LIG1        0.1424
     13 C          -0.4972    1.9006   -0.5384 C.ar    1  LIG1        0.0455
     14 C           0.6312    2.4731    0.0431 C.ar    1  LIG1        0.0612
     15 C           0.5035    3.8931    0.2979 C.ar    1  LIG1        0.0563
     16 C          -0.7121    4.4050   -0.1403 C.ar    1  LIG1        0.0496
     17 S          -1.7187    3.1168   -0.8105 S.2     1  LIG1       -0.0840
     18 C           1.8457    1.7926    0.3109 C.1     1  LIG1       -0.0666
     19 C           2.9012    1.2513    0.5697 C.1     1  LIG1       -0.1138
     20 H           3.8364    0.7701    0.7416 H       1  LIG1        0.1232
     21 N           1.4858    4.5759    0.9813 N.pl3   1  LIG1       -0.3561
     22 H           2.3606    4.0739    1.0584 H       1  LIG1        0.1424
     23 H           1.6027    5.5539    0.7513 H       1  LIG1        0.1424
     24 C          -1.2524    5.7388   -0.0193 C.ar    1  LIG1        0.0455
     25 C          -0.6287    6.9739   -0.1869 C.ar    1  LIG1        0.0612
     26 C          -1.5014    8.1073    0.0388 C.ar    1  LIG1        0.0563
     27 C          -2.8045    7.7264    0.3287 C.ar    1  LIG1        0.0496
     28 S          -2.9370    5.9667    0.3804 S.2     1  LIG1       -0.0840
     29 C           0.7083    7.1622   -0.6183 C.1     1  LIG1       -0.0666
     30 C           1.8496    7.3757   -0.9741 C.1     1  LIG1       -0.1138
     31 H           2.8368    7.5417   -1.3393 H       1  LIG1        0.1232
     32 N          -1.0045    9.3943    0.0302 N.pl3   1  LIG1       -0.3561
     33 H          -0.0824    9.4751   -0.3783 H       1  LIG1        0.1424
     34 H          -1.6398   10.1187   -0.2780 H       1  LIG1        0.1424
     35 C          -3.9528    8.5388    0.6636 C.ar    1  LIG1        0.0449
     36 C          -4.3891    9.7401    0.1063 C.ar    1  LIG1        0.0606
     37 C          -5.5872   10.2628    0.7324 C.ar    1  LIG1        0.0479
     38 C          -6.0544    9.4397    1.7219 C.ar    1  LIG1       -0.0018
     39 S          -5.0292    8.0542    1.9552 S.2     1  LIG1       -0.0930
     40 H          -6.9324    9.5740    2.3371 H       1  LIG1        0.0712
     41 C          -3.8120   10.3767   -1.0211 C.1     1  LIG1       -0.0667
     42 C          -3.3482   10.9625   -1.9781 C.1     1  LIG1       -0.1138
     43 H          -2.9542   11.4373   -2.8468 H       1  LIG1        0.1232
     44 N          -6.1307   11.4877    0.3515 N.pl3   1  LIG1       -0.3566
     45 H          -5.8949   11.7594   -0.5950 H       1  LIG1        0.1424
     46 H          -7.1198   11.5850    0.5356 H       1  LIG1        0.1424
@<TRIPOS>BOND
     1    43    42    1
     2     6     1    1
     3     5     1   ar
     4     5     4   ar
     5     1     2   ar
     6    42    41    3
     7    31    30    1
     8    41    36    1
     9    30    29    3
    10     2     7    1
    11     2     3   ar
    12     4    13    1
    13     4     3   ar
    14    17    13   ar
    15    17    16   ar
    16    29    25    1
    17    45    44    1
    18    13    14   ar
    19     7     8    3
    20    33    32    1
    21    34    32    1
    22     3    10    1
    23    25    24   ar
    24    25    26   ar
    25    16    24    1
    26    16    15   ar
    27    24    28   ar
    28    32    26    1
    29    26    27   ar
    30    14    15   ar
    31    14    18    1
    32     8     9    1
    33    36    35   ar
    34    36    37   ar
    35    15    21    1
    36    18    19    3
    37    27    28   ar
    38    27    35    1
    39    44    46    1
    40    44    37    1
    41    19    20    1
    42    35    39   ar
    43    37    38   ar
    44    23    21    1
    45    21    22    1
    46    10    12    1
    47    10    11    1
    48    38    39   ar
    49    38    40    1
