@<TRIPOS>MOLECULE
mol_data/opt/b3lyp/geoms/mol2/5eh5eh5eh5eh.out
 46 49 0 0 0
SMALL
GASTEIGER

@<TRIPOS>ATOM
      1 C          -1.6402   -1.5174   -2.0651 C.ar    1  LIG1       -0.0065
      2 C          -0.9668   -1.8246   -0.9065 C.ar    1  LIG1        0.0529
      3 C          -0.4543   -0.6500   -0.2256 C.ar    1  LIG1        0.0556
      4 C          -0.7459    0.5236   -0.9141 C.ar    1  LIG1        0.0490
      5 S          -1.6588    0.1697   -2.3863 S.2     1  LIG1       -0.0930
      6 H          -2.1015   -2.2152   -2.7490 H       1  LIG1        0.0706
      7 C          -0.7776   -3.1379   -0.3975 C.1     1  LIG1       -0.0673
      8 C          -0.5844   -4.2367    0.0747 C.1     1  LIG1       -0.1138
      9 H          -0.4353   -5.2142    0.4718 H       1  LIG1        0.1232
     10 N           0.1435   -0.7581    1.0098 N.pl3   1  LIG1       -0.3561
     11 H           0.3950   -1.7039    1.2656 H       1  LIG1        0.1424
     12 H           0.8511   -0.0727    1.2380 H       1  LIG1        0.1424
     13 C          -0.4985    1.8981   -0.5410 C.ar    1  LIG1        0.0455
     14 C           0.6308    2.4731    0.0362 C.ar    1  LIG1        0.0612
     15 C           0.5038    3.8943    0.2846 C.ar    1  LIG1        0.0563
     16 C          -0.7124    4.4043   -0.1542 C.ar    1  LIG1        0.0496
     17 S          -1.7203    3.1133   -0.8167 S.2     1  LIG1       -0.0840
     18 C           1.8455    1.7935    0.3053 C.1     1  LIG1       -0.0666
     19 C           2.9013    1.2530    0.5649 C.1     1  LIG1       -0.1138
     20 H           3.8365    0.7723    0.7379 H       1  LIG1        0.1232
     21 N           1.4872    4.5800    0.9634 N.pl3   1  LIG1       -0.3561
     22 H           2.3620    4.0782    1.0414 H       1  LIG1        0.1424
     23 H           1.6040    5.5569    0.7286 H       1  LIG1        0.1424
     24 C          -1.2521    5.7388   -0.0381 C.ar    1  LIG1        0.0455
     25 C          -0.6282    6.9729   -0.2128 C.ar    1  LIG1        0.0612
     26 C          -1.5000    8.1077    0.0091 C.ar    1  LIG1        0.0563
     27 C          -2.8027    7.7287    0.3034 C.ar    1  LIG1        0.0496
     28 S          -2.9358    5.9693    0.3637 S.2     1  LIG1       -0.0840
     29 C           0.7081    7.1585   -0.6476 C.1     1  LIG1       -0.0666
     30 C           1.8488    7.3694   -1.0067 C.1     1  LIG1       -0.1138
     31 H           2.8354    7.5331   -1.3744 H       1  LIG1        0.1232
     32 N          -1.0027    9.3945   -0.0067 N.pl3   1  LIG1       -0.3561
     33 H          -0.0813    9.4729   -0.4171 H       1  LIG1        0.1424
     34 H          -1.6383   10.1176   -0.3172 H       1  LIG1        0.1424
     35 C          -3.9502    8.5429    0.6365 C.ar    1  LIG1        0.0449
     36 C          -4.3873    9.7417    0.0744 C.ar    1  LIG1        0.0606
     37 C          -5.5840   10.2677    0.7006 C.ar    1  LIG1        0.0479
     38 C          -6.0493    9.4494    1.6949 C.ar    1  LIG1       -0.0018
     39 S          -5.0241    8.0648    1.9327 S.2     1  LIG1       -0.0930
     40 H          -6.9261    9.5869    2.3112 H       1  LIG1        0.0712
     41 C          -3.8122   10.3728   -1.0570 C.1     1  LIG1       -0.0667
     42 C          -3.3499   10.9541   -2.0175 C.1     1  LIG1       -0.1138
     43 H          -2.9575   11.4250   -2.8890 H       1  LIG1        0.1232
     44 N          -6.1279   11.4908    0.3148 N.pl3   1  LIG1       -0.3566
     45 H          -5.8938   11.7581   -0.6333 H       1  LIG1        0.1424
     46 H          -7.1166   11.5895    0.5006 H       1  LIG1        0.1424
@<TRIPOS>BOND
     1    43    42    1
     2     6     1    1
     3     5     1   ar
     4     5     4   ar
     5     1     2   ar
     6    42    41    3
     7    31    30    1
     8    41    36    1
     9    30    29    3
    10     4    13    1
    11     4     3   ar
    12     2     7    1
    13     2     3   ar
    14    17    13   ar
    15    17    16   ar
    16    29    25    1
    17    45    44    1
    18    13    14   ar
    19    33    32    1
    20     7     8    3
    21    34    32    1
    22     3    10    1
    23    25    24   ar
    24    25    26   ar
    25    16    24    1
    26    16    15   ar
    27    24    28   ar
    28    32    26    1
    29    26    27   ar
    30    14    15   ar
    31    14    18    1
    32    36    35   ar
    33    36    37   ar
    34     8     9    1
    35    15    21    1
    36    27    28   ar
    37    27    35    1
    38    18    19    3
    39    44    46    1
    40    44    37    1
    41    19    20    1
    42    35    39   ar
    43    37    38   ar
    44    23    21    1
    45    21    22    1
    46    10    12    1
    47    10    11    1
    48    38    39   ar
    49    38    40    1
