@<TRIPOS>MOLECULE
mol_data/opt/b3lyp/geoms/mol2/5eh5eh-5eh-5eh-.out
 46 49 0 0 0
SMALL
GASTEIGER

@<TRIPOS>ATOM
      1 C          -1.6329   -1.5104   -2.0792 C.ar    1  LIG1       -0.0065
      2 C          -0.9618   -1.8214   -0.9204 C.ar    1  LIG1        0.0529
      3 C          -0.4514   -0.6489   -0.2341 C.ar    1  LIG1        0.0556
      4 C          -0.7419    0.5269   -0.9191 C.ar    1  LIG1        0.0490
      5 S          -1.6513    0.1779   -2.3946 S.2     1  LIG1       -0.0930
      6 H          -2.0923   -2.2059   -2.7667 H       1  LIG1        0.0706
      7 C          -0.7731   -3.1364   -0.4156 C.1     1  LIG1       -0.0673
      8 C          -0.5804   -4.2367    0.0535 C.1     1  LIG1       -0.1138
      9 H          -0.4318   -5.2155    0.4474 H       1  LIG1        0.1232
     10 N           0.1436   -0.7611    1.0023 N.pl3   1  LIG1       -0.3561
     11 H           0.3944   -1.7078    1.2557 H       1  LIG1        0.1424
     12 H           0.8507   -0.0765    1.2345 H       1  LIG1        0.1424
     13 C          -0.4962    1.9002   -0.5402 C.ar    1  LIG1        0.0455
     14 C           0.6316    2.4734    0.0417 C.ar    1  LIG1        0.0612
     15 C           0.5035    3.8936    0.2951 C.ar    1  LIG1        0.0563
     16 C          -0.7119    4.4049   -0.1445 C.ar    1  LIG1        0.0496
     17 S          -1.7177    3.1160   -0.8143 S.2     1  LIG1       -0.0840
     18 C           1.8460    1.7932    0.3110 C.1     1  LIG1       -0.0666
     19 C           2.9013    1.2521    0.5711 C.1     1  LIG1       -0.1138
     20 H           3.8362    0.7709    0.7442 H       1  LIG1        0.1232
     21 N           1.4851    4.5772    0.9786 N.pl3   1  LIG1       -0.3561
     22 H           2.3600    4.0754    1.0568 H       1  LIG1        0.1424
     23 H           1.6020    5.5550    0.7479 H       1  LIG1        0.1424
     24 C          -1.2526    5.7387   -0.0252 C.ar    1  LIG1        0.0455
     25 C          -0.6288    6.9738   -0.1933 C.ar    1  LIG1        0.0612
     26 C          -1.5020    8.1072    0.0305 C.ar    1  LIG1        0.0563
     27 C          -2.8054    7.7263    0.3195 C.ar    1  LIG1        0.0496
     28 S          -2.9375    5.9666    0.3728 S.2     1  LIG1       -0.0840
     29 C           0.7084    7.1620   -0.6238 C.1     1  LIG1       -0.0666
     30 C           1.8500    7.3754   -0.9788 C.1     1  LIG1       -0.1138
     31 H           2.8375    7.5413   -1.3432 H       1  LIG1        0.1232
     32 N          -1.0054    9.3943    0.0213 N.pl3   1  LIG1       -0.3561
     33 H          -0.0829    9.4750   -0.3862 H       1  LIG1        0.1424
     34 H          -1.6405   10.1183   -0.2881 H       1  LIG1        0.1424
     35 C          -3.9539    8.5389    0.6530 C.ar    1  LIG1        0.0449
     36 C          -4.3902    9.7395    0.0942 C.ar    1  LIG1        0.0606
     37 C          -5.5888   10.2625    0.7190 C.ar    1  LIG1        0.0479
     38 C          -6.0564    9.4403    1.7090 C.ar    1  LIG1       -0.0018
     39 S          -5.0312    8.0553    1.9444 S.2     1  LIG1       -0.0930
     40 H          -6.9349    9.5751    2.3234 H       1  LIG1        0.0712
     41 C          -3.8125   10.3749   -1.0335 C.1     1  LIG1       -0.0667
     42 C          -3.3481   10.9598   -1.9909 C.1     1  LIG1       -0.1138
     43 H          -2.9536   11.4340   -2.8596 H       1  LIG1        0.1232
     44 N          -6.1323   11.4869    0.3365 N.pl3   1  LIG1       -0.3566
     45 H          -5.8960   11.7578   -0.6101 H       1  LIG1        0.1424
     46 H          -7.1215   11.5844    0.5201 H       1  LIG1        0.1424
@<TRIPOS>BOND
     1    43    42    1
     2     6     1    1
     3     5     1   ar
     4     5     4   ar
     5     1     2   ar
     6    42    41    3
     7    31    30    1
     8    41    36    1
     9    30    29    3
    10     2     7    1
    11     2     3   ar
    12     4    13    1
    13     4     3   ar
    14    17    13   ar
    15    17    16   ar
    16    29    25    1
    17    45    44    1
    18    13    14   ar
    19     7     8    3
    20    33    32    1
    21    34    32    1
    22     3    10    1
    23    25    24   ar
    24    25    26   ar
    25    16    24    1
    26    16    15   ar
    27    24    28   ar
    28    32    26    1
    29    26    27   ar
    30    14    15   ar
    31    14    18    1
    32     8     9    1
    33    36    35   ar
    34    36    37   ar
    35    15    21    1
    36    18    19    3
    37    27    28   ar
    38    27    35    1
    39    44    46    1
    40    44    37    1
    41    19    20    1
    42    35    39   ar
    43    37    38   ar
    44    23    21    1
    45    21    22    1
    46    10    12    1
    47    10    11    1
    48    38    39   ar
    49    38    40    1
